MODEL        1
REMARK 921   NORMALIZED FREE ENERGY PREDICTED BY IDOCK:   -6.34 KCAL/MOL
REMARK 922        TOTAL FREE ENERGY PREDICTED BY IDOCK:  -10.82 KCAL/MOL
REMARK 923 INTER-LIGAND FREE ENERGY PREDICTED BY IDOCK:   -9.67 KCAL/MOL
REMARK 924 INTRA-LIGAND FREE ENERGY PREDICTED BY IDOCK:   -1.15 KCAL/MOL
REMARK 927      BINDING AFFINITY PREDICTED BY RF-SCORE:    0.00 PKD
ROOT
HETATM    1  C   UNL     1     -12.114  14.322  66.246  1.00  0.00    -0.413 C  
HETATM    2  C   UNL     1     -11.841  13.079  65.417  1.00  0.00    -0.428 C  
HETATM    3  C   UNL     1     -10.865  12.253  66.251  1.00  0.00    -0.278 C  
HETATM    4  O   UNL     1      -9.520  12.503  65.846  1.00  0.00    -0.376 OA 
HETATM    5  C   UNL     1     -11.043  12.703  67.717  1.00  0.00    -0.287 C  
HETATM    6  C   UNL     1     -10.231  17.007  67.505  1.00  0.00    -0.323 C  
HETATM    7  C   UNL     1     -12.067  13.863  67.691  1.00  0.00    -0.342 C  
HETATM    8  H   UNL     1      -8.913  11.989  66.365  1.00  0.00     0.000 HD 
HETATM    9  C   UNL     1     -11.611  15.109  68.422  1.00  0.00    -0.356 C  
HETATM   10  O   UNL     1     -11.084  15.299  66.081  1.00  0.00    -0.336 OA 
HETATM   11  C   UNL     1     -10.920  15.870  67.333  1.00  0.00    -0.257 C  
ENDROOT
BRANCH   5  12
HETATM   12  C   UNL     1     -11.560  11.588  68.602  1.00  0.00    -0.375 C  
HETATM   13  C   UNL     1     -11.794  11.734  69.917  1.00  0.00    -0.423 C  
BRANCH  13  14
HETATM   14  C   UNL     1     -12.435  10.689  70.785  1.00  0.00    -0.385 C  
HETATM   15  O   UNL     1     -11.398   9.880  71.325  1.00  0.00    -0.368 OA 
HETATM   16  H   UNL     1     -11.804   9.219  71.874  1.00  0.00     0.000 HD 
BRANCH  14  17
HETATM   17  C   UNL     1     -13.226  11.309  71.942  1.00  0.00    -0.491 C  
BRANCH  17  18
HETATM   18  C   UNL     1     -12.958  12.806  72.110  1.00  0.00    -0.344 C  
BRANCH  18  19
HETATM   19  C   UNL     1     -14.253  13.619  72.102  1.00  0.00    -0.481 C  
BRANCH  19  20
HETATM   20  C   UNL     1     -13.955  15.113  71.972  1.00  0.00    -0.629 C  
HETATM   21  C   UNL     1     -12.460  15.385  71.950  1.00  0.00    -0.452 C  
ENDBRANCH  19  20
ENDBRANCH  18  19
ENDBRANCH  17  18
ENDBRANCH  14  17
ENDBRANCH  13  14
ENDBRANCH   5  12
BRANCH   6  22
HETATM   22  C   UNL     1      -9.592  17.788  66.392  1.00  0.00    -0.293 C  
BRANCH  22  23
HETATM   23  C   UNL     1     -10.335  19.095  66.121  1.00  0.00    -0.561 C  
BRANCH  23  24
HETATM   24  C   UNL     1      -9.733  20.234  66.938  1.00  0.00    -0.584 C  
HETATM   25  C   UNL     1      -8.232  20.137  67.035  1.00  0.00    -0.327 C  
HETATM   26  O   UNL     1      -7.628  19.979  68.085  1.00  0.00    -0.298 OA 
HETATM   27  O   UNL     1      -7.599  20.283  65.851  1.00  0.00    -0.266 OA 
ENDBRANCH  23  24
ENDBRANCH  22  23
ENDBRANCH   6  22
TORSDOF 9
ENDMDL
MODEL        2
REMARK 921   NORMALIZED FREE ENERGY PREDICTED BY IDOCK:   -6.18 KCAL/MOL
REMARK 922        TOTAL FREE ENERGY PREDICTED BY IDOCK:  -10.58 KCAL/MOL
REMARK 923 INTER-LIGAND FREE ENERGY PREDICTED BY IDOCK:   -9.22 KCAL/MOL
REMARK 924 INTRA-LIGAND FREE ENERGY PREDICTED BY IDOCK:   -1.35 KCAL/MOL
REMARK 927      BINDING AFFINITY PREDICTED BY RF-SCORE:    0.00 PKD
ROOT
HETATM    1  C   UNL     1      -9.361  11.951  68.044  1.00  0.00    -0.193 C  
HETATM    2  C   UNL     1      -9.913  13.270  68.554  1.00  0.00    -0.189 C  
HETATM    3  C   UNL     1     -11.407  13.023  68.754  1.00  0.00    -0.289 C  
HETATM    4  O   UNL     1     -12.145  13.455  67.612  1.00  0.00    -0.342 OA 
HETATM    5  C   UNL     1     -11.585  11.500  68.926  1.00  0.00    -0.384 C  
HETATM    6  C   UNL     1      -9.848   9.907  65.229  1.00  0.00    -0.373 C  
HETATM    7  C   UNL     1     -10.184  10.876  68.727  1.00  0.00    -0.210 C  
HETATM    8  H   UNL     1     -13.074  13.301  67.736  1.00  0.00     0.000 HD 
HETATM    9  C   UNL     1     -10.147   9.740  67.724  1.00  0.00    -0.223 C  
HETATM   10  O   UNL     1      -9.565  11.807  66.636  1.00  0.00    -0.196 OA 
HETATM   11  C   UNL     1      -9.860  10.466  66.447  1.00  0.00    -0.213 C  
ENDROOT
BRANCH   5  12
HETATM   12  C   UNL     1     -12.115  11.134  70.296  1.00  0.00    -0.462 C  
HETATM   13  C   UNL     1     -12.271   9.868  70.716  1.00  0.00    -0.380 C  
BRANCH  13  14
HETATM   14  C   UNL     1     -12.662   9.481  72.115  1.00  0.00    -0.362 C  
HETATM   15  O   UNL     1     -14.051   9.178  72.108  1.00  0.00    -0.407 OA 
HETATM   16  H   UNL     1     -14.298   8.933  72.992  1.00  0.00     0.000 HD 
BRANCH  14  17
HETATM   17  C   UNL     1     -11.895   8.248  72.606  1.00  0.00    -0.382 C  
BRANCH  17  18
HETATM   18  C   UNL     1     -10.973   7.657  71.536  1.00  0.00    -0.263 C  
BRANCH  18  19
HETATM   19  C   UNL     1     -11.616   6.462  70.830  1.00  0.00    -0.393 C  
BRANCH  19  20
HETATM   20  C   UNL     1     -10.667   5.873  69.786  1.00  0.00    -0.411 C  
HETATM   21  C   UNL     1     -11.062   6.284  68.378  1.00  0.00    -0.371 C  
ENDBRANCH  19  20
ENDBRANCH  18  19
ENDBRANCH  17  18
ENDBRANCH  14  17
ENDBRANCH  13  14
ENDBRANCH   5  12
BRANCH   6  22
HETATM   22  C   UNL     1      -9.502  10.638  63.963  1.00  0.00    -0.329 C  
BRANCH  22  23
HETATM   23  C   UNL     1     -10.716  11.353  63.373  1.00  0.00    -0.405 C  
BRANCH  23  24
HETATM   24  C   UNL     1     -10.817  12.775  63.914  1.00  0.00    -0.447 C  
HETATM   25  C   UNL     1     -12.244  13.249  64.014  1.00  0.00    -0.410 C  
HETATM   26  O   UNL     1     -12.694  14.190  63.379  1.00  0.00    -0.767 OA 
HETATM   27  O   UNL     1     -12.985  12.560  64.909  1.00  0.00    -0.821 OA 
ENDBRANCH  23  24
ENDBRANCH  22  23
ENDBRANCH   6  22
TORSDOF 9
ENDMDL
MODEL        3
REMARK 921   NORMALIZED FREE ENERGY PREDICTED BY IDOCK:   -6.14 KCAL/MOL
REMARK 922        TOTAL FREE ENERGY PREDICTED BY IDOCK:  -10.52 KCAL/MOL
REMARK 923 INTER-LIGAND FREE ENERGY PREDICTED BY IDOCK:   -9.28 KCAL/MOL
REMARK 924 INTRA-LIGAND FREE ENERGY PREDICTED BY IDOCK:   -1.24 KCAL/MOL
REMARK 927      BINDING AFFINITY PREDICTED BY RF-SCORE:    0.00 PKD
ROOT
HETATM    1  C   UNL     1     -13.485  14.228  70.857  1.00  0.00    -0.136 C  
HETATM    2  C   UNL     1     -13.499  15.452  71.757  1.00  0.00    -0.581 C  
HETATM    3  C   UNL     1     -12.028  15.792  71.985  1.00  0.00    -0.479 C  
HETATM    4  O   UNL     1     -11.563  15.220  73.207  1.00  0.00    -0.379 OA 
HETATM    5  C   UNL     1     -11.242  15.176  70.808  1.00  0.00    -0.322 C  
HETATM    6  C   UNL     1     -12.300  10.928  71.067  1.00  0.00    -0.498 C  
HETATM    7  C   UNL     1     -12.276  14.401  69.957  1.00  0.00    -0.408 C  
HETATM    8  H   UNL     1     -10.648  15.432  73.349  1.00  0.00     0.000 HD 
HETATM    9  C   UNL     1     -11.881  12.970  69.652  1.00  0.00    -0.385 C  
HETATM   10  O   UNL     1     -13.284  13.028  71.608  1.00  0.00    -0.386 OA 
HETATM   11  C   UNL     1     -12.477  12.232  70.810  1.00  0.00    -0.265 C  
ENDROOT
BRANCH   5  12
HETATM   12  C   UNL     1     -10.567  16.228  69.953  1.00  0.00    -0.280 C  
HETATM   13  C   UNL     1     -10.890  16.459  68.670  1.00  0.00    -0.331 C  
BRANCH  13  14
HETATM   14  C   UNL     1     -10.333  17.585  67.846  1.00  0.00    -0.371 C  
HETATM   15  O   UNL     1      -9.510  18.376  68.693  1.00  0.00    -0.328 OA 
HETATM   16  H   UNL     1      -9.158  19.087  68.172  1.00  0.00     0.000 HD 
BRANCH  14  17
HETATM   17  C   UNL     1      -9.485  17.076  66.675  1.00  0.00    -0.279 C  
BRANCH  17  18
HETATM   18  C   UNL     1      -9.818  15.634  66.283  1.00  0.00    -0.318 C  
BRANCH  18  19
HETATM   19  C   UNL     1     -10.702  15.575  65.037  1.00  0.00    -0.463 C  
BRANCH  19  20
HETATM   20  C   UNL     1     -11.392  14.216  64.925  1.00  0.00    -0.365 C  
HETATM   21  C   UNL     1     -12.436  14.028  66.013  1.00  0.00    -0.489 C  
ENDBRANCH  19  20
ENDBRANCH  18  19
ENDBRANCH  17  18
ENDBRANCH  14  17
ENDBRANCH  13  14
ENDBRANCH   5  12
BRANCH   6  22
HETATM   22  C   UNL     1     -12.951  10.191  72.201  1.00  0.00    -0.436 C  
BRANCH  22  23
HETATM   23  C   UNL     1     -12.978   8.683  71.954  1.00  0.00    -0.409 C  
BRANCH  23  24
HETATM   24  C   UNL     1     -11.563   8.113  71.961  1.00  0.00    -0.389 C  
HETATM   25  C   UNL     1     -11.518   6.688  71.472  1.00  0.00    -0.297 C  
HETATM   26  O   UNL     1     -11.166   5.744  72.162  1.00  0.00    -0.268 OA 
HETATM   27  O   UNL     1     -11.867   6.546  70.175  1.00  0.00    -0.416 OA 
ENDBRANCH  23  24
ENDBRANCH  22  23
ENDBRANCH   6  22
TORSDOF 9
ENDMDL
MODEL        4
REMARK 921   NORMALIZED FREE ENERGY PREDICTED BY IDOCK:   -6.13 KCAL/MOL
REMARK 922        TOTAL FREE ENERGY PREDICTED BY IDOCK:  -10.51 KCAL/MOL
REMARK 923 INTER-LIGAND FREE ENERGY PREDICTED BY IDOCK:   -9.12 KCAL/MOL
REMARK 924 INTRA-LIGAND FREE ENERGY PREDICTED BY IDOCK:   -1.39 KCAL/MOL
REMARK 927      BINDING AFFINITY PREDICTED BY RF-SCORE:    0.00 PKD
ROOT
HETATM    1  C   UNL     1     -12.377  14.144  66.220  1.00  0.00    -0.422 C  
HETATM    2  C   UNL     1     -12.233  13.078  65.149  1.00  0.00    -0.507 C  
HETATM    3  C   UNL     1     -11.116  12.163  65.648  1.00  0.00    -0.316 C  
HETATM    4  O   UNL     1      -9.865  12.540  65.074  1.00  0.00    -0.428 OA 
HETATM    5  C   UNL     1     -11.045  12.344  67.178  1.00  0.00    -0.328 C  
HETATM    6  C   UNL     1     -10.343  16.651  67.605  1.00  0.00    -0.305 C  
HETATM    7  C   UNL     1     -12.074  13.444  67.531  1.00  0.00    -0.323 C  
HETATM    8  H   UNL     1      -9.170  11.971  65.383  1.00  0.00     0.000 HD 
HETATM    9  C   UNL     1     -11.517  14.564  68.387  1.00  0.00    -0.328 C  
HETATM   10  O   UNL     1     -11.405  15.180  66.062  1.00  0.00    -0.318 OA 
HETATM   11  C   UNL     1     -11.035  15.532  67.351  1.00  0.00    -0.306 C  
ENDROOT
BRANCH   5  12
HETATM   12  C   UNL     1     -11.385  11.071  67.924  1.00  0.00    -0.381 C  
HETATM   13  C   UNL     1     -10.602  10.539  68.877  1.00  0.00    -0.243 C  
BRANCH  13  14
HETATM   14  C   UNL     1     -10.983   9.358  69.725  1.00  0.00    -0.215 C  
HETATM   15  O   UNL     1      -9.858   8.491  69.789  1.00  0.00    -0.181 OA 
HETATM   16  H   UNL     1     -10.098   7.745  70.325  1.00  0.00     0.000 HD 
BRANCH  14  17
HETATM   17  C   UNL     1     -11.363   9.773  71.151  1.00  0.00    -0.459 C  
BRANCH  17  18
HETATM   18  C   UNL     1     -12.876   9.859  71.361  1.00  0.00    -0.505 C  
BRANCH  18  19
HETATM   19  C   UNL     1     -13.291  11.208  71.949  1.00  0.00    -0.409 C  
BRANCH  19  20
HETATM   20  C   UNL     1     -12.613  12.357  71.202  1.00  0.00    -0.349 C  
HETATM   21  C   UNL     1     -13.003  13.707  71.781  1.00  0.00    -0.441 C  
ENDBRANCH  19  20
ENDBRANCH  18  19
ENDBRANCH  17  18
ENDBRANCH  14  17
ENDBRANCH  13  14
ENDBRANCH   5  12
BRANCH   6  22
HETATM   22  C   UNL     1      -9.917  17.641  66.559  1.00  0.00    -0.332 C  
BRANCH  22  23
HETATM   23  C   UNL     1     -10.589  18.999  66.758  1.00  0.00    -0.508 C  
BRANCH  23  24
HETATM   24  C   UNL     1     -10.188  19.603  68.101  1.00  0.00    -0.580 C  
HETATM   25  C   UNL     1      -8.704  19.841  68.200  1.00  0.00    -0.284 C  
HETATM   26  O   UNL     1      -7.979  19.284  69.011  1.00  0.00    -0.340 OA 
HETATM   27  O   UNL     1      -8.240  20.766  67.331  1.00  0.00    -0.306 OA 
ENDBRANCH  23  24
ENDBRANCH  22  23
ENDBRANCH   6  22
TORSDOF 9
ENDMDL
MODEL        5
REMARK 921   NORMALIZED FREE ENERGY PREDICTED BY IDOCK:   -6.09 KCAL/MOL
REMARK 922        TOTAL FREE ENERGY PREDICTED BY IDOCK:  -10.44 KCAL/MOL
REMARK 923 INTER-LIGAND FREE ENERGY PREDICTED BY IDOCK:   -9.24 KCAL/MOL
REMARK 924 INTRA-LIGAND FREE ENERGY PREDICTED BY IDOCK:   -1.20 KCAL/MOL
REMARK 927      BINDING AFFINITY PREDICTED BY RF-SCORE:    0.00 PKD
ROOT
HETATM    1  C   UNL     1     -12.371  14.346  69.603  1.00  0.00    -0.255 C  
HETATM    2  C   UNL     1     -11.699  15.606  70.121  1.00  0.00    -0.374 C  
HETATM    3  C   UNL     1     -10.307  15.598  69.493  1.00  0.00    -0.277 C  
HETATM    4  O   UNL     1      -9.353  15.032  70.391  1.00  0.00    -0.188 OA 
HETATM    5  C   UNL     1     -10.395  14.718  68.228  1.00  0.00    -0.238 C  
HETATM    6  C   UNL     1     -11.809  10.886  69.823  1.00  0.00    -0.419 C  
HETATM    7  C   UNL     1     -11.834  14.149  68.198  1.00  0.00    -0.387 C  
HETATM    8  H   UNL     1      -8.487  15.028  70.000  1.00  0.00     0.000 HD 
HETATM    9  C   UNL     1     -11.903  12.645  68.022  1.00  0.00    -0.376 C  
HETATM   10  O   UNL     1     -11.991  13.198  70.364  1.00  0.00    -0.332 OA 
HETATM   11  C   UNL     1     -11.885  12.169  69.441  1.00  0.00    -0.309 C  
ENDROOT
BRANCH   5  12
HETATM   12  C   UNL     1     -10.133  15.504  66.961  1.00  0.00    -0.254 C  
HETATM   13  C   UNL     1     -10.717  16.682  66.685  1.00  0.00    -0.124 C  
BRANCH  13  14
HETATM   14  C   UNL     1     -10.369  17.544  65.504  1.00  0.00    -0.019 C  
HETATM   15  O   UNL     1     -11.254  17.205  64.445  1.00  0.00    -1.143 OA 
HETATM   16  H   UNL     1     -11.035  17.750  63.699  1.00  0.00     0.000 HD 
BRANCH  14  17
HETATM   17  C   UNL     1     -10.529  19.036  65.816  1.00  0.00    -0.375 C  
BRANCH  17  18
HETATM   18  C   UNL     1     -10.853  19.305  67.287  1.00  0.00    -0.554 C  
BRANCH  18  19
HETATM   19  C   UNL     1      -9.813  20.215  67.940  1.00  0.00    -0.525 C  
BRANCH  19  20
HETATM   20  C   UNL     1      -8.401  19.831  67.497  1.00  0.00    -0.351 C  
HETATM   21  C   UNL     1      -7.808  18.755  68.391  1.00  0.00    -0.351 C  
ENDBRANCH  19  20
ENDBRANCH  18  19
ENDBRANCH  17  18
ENDBRANCH  14  17
ENDBRANCH  13  14
ENDBRANCH   5  12
BRANCH   6  22
HETATM   22  C   UNL     1     -11.850  10.421  71.250  1.00  0.00    -0.381 C  
BRANCH  22  23
HETATM   23  C   UNL     1     -11.069   9.123  71.445  1.00  0.00    -0.415 C  
BRANCH  23  24
HETATM   24  C   UNL     1     -11.898   8.110  72.228  1.00  0.00    -0.441 C  
HETATM   25  C   UNL     1     -12.792   7.290  71.333  1.00  0.00    -0.382 C  
HETATM   26  O   UNL     1     -14.012   7.306  71.393  1.00  0.00    -0.398 OA 
HETATM   27  O   UNL     1     -12.120   6.492  70.475  1.00  0.00    -0.367 OA 
ENDBRANCH  23  24
ENDBRANCH  22  23
ENDBRANCH   6  22
TORSDOF 9
ENDMDL
MODEL        6
REMARK 921   NORMALIZED FREE ENERGY PREDICTED BY IDOCK:   -6.06 KCAL/MOL
REMARK 922        TOTAL FREE ENERGY PREDICTED BY IDOCK:  -10.39 KCAL/MOL
REMARK 923 INTER-LIGAND FREE ENERGY PREDICTED BY IDOCK:   -8.60 KCAL/MOL
REMARK 924 INTRA-LIGAND FREE ENERGY PREDICTED BY IDOCK:   -1.79 KCAL/MOL
REMARK 927      BINDING AFFINITY PREDICTED BY RF-SCORE:    0.00 PKD
ROOT
HETATM    1  C   UNL     1      -9.727  15.906  68.133  1.00  0.00    -0.212 C  
HETATM    2  C   UNL     1     -10.318  15.498  69.471  1.00  0.00    -0.271 C  
HETATM    3  C   UNL     1     -11.629  14.795  69.126  1.00  0.00    -0.303 C  
HETATM    4  O   UNL     1     -12.726  15.704  69.213  1.00  0.00    -0.502 OA 
HETATM    5  C   UNL     1     -11.498  14.299  67.671  1.00  0.00    -0.370 C  
HETATM    6  C   UNL     1     -10.660  17.997  65.469  1.00  0.00     0.007 C  
HETATM    7  C   UNL     1     -10.131  14.812  67.162  1.00  0.00    -0.240 C  
HETATM    8  H   UNL     1     -13.542  15.267  68.999  1.00  0.00     0.000 HD 
HETATM    9  C   UNL     1     -10.197  15.548  65.839  1.00  0.00    -0.367 C  
HETATM   10  O   UNL     1     -10.302  17.125  67.655  1.00  0.00    -0.320 OA 
HETATM   11  C   UNL     1     -10.413  16.961  66.284  1.00  0.00    -0.262 C  
ENDROOT
BRANCH   5  12
HETATM   12  C   UNL     1     -11.544  12.789  67.572  1.00  0.00    -0.412 C  
HETATM   13  C   UNL     1     -10.448  12.012  67.583  1.00  0.00    -0.226 C  
BRANCH  13  14
HETATM   14  C   UNL     1     -10.474  10.510  67.625  1.00  0.00    -0.234 C  
HETATM   15  O   UNL     1     -11.746  10.113  68.120  1.00  0.00    -0.694 OA 
HETATM   16  H   UNL     1     -11.762   9.163  68.146  1.00  0.00     0.000 HD 
BRANCH  14  17
HETATM   17  C   UNL     1     -10.275   9.893  66.236  1.00  0.00    -0.282 C  
BRANCH  17  18
HETATM   18  C   UNL     1      -9.554  10.832  65.266  1.00  0.00    -0.278 C  
BRANCH  18  19
HETATM   19  C   UNL     1     -10.255  10.894  63.909  1.00  0.00    -0.418 C  
BRANCH  19  20
HETATM   20  C   UNL     1     -10.743  12.312  63.614  1.00  0.00    -0.513 C  
HETATM   21  C   UNL     1     -12.216  12.477  63.950  1.00  0.00    -0.590 C  
ENDBRANCH  19  20
ENDBRANCH  18  19
ENDBRANCH  17  18
ENDBRANCH  14  17
ENDBRANCH  13  14
ENDBRANCH   5  12
BRANCH   6  22
HETATM   22  C   UNL     1     -10.818  19.418  65.927  1.00  0.00    -0.401 C  
BRANCH  22  23
HETATM   23  C   UNL     1      -9.466  20.093  66.149  1.00  0.00    -0.403 C  
BRANCH  23  24
HETATM   24  C   UNL     1      -9.218  20.323  67.637  1.00  0.00    -0.449 C  
HETATM   25  C   UNL     1      -7.907  19.737  68.095  1.00  0.00    -0.308 C  
HETATM   26  O   UNL     1      -7.815  18.839  68.918  1.00  0.00    -0.319 OA 
HETATM   27  O   UNL     1      -6.824  20.325  67.541  1.00  0.00    -0.238 OA 
ENDBRANCH  23  24
ENDBRANCH  22  23
ENDBRANCH   6  22
TORSDOF 9
ENDMDL
MODEL        7
REMARK 921   NORMALIZED FREE ENERGY PREDICTED BY IDOCK:   -6.05 KCAL/MOL
REMARK 922        TOTAL FREE ENERGY PREDICTED BY IDOCK:  -10.39 KCAL/MOL
REMARK 923 INTER-LIGAND FREE ENERGY PREDICTED BY IDOCK:   -8.99 KCAL/MOL
REMARK 924 INTRA-LIGAND FREE ENERGY PREDICTED BY IDOCK:   -1.39 KCAL/MOL
REMARK 927      BINDING AFFINITY PREDICTED BY RF-SCORE:    0.00 PKD
ROOT
HETATM    1  C   UNL     1      -9.677  15.313  67.603  1.00  0.00    -0.208 C  
HETATM    2  C   UNL     1     -10.242  14.410  68.685  1.00  0.00    -0.245 C  
HETATM    3  C   UNL     1     -11.686  14.145  68.264  1.00  0.00    -0.348 C  
HETATM    4  O   UNL     1     -12.575  15.049  68.918  1.00  0.00    -0.514 OA 
HETATM    5  C   UNL     1     -11.755  14.381  66.741  1.00  0.00    -0.415 C  
HETATM    6  C   UNL     1     -10.365  18.521  66.348  1.00  0.00    -0.456 C  
HETATM    7  C   UNL     1     -10.352  14.876  66.317  1.00  0.00    -0.302 C  
HETATM    8  H   UNL     1     -13.473  14.884  68.657  1.00  0.00     0.000 HD 
HETATM    9  C   UNL     1     -10.364  16.150  65.497  1.00  0.00    -0.391 C  
HETATM   10  O   UNL     1     -10.033  16.680  67.822  1.00  0.00    -0.251 OA 
HETATM   11  C   UNL     1     -10.269  17.201  66.559  1.00  0.00    -0.322 C  
ENDROOT
BRANCH   5  12
HETATM   12  C   UNL     1     -12.101  13.120  65.978  1.00  0.00    -0.495 C  
HETATM   13  C   UNL     1     -11.556  12.797  64.793  1.00  0.00    -0.368 C  
BRANCH  13  14
HETATM   14  C   UNL     1     -11.778  11.490  64.086  1.00  0.00    -0.108 C  
HETATM   15  O   UNL     1     -12.565  11.751  62.931  1.00  0.00    -0.840 OA 
HETATM   16  H   UNL     1     -12.705  10.925  62.484  1.00  0.00     0.000 HD 
BRANCH  14  17
HETATM   17  C   UNL     1     -10.460  10.844  63.644  1.00  0.00    -0.301 C  
BRANCH  17  18
HETATM   18  C   UNL     1      -9.398  10.846  64.747  1.00  0.00    -0.259 C  
BRANCH  18  19
HETATM   19  C   UNL     1      -9.273   9.477  65.416  1.00  0.00    -0.306 C  
BRANCH  19  20
HETATM   20  C   UNL     1     -10.308   9.320  66.529  1.00  0.00    -0.270 C  
HETATM   21  C   UNL     1     -10.130  10.372  67.611  1.00  0.00    -0.223 C  
ENDBRANCH  19  20
ENDBRANCH  18  19
ENDBRANCH  17  18
ENDBRANCH  14  17
ENDBRANCH  13  14
ENDBRANCH   5  12
BRANCH   6  22
HETATM   22  C   UNL     1     -10.210  19.565  67.417  1.00  0.00    -0.550 C  
BRANCH  22  23
HETATM   23  C   UNL     1      -9.046  20.508  67.121  1.00  0.00    -0.452 C  
BRANCH  23  24
HETATM   24  C   UNL     1      -7.721  19.752  67.147  1.00  0.00    -0.299 C  
HETATM   25  C   UNL     1      -7.167  19.521  65.765  1.00  0.00    -0.295 C  
HETATM   26  O   UNL     1      -7.003  18.415  65.275  1.00  0.00    -0.534 OA 
HETATM   27  O   UNL     1      -6.824  20.657  65.119  1.00  0.00    -0.240 OA 
ENDBRANCH  23  24
ENDBRANCH  22  23
ENDBRANCH   6  22
TORSDOF 9
ENDMDL
MODEL        8
REMARK 921   NORMALIZED FREE ENERGY PREDICTED BY IDOCK:   -6.04 KCAL/MOL
REMARK 922        TOTAL FREE ENERGY PREDICTED BY IDOCK:  -10.37 KCAL/MOL
REMARK 923 INTER-LIGAND FREE ENERGY PREDICTED BY IDOCK:   -9.02 KCAL/MOL
REMARK 924 INTRA-LIGAND FREE ENERGY PREDICTED BY IDOCK:   -1.35 KCAL/MOL
REMARK 927      BINDING AFFINITY PREDICTED BY RF-SCORE:    0.00 PKD
ROOT
HETATM    1  C   UNL     1      -9.774  10.322  69.701  1.00  0.00    -0.185 C  
HETATM    2  C   UNL     1      -9.091   9.309  68.799  1.00  0.00    -0.136 C  
HETATM    3  C   UNL     1     -10.033   9.141  67.609  1.00  0.00    -0.195 C  
HETATM    4  O   UNL     1     -10.884   8.010  67.797  1.00  0.00    -0.471 OA 
HETATM    5  C   UNL     1     -10.896  10.418  67.542  1.00  0.00    -0.358 C  
HETATM    6  C   UNL     1     -12.788  10.507  71.496  1.00  0.00    -0.568 C  
HETATM    7  C   UNL     1     -10.496  11.274  68.767  1.00  0.00    -0.232 C  
HETATM    8  H   UNL     1     -11.469   7.905  67.057  1.00  0.00     0.000 HD 
HETATM    9  C   UNL     1     -11.668  11.741  69.607  1.00  0.00    -0.413 C  
HETATM   10  O   UNL     1     -10.767   9.706  70.524  1.00  0.00    -0.264 OA 
HETATM   11  C   UNL     1     -11.802  10.625  70.596  1.00  0.00    -0.363 C  
ENDROOT
BRANCH   5  12
HETATM   12  C   UNL     1     -10.659  11.206  66.271  1.00  0.00    -0.309 C  
HETATM   13  C   UNL     1     -10.890  10.718  65.041  1.00  0.00    -0.055 C  
BRANCH  13  14
HETATM   14  C   UNL     1     -10.795  11.524  63.777  1.00  0.00    -0.416 C  
HETATM   15  O   UNL     1     -10.509  10.627  62.712  1.00  0.00    -0.724 OA 
HETATM   16  H   UNL     1     -10.449  11.137  61.913  1.00  0.00     0.000 HD 
BRANCH  14  17
HETATM   17  C   UNL     1     -12.104  12.256  63.462  1.00  0.00    -0.649 C  
BRANCH  17  18
HETATM   18  C   UNL     1     -12.150  13.671  64.046  1.00  0.00    -0.474 C  
BRANCH  18  19
HETATM   19  C   UNL     1     -12.910  13.713  65.372  1.00  0.00    -0.440 C  
BRANCH  19  20
HETATM   20  C   UNL     1     -12.069  14.384  66.459  1.00  0.00    -0.395 C  
HETATM   21  C   UNL     1     -10.816  15.020  65.882  1.00  0.00    -0.339 C  
ENDBRANCH  19  20
ENDBRANCH  18  19
ENDBRANCH  17  18
ENDBRANCH  14  17
ENDBRANCH  13  14
ENDBRANCH   5  12
BRANCH   6  22
HETATM   22  C   UNL     1     -12.876   9.412  72.520  1.00  0.00    -0.306 C  
BRANCH  22  23
HETATM   23  C   UNL     1     -14.157   8.594  72.365  1.00  0.00    -0.449 C  
BRANCH  23  24
HETATM   24  C   UNL     1     -13.960   7.475  71.348  1.00  0.00    -0.468 C  
HETATM   25  C   UNL     1     -12.557   6.924  71.368  1.00  0.00    -0.353 C  
HETATM   26  O   UNL     1     -11.788   6.989  70.422  1.00  0.00    -0.306 OA 
HETATM   27  O   UNL     1     -12.231   6.307  72.525  1.00  0.00    -0.152 OA 
ENDBRANCH  23  24
ENDBRANCH  22  23
ENDBRANCH   6  22
TORSDOF 9
ENDMDL
MODEL        9
REMARK 921   NORMALIZED FREE ENERGY PREDICTED BY IDOCK:   -6.03 KCAL/MOL
REMARK 922        TOTAL FREE ENERGY PREDICTED BY IDOCK:  -10.35 KCAL/MOL
REMARK 923 INTER-LIGAND FREE ENERGY PREDICTED BY IDOCK:   -8.76 KCAL/MOL
REMARK 924 INTRA-LIGAND FREE ENERGY PREDICTED BY IDOCK:   -1.58 KCAL/MOL
REMARK 927      BINDING AFFINITY PREDICTED BY RF-SCORE:    0.00 PKD
ROOT
HETATM    1  C   UNL     1     -10.936  11.927  66.447  1.00  0.00    -0.292 C  
HETATM    2  C   UNL     1     -11.978  12.961  66.060  1.00  0.00    -0.505 C  
HETATM    3  C   UNL     1     -11.639  14.196  66.892  1.00  0.00    -0.391 C  
HETATM    4  O   UNL     1     -12.425  14.230  68.083  1.00  0.00    -0.560 OA 
HETATM    5  C   UNL     1     -10.148  14.079  67.272  1.00  0.00    -0.249 C  
HETATM    6  C   UNL     1      -9.994  10.236  69.378  1.00  0.00    -0.254 C  
HETATM    7  C   UNL     1      -9.669  12.714  66.724  1.00  0.00    -0.240 C  
HETATM    8  H   UNL     1     -12.214  14.999  68.600  1.00  0.00     0.000 HD 
HETATM    9  C   UNL     1      -8.957  11.851  67.746  1.00  0.00    -0.173 C  
HETATM   10  O   UNL     1     -11.288  11.256  67.659  1.00  0.00    -0.287 OA 
HETATM   11  C   UNL     1     -10.091  11.068  68.332  1.00  0.00    -0.184 C  
ENDROOT
BRANCH   5  12
HETATM   12  C   UNL     1      -9.313  15.190  66.672  1.00  0.00    -0.291 C  
HETATM   13  C   UNL     1      -8.546  16.017  67.402  1.00  0.00    -0.194 C  
BRANCH  13  14
HETATM   14  C   UNL     1      -7.605  17.034  66.820  1.00  0.00    -0.238 C  
HETATM   15  O   UNL     1      -8.179  17.515  65.612  1.00  0.00    -0.505 OA 
HETATM   16  H   UNL     1      -7.584  18.158  65.245  1.00  0.00     0.000 HD 
BRANCH  14  17
HETATM   17  C   UNL     1      -7.386  18.221  67.764  1.00  0.00    -0.218 C  
BRANCH  17  18
HETATM   18  C   UNL     1      -8.220  19.447  67.381  1.00  0.00    -0.319 C  
BRANCH  18  19
HETATM   19  C   UNL     1      -9.486  19.561  68.232  1.00  0.00    -0.442 C  
BRANCH  19  20
HETATM   20  C   UNL     1     -10.710  19.088  67.448  1.00  0.00    -0.559 C  
HETATM   21  C   UNL     1     -10.706  19.626  66.027  1.00  0.00    -0.527 C  
ENDBRANCH  19  20
ENDBRANCH  18  19
ENDBRANCH  17  18
ENDBRANCH  14  17
ENDBRANCH  13  14
ENDBRANCH   5  12
BRANCH   6  22
HETATM   22  C   UNL     1     -11.130   9.415  69.917  1.00  0.00    -0.223 C  
BRANCH  22  23
HETATM   23  C   UNL     1     -11.629   9.952  71.257  1.00  0.00    -0.456 C  
BRANCH  23  24
HETATM   24  C   UNL     1     -12.988  10.626  71.093  1.00  0.00    -0.483 C  
HETATM   25  C   UNL     1     -12.937  12.099  71.410  1.00  0.00    -0.257 C  
HETATM   26  O   UNL     1     -13.557  12.618  72.325  1.00  0.00    -0.547 OA 
HETATM   27  O   UNL     1     -12.169  12.813  70.559  1.00  0.00    -0.368 OA 
ENDBRANCH  23  24
ENDBRANCH  22  23
ENDBRANCH   6  22
TORSDOF 9
ENDMDL
MODEL       10
REMARK 921   NORMALIZED FREE ENERGY PREDICTED BY IDOCK:   -6.02 KCAL/MOL
REMARK 922        TOTAL FREE ENERGY PREDICTED BY IDOCK:  -10.34 KCAL/MOL
REMARK 923 INTER-LIGAND FREE ENERGY PREDICTED BY IDOCK:   -9.23 KCAL/MOL
REMARK 924 INTRA-LIGAND FREE ENERGY PREDICTED BY IDOCK:   -1.11 KCAL/MOL
REMARK 927      BINDING AFFINITY PREDICTED BY RF-SCORE:    0.00 PKD
ROOT
HETATM    1  C   UNL     1     -12.179  12.882  64.924  1.00  0.00    -0.453 C  
HETATM    2  C   UNL     1     -11.989  12.100  63.636  1.00  0.00    -0.628 C  
HETATM    3  C   UNL     1     -10.605  11.467  63.759  1.00  0.00    -0.406 C  
HETATM    4  O   UNL     1      -9.624  12.274  63.108  1.00  0.00    -0.596 OA 
HETATM    5  C   UNL     1     -10.281  11.396  65.266  1.00  0.00    -0.320 C  
HETATM    6  C   UNL     1     -10.600  15.586  66.517  1.00  0.00    -0.307 C  
HETATM    7  C   UNL     1     -11.461  12.082  65.993  1.00  0.00    -0.399 C  
HETATM    8  H   UNL     1      -8.762  11.881  63.184  1.00  0.00     0.000 HD 
HETATM    9  C   UNL     1     -11.042  13.150  66.984  1.00  0.00    -0.305 C  
HETATM   10  O   UNL     1     -11.545  14.162  64.859  1.00  0.00    -0.345 OA 
HETATM   11  C   UNL     1     -11.029  14.377  66.127  1.00  0.00    -0.320 C  
ENDROOT
BRANCH   5  12
HETATM   12  C   UNL     1     -10.141   9.970  65.757  1.00  0.00    -0.320 C  
HETATM   13  C   UNL     1     -10.556   9.559  66.967  1.00  0.00    -0.271 C  
BRANCH  13  14
HETATM   14  C   UNL     1     -10.554   8.127  67.422  1.00  0.00    -0.255 C  
HETATM   15  O   UNL     1      -9.965   7.346  66.391  1.00  0.00    -0.416 OA 
HETATM   16  H   UNL     1      -9.964   6.441  66.678  1.00  0.00     0.000 HD 
BRANCH  14  17
HETATM   17  C   UNL     1      -9.742   7.933  68.707  1.00  0.00    -0.159 C  
BRANCH  17  18
HETATM   18  C   UNL     1      -9.607   9.220  69.524  1.00  0.00    -0.178 C  
BRANCH  18  19
HETATM   19  C   UNL     1     -10.107   9.038  70.958  1.00  0.00    -0.352 C  
BRANCH  19  20
HETATM   20  C   UNL     1     -11.501   9.642  71.127  1.00  0.00    -0.456 C  
HETATM   21  C   UNL     1     -11.672  10.895  70.285  1.00  0.00    -0.437 C  
ENDBRANCH  19  20
ENDBRANCH  18  19
ENDBRANCH  17  18
ENDBRANCH  14  17
ENDBRANCH  13  14
ENDBRANCH   5  12
BRANCH   6  22
HETATM   22  C   UNL     1     -10.648  16.820  65.662  1.00  0.00    -0.258 C  
BRANCH  22  23
HETATM   23  C   UNL     1      -9.908  17.987  66.313  1.00  0.00    -0.310 C  
BRANCH  23  24
HETATM   24  C   UNL     1     -10.761  18.620  67.408  1.00  0.00    -0.456 C  
HETATM   25  C   UNL     1     -10.046  19.745  68.111  1.00  0.00    -0.452 C  
HETATM   26  O   UNL     1      -9.756  19.730  69.297  1.00  0.00    -0.348 OA 
HETATM   27  O   UNL     1      -9.785  20.806  67.316  1.00  0.00    -0.479 OA 
ENDBRANCH  23  24
ENDBRANCH  22  23
ENDBRANCH   6  22
TORSDOF 9
ENDMDL
MODEL       11
REMARK 921   NORMALIZED FREE ENERGY PREDICTED BY IDOCK:   -6.00 KCAL/MOL
REMARK 922        TOTAL FREE ENERGY PREDICTED BY IDOCK:  -10.30 KCAL/MOL
REMARK 923 INTER-LIGAND FREE ENERGY PREDICTED BY IDOCK:   -8.75 KCAL/MOL
REMARK 924 INTRA-LIGAND FREE ENERGY PREDICTED BY IDOCK:   -1.55 KCAL/MOL
REMARK 927      BINDING AFFINITY PREDICTED BY RF-SCORE:    0.00 PKD
ROOT
HETATM    1  C   UNL     1      -9.880  10.498  69.343  1.00  0.00    -0.182 C  
HETATM    2  C   UNL     1      -9.207   9.533  68.383  1.00  0.00    -0.130 C  
HETATM    3  C   UNL     1     -10.203   9.355  67.239  1.00  0.00    -0.246 C  
HETATM    4  O   UNL     1     -11.000   8.188  67.444  1.00  0.00    -0.505 OA 
HETATM    5  C   UNL     1     -11.116  10.599  67.247  1.00  0.00    -0.313 C  
HETATM    6  C   UNL     1     -12.800  10.527  71.295  1.00  0.00    -0.532 C  
HETATM    7  C   UNL     1     -10.685  11.442  68.470  1.00  0.00    -0.235 C  
HETATM    8  H   UNL     1     -11.620   8.077  66.732  1.00  0.00     0.000 HD 
HETATM    9  C   UNL     1     -11.828  11.844  69.381  1.00  0.00    -0.389 C  
HETATM   10  O   UNL     1     -10.805   9.826  70.201  1.00  0.00    -0.247 OA 
HETATM   11  C   UNL     1     -11.868  10.703  70.348  1.00  0.00    -0.349 C  
ENDROOT
BRANCH   5  12
HETATM   12  C   UNL     1     -10.975  11.424  65.986  1.00  0.00    -0.286 C  
HETATM   13  C   UNL     1     -11.736  12.497  65.713  1.00  0.00    -0.478 C  
BRANCH  13  14
HETATM   14  C   UNL     1     -11.523  13.410  64.539  1.00  0.00    -0.372 C  
HETATM   15  O   UNL     1     -12.780  13.984  64.204  1.00  0.00    -0.662 OA 
HETATM   16  H   UNL     1     -12.646  14.561  63.462  1.00  0.00     0.000 HD 
BRANCH  14  17
HETATM   17  C   UNL     1     -10.540  14.541  64.861  1.00  0.00    -0.450 C  
BRANCH  17  18
HETATM   18  C   UNL     1     -10.916  15.313  66.128  1.00  0.00    -0.307 C  
BRANCH  18  19
HETATM   19  C   UNL     1      -9.706  15.538  67.035  1.00  0.00    -0.230 C  
BRANCH  19  20
HETATM   20  C   UNL     1     -10.147  15.773  68.480  1.00  0.00    -0.215 C  
HETATM   21  C   UNL     1     -11.659  15.706  68.620  1.00  0.00    -0.391 C  
ENDBRANCH  19  20
ENDBRANCH  18  19
ENDBRANCH  17  18
ENDBRANCH  14  17
ENDBRANCH  13  14
ENDBRANCH   5  12
BRANCH   6  22
HETATM   22  C   UNL     1     -12.793   9.406  72.295  1.00  0.00    -0.452 C  
BRANCH  22  23
HETATM   23  C   UNL     1     -14.096   8.609  72.259  1.00  0.00    -0.491 C  
BRANCH  23  24
HETATM   24  C   UNL     1     -14.007   7.481  71.235  1.00  0.00    -0.384 C  
HETATM   25  C   UNL     1     -12.635   6.858  71.188  1.00  0.00    -0.314 C  
HETATM   26  O   UNL     1     -11.910   6.884  70.206  1.00  0.00    -0.323 OA 
HETATM   27  O   UNL     1     -12.286   6.223  72.329  1.00  0.00    -0.268 OA 
ENDBRANCH  23  24
ENDBRANCH  22  23
ENDBRANCH   6  22
TORSDOF 9
ENDMDL
MODEL       12
REMARK 921   NORMALIZED FREE ENERGY PREDICTED BY IDOCK:   -5.98 KCAL/MOL
REMARK 922        TOTAL FREE ENERGY PREDICTED BY IDOCK:  -10.27 KCAL/MOL
REMARK 923 INTER-LIGAND FREE ENERGY PREDICTED BY IDOCK:   -9.38 KCAL/MOL
REMARK 924 INTRA-LIGAND FREE ENERGY PREDICTED BY IDOCK:   -0.89 KCAL/MOL
REMARK 927      BINDING AFFINITY PREDICTED BY RF-SCORE:    0.00 PKD
ROOT
HETATM    1  C   UNL     1     -12.034  13.927  66.871  1.00  0.00    -0.433 C  
HETATM    2  C   UNL     1     -11.552  12.695  66.125  1.00  0.00    -0.445 C  
HETATM    3  C   UNL     1     -10.477  12.086  67.023  1.00  0.00    -0.221 C  
HETATM    4  O   UNL     1      -9.179  12.520  66.618  1.00  0.00    -0.222 OA 
HETATM    5  C   UNL     1     -10.755  12.591  68.454  1.00  0.00    -0.259 C  
HETATM    6  C   UNL     1     -10.624  16.948  67.979  1.00  0.00    -0.367 C  
HETATM    7  C   UNL     1     -11.947  13.570  68.342  1.00  0.00    -0.378 C  
HETATM    8  H   UNL     1      -8.510  12.141  67.176  1.00  0.00     0.000 HD 
HETATM    9  C   UNL     1     -11.709  14.915  68.998  1.00  0.00    -0.347 C  
HETATM   10  O   UNL     1     -11.167  15.043  66.656  1.00  0.00    -0.335 OA 
HETATM   11  C   UNL     1     -11.122  15.708  67.872  1.00  0.00    -0.324 C  
ENDROOT
BRANCH   5  12
HETATM   12  C   UNL     1     -11.109  11.464  69.402  1.00  0.00    -0.301 C  
HETATM   13  C   UNL     1     -12.114  11.533  70.291  1.00  0.00    -0.444 C  
BRANCH  13  14
HETATM   14  C   UNL     1     -12.571  10.382  71.143  1.00  0.00    -0.410 C  
HETATM   15  O   UNL     1     -13.730   9.828  70.536  1.00  0.00    -0.547 OA 
HETATM   16  H   UNL     1     -14.019   9.101  71.074  1.00  0.00     0.000 HD 
BRANCH  14  17
HETATM   17  C   UNL     1     -11.504   9.287  71.251  1.00  0.00    -0.418 C  
BRANCH  17  18
HETATM   18  C   UNL     1     -11.845   8.226  72.301  1.00  0.00    -0.451 C  
BRANCH  18  19
HETATM   19  C   UNL     1     -11.891   6.823  71.695  1.00  0.00    -0.370 C  
BRANCH  19  20
HETATM   20  C   UNL     1     -10.574   6.491  70.994  1.00  0.00    -0.275 C  
HETATM   21  C   UNL     1     -10.806   5.975  69.583  1.00  0.00    -0.439 C  
ENDBRANCH  19  20
ENDBRANCH  18  19
ENDBRANCH  17  18
ENDBRANCH  14  17
ENDBRANCH  13  14
ENDBRANCH   5  12
BRANCH   6  22
HETATM   22  C   UNL     1     -10.092  17.750  66.827  1.00  0.00    -0.349 C  
BRANCH  22  23
HETATM   23  C   UNL     1     -10.412  19.236  66.977  1.00  0.00    -0.556 C  
BRANCH  23  24
HETATM   24  C   UNL     1      -9.840  19.779  68.283  1.00  0.00    -0.537 C  
HETATM   25  C   UNL     1      -8.335  19.837  68.267  1.00  0.00    -0.274 C  
HETATM   26  O   UNL     1      -7.622  19.192  69.021  1.00  0.00    -0.345 OA 
HETATM   27  O   UNL     1      -7.832  20.706  67.363  1.00  0.00    -0.331 OA 
ENDBRANCH  23  24
ENDBRANCH  22  23
ENDBRANCH   6  22
TORSDOF 9
ENDMDL
MODEL       13
REMARK 921   NORMALIZED FREE ENERGY PREDICTED BY IDOCK:   -5.96 KCAL/MOL
REMARK 922        TOTAL FREE ENERGY PREDICTED BY IDOCK:  -10.24 KCAL/MOL
REMARK 923 INTER-LIGAND FREE ENERGY PREDICTED BY IDOCK:   -9.41 KCAL/MOL
REMARK 924 INTRA-LIGAND FREE ENERGY PREDICTED BY IDOCK:   -0.83 KCAL/MOL
REMARK 927      BINDING AFFINITY PREDICTED BY RF-SCORE:    0.00 PKD
ROOT
HETATM    1  C   UNL     1     -12.437  13.359  65.944  1.00  0.00    -0.408 C  
HETATM    2  C   UNL     1     -11.899  13.860  64.616  1.00  0.00    -0.428 C  
HETATM    3  C   UNL     1     -10.417  13.492  64.625  1.00  0.00    -0.421 C  
HETATM    4  O   UNL     1      -9.628  14.597  65.066  1.00  0.00    -0.410 OA 
HETATM    5  C   UNL     1     -10.255  12.326  65.623  1.00  0.00    -0.287 C  
HETATM    6  C   UNL     1     -11.844  14.018  69.343  1.00  0.00    -0.381 C  
HETATM    7  C   UNL     1     -11.651  12.098  66.250  1.00  0.00    -0.424 C  
HETATM    8  H   UNL     1      -8.706  14.368  65.072  1.00  0.00     0.000 HD 
HETATM    9  C   UNL     1     -11.652  12.064  67.765  1.00  0.00    -0.400 C  
HETATM   10  O   UNL     1     -12.174  14.286  67.000  1.00  0.00    -0.424 OA 
HETATM   11  C   UNL     1     -11.880  13.504  68.106  1.00  0.00    -0.365 C  
ENDROOT
BRANCH   5  12
HETATM   12  C   UNL     1      -9.787  11.053  64.949  1.00  0.00    -0.327 C  
HETATM   13  C   UNL     1      -9.075  10.102  65.576  1.00  0.00    -0.216 C  
BRANCH  13  14
HETATM   14  C   UNL     1      -8.718   8.773  64.971  1.00  0.00    -0.148 C  
HETATM   15  O   UNL     1      -7.327   8.790  64.679  1.00  0.00    -0.093 OA 
HETATM   16  H   UNL     1      -7.102   7.950  64.296  1.00  0.00     0.000 HD 
BRANCH  14  17
HETATM   17  C   UNL     1      -9.003   7.611  65.929  1.00  0.00    -0.144 C  
BRANCH  17  18
HETATM   18  C   UNL     1     -10.221   7.861  66.822  1.00  0.00    -0.358 C  
BRANCH  18  19
HETATM   19  C   UNL     1     -10.983   6.569  67.117  1.00  0.00    -0.480 C  
BRANCH  19  20
HETATM   20  C   UNL     1     -10.309   5.375  66.440  1.00  0.00    -0.298 C  
HETATM   21  C   UNL     1      -9.781   4.380  67.459  1.00  0.00    -0.211 C  
ENDBRANCH  19  20
ENDBRANCH  18  19
ENDBRANCH  17  18
ENDBRANCH  14  17
ENDBRANCH  13  14
ENDBRANCH   5  12
BRANCH   6  22
HETATM   22  C   UNL     1     -12.131  15.455  69.673  1.00  0.00    -0.354 C  
BRANCH  22  23
HETATM   23  C   UNL     1     -12.949  15.587  70.957  1.00  0.00    -0.550 C  
BRANCH  23  24
HETATM   24  C   UNL     1     -12.049  15.960  72.131  1.00  0.00    -0.596 C  
HETATM   25  C   UNL     1     -12.699  15.681  73.461  1.00  0.00    -0.561 C  
HETATM   26  O   UNL     1     -12.969  16.545  74.281  1.00  0.00    -0.639 OA 
HETATM   27  O   UNL     1     -12.925  14.369  73.692  1.00  0.00    -0.487 OA 
ENDBRANCH  23  24
ENDBRANCH  22  23
ENDBRANCH   6  22
TORSDOF 9
ENDMDL
MODEL       14
REMARK 921   NORMALIZED FREE ENERGY PREDICTED BY IDOCK:   -5.96 KCAL/MOL
REMARK 922        TOTAL FREE ENERGY PREDICTED BY IDOCK:  -10.24 KCAL/MOL
REMARK 923 INTER-LIGAND FREE ENERGY PREDICTED BY IDOCK:   -9.37 KCAL/MOL
REMARK 924 INTRA-LIGAND FREE ENERGY PREDICTED BY IDOCK:   -0.87 KCAL/MOL
REMARK 927      BINDING AFFINITY PREDICTED BY RF-SCORE:    0.00 PKD
ROOT
HETATM    1  C   UNL     1     -13.899  14.104  71.410  1.00  0.00    -0.250 C  
HETATM    2  C   UNL     1     -13.986  15.217  72.439  1.00  0.00    -0.642 C  
HETATM    3  C   UNL     1     -12.537  15.602  72.729  1.00  0.00    -0.434 C  
HETATM    4  O   UNL     1     -12.059  14.921  73.888  1.00  0.00    -0.471 OA 
HETATM    5  C   UNL     1     -11.707  15.161  71.505  1.00  0.00    -0.447 C  
HETATM    6  C   UNL     1     -12.548  10.864  71.273  1.00  0.00    -0.526 C  
HETATM    7  C   UNL     1     -12.690  14.436  70.556  1.00  0.00    -0.401 C  
HETATM    8  H   UNL     1     -11.158  15.161  74.069  1.00  0.00     0.000 HD 
HETATM    9  C   UNL     1     -12.218  13.069  70.100  1.00  0.00    -0.342 C  
HETATM   10  O   UNL     1     -13.645  12.839  72.025  1.00  0.00    -0.466 OA 
HETATM   11  C   UNL     1     -12.789  12.178  71.159  1.00  0.00    -0.217 C  
ENDROOT
BRANCH   5  12
HETATM   12  C   UNL     1     -11.077  16.335  70.784  1.00  0.00    -0.217 C  
HETATM   13  C   UNL     1     -10.429  16.224  69.613  1.00  0.00    -0.294 C  
BRANCH  13  14
HETATM   14  C   UNL     1      -9.918  17.389  68.813  1.00  0.00    -0.329 C  
HETATM   15  O   UNL     1      -8.684  17.001  68.224  1.00  0.00    -0.225 OA 
HETATM   16  H   UNL     1      -8.361  17.737  67.718  1.00  0.00     0.000 HD 
BRANCH  14  17
HETATM   17  C   UNL     1     -10.889  17.789  67.697  1.00  0.00    -0.234 C  
BRANCH  17  18
HETATM   18  C   UNL     1     -10.174  18.218  66.413  1.00  0.00    -0.417 C  
BRANCH  18  19
HETATM   19  C   UNL     1     -10.419  19.693  66.092  1.00  0.00    -0.624 C  
BRANCH  19  20
HETATM   20  C   UNL     1      -9.542  20.590  66.965  1.00  0.00    -0.540 C  
HETATM   21  C   UNL     1      -8.074  20.215  66.854  1.00  0.00    -0.360 C  
ENDBRANCH  19  20
ENDBRANCH  18  19
ENDBRANCH  17  18
ENDBRANCH  14  17
ENDBRANCH  13  14
ENDBRANCH   5  12
BRANCH   6  22
HETATM   22  C   UNL     1     -13.174   9.973  72.306  1.00  0.00    -0.401 C  
BRANCH  22  23
HETATM   23  C   UNL     1     -12.747   8.517  72.131  1.00  0.00    -0.423 C  
BRANCH  23  24
HETATM   24  C   UNL     1     -11.229   8.389  72.218  1.00  0.00    -0.446 C  
HETATM   25  C   UNL     1     -10.668   7.503  71.136  1.00  0.00    -0.227 C  
HETATM   26  O   UNL     1     -10.083   6.453  71.353  1.00  0.00    -0.188 OA 
HETATM   27  O   UNL     1     -10.832   7.995  69.889  1.00  0.00    -0.248 OA 
ENDBRANCH  23  24
ENDBRANCH  22  23
ENDBRANCH   6  22
TORSDOF 9
ENDMDL
MODEL       15
REMARK 921   NORMALIZED FREE ENERGY PREDICTED BY IDOCK:   -5.94 KCAL/MOL
REMARK 922        TOTAL FREE ENERGY PREDICTED BY IDOCK:  -10.21 KCAL/MOL
REMARK 923 INTER-LIGAND FREE ENERGY PREDICTED BY IDOCK:   -8.79 KCAL/MOL
REMARK 924 INTRA-LIGAND FREE ENERGY PREDICTED BY IDOCK:   -1.41 KCAL/MOL
REMARK 927      BINDING AFFINITY PREDICTED BY RF-SCORE:    0.00 PKD
ROOT
HETATM    1  C   UNL     1     -11.057  10.737  67.373  1.00  0.00    -0.296 C  
HETATM    2  C   UNL     1     -10.189   9.494  67.295  1.00  0.00    -0.295 C  
HETATM    3  C   UNL     1      -9.377   9.497  68.589  1.00  0.00    -0.142 C  
HETATM    4  O   UNL     1      -8.096  10.088  68.376  1.00  0.00    -0.098 OA 
HETATM    5  C   UNL     1     -10.165  10.349  69.606  1.00  0.00    -0.245 C  
HETATM    6  C   UNL     1     -10.526  14.205  67.551  1.00  0.00    -0.249 C  
HETATM    7  C   UNL     1     -11.390  10.908  68.843  1.00  0.00    -0.354 C  
HETATM    8  H   UNL     1      -7.590  10.090  69.181  1.00  0.00     0.000 HD 
HETATM    9  C   UNL     1     -11.570  12.407  68.973  1.00  0.00    -0.362 C  
HETATM   10  O   UNL     1     -10.339  11.905  66.966  1.00  0.00    -0.208 OA 
HETATM   11  C   UNL     1     -10.779  12.914  67.808  1.00  0.00    -0.224 C  
ENDROOT
BRANCH   5  12
HETATM   12  C   UNL     1     -10.634   9.538  70.795  1.00  0.00    -0.387 C  
HETATM   13  C   UNL     1     -11.908   9.511  71.218  1.00  0.00    -0.450 C  
BRANCH  13  14
HETATM   14  C   UNL     1     -12.422   8.610  72.306  1.00  0.00    -0.395 C  
HETATM   15  O   UNL     1     -13.593   9.207  72.846  1.00  0.00    -0.809 OA 
HETATM   16  H   UNL     1     -13.917   8.637  73.534  1.00  0.00     0.000 HD 
BRANCH  14  17
HETATM   17  C   UNL     1     -12.783   7.218  71.776  1.00  0.00    -0.370 C  
BRANCH  17  18
HETATM   18  C   UNL     1     -11.773   6.144  72.188  1.00  0.00    -0.361 C  
BRANCH  18  19
HETATM   19  C   UNL     1     -10.898   5.706  71.014  1.00  0.00    -0.289 C  
BRANCH  19  20
HETATM   20  C   UNL     1     -11.489   6.187  69.688  1.00  0.00    -0.332 C  
HETATM   21  C   UNL     1     -10.587   5.841  68.516  1.00  0.00    -0.299 C  
ENDBRANCH  19  20
ENDBRANCH  18  19
ENDBRANCH  17  18
ENDBRANCH  14  17
ENDBRANCH  13  14
ENDBRANCH   5  12
BRANCH   6  22
HETATM   22  C   UNL     1      -9.780  14.700  66.346  1.00  0.00    -0.315 C  
BRANCH  22  23
HETATM   23  C   UNL     1     -10.725  15.270  65.289  1.00  0.00    -0.433 C  
BRANCH  23  24
HETATM   24  C   UNL     1     -11.980  14.411  65.173  1.00  0.00    -0.391 C  
HETATM   25  C   UNL     1     -11.971  13.549  63.937  1.00  0.00    -0.440 C  
HETATM   26  O   UNL     1     -12.785  13.649  63.032  1.00  0.00    -0.681 OA 
HETATM   27  O   UNL     1     -10.995  12.614  63.932  1.00  0.00    -0.368 OA 
ENDBRANCH  23  24
ENDBRANCH  22  23
ENDBRANCH   6  22
TORSDOF 9
ENDMDL
MODEL       16
REMARK 921   NORMALIZED FREE ENERGY PREDICTED BY IDOCK:   -5.93 KCAL/MOL
REMARK 922        TOTAL FREE ENERGY PREDICTED BY IDOCK:  -10.20 KCAL/MOL
REMARK 923 INTER-LIGAND FREE ENERGY PREDICTED BY IDOCK:   -8.39 KCAL/MOL
REMARK 924 INTRA-LIGAND FREE ENERGY PREDICTED BY IDOCK:   -1.81 KCAL/MOL
REMARK 927      BINDING AFFINITY PREDICTED BY RF-SCORE:    0.00 PKD
ROOT
HETATM    1  C   UNL     1     -11.014  10.036  68.747  1.00  0.00    -0.202 C  
HETATM    2  C   UNL     1     -10.619  11.472  69.046  1.00  0.00    -0.207 C  
HETATM    3  C   UNL     1      -9.326  11.697  68.265  1.00  0.00    -0.191 C  
HETATM    4  O   UNL     1      -8.190  11.484  69.101  1.00  0.00    -0.366 OA 
HETATM    5  C   UNL     1      -9.313  10.661  67.121  1.00  0.00    -0.172 C  
HETATM    6  C   UNL     1      -9.625   6.853  69.271  1.00  0.00    -0.149 C  
HETATM    7  C   UNL     1     -10.571   9.783  67.319  1.00  0.00    -0.320 C  
HETATM    8  H   UNL     1      -7.386  11.625  68.616  1.00  0.00     0.000 HD 
HETATM    9  C   UNL     1     -10.294   8.293  67.316  1.00  0.00    -0.372 C  
HETATM   10  O   UNL     1     -10.305   9.114  69.578  1.00  0.00    -0.202 OA 
HETATM   11  C   UNL     1     -10.038   8.023  68.766  1.00  0.00    -0.195 C  
ENDROOT
BRANCH   5  12
HETATM   12  C   UNL     1      -9.358  11.312  65.754  1.00  0.00    -0.245 C  
HETATM   13  C   UNL     1     -10.306  11.051  64.840  1.00  0.00    -0.378 C  
BRANCH  13  14
HETATM   14  C   UNL     1     -10.451  11.783  63.536  1.00  0.00    -0.449 C  
HETATM   15  O   UNL     1     -10.316  10.832  62.488  1.00  0.00    -0.748 OA 
HETATM   16  H   UNL     1     -10.407  11.295  61.664  1.00  0.00     0.000 HD 
BRANCH  14  17
HETATM   17  C   UNL     1     -11.819  12.462  63.407  1.00  0.00    -0.571 C  
BRANCH  17  18
HETATM   18  C   UNL     1     -12.559  12.566  64.743  1.00  0.00    -0.493 C  
BRANCH  18  19
HETATM   19  C   UNL     1     -12.421  13.958  65.361  1.00  0.00    -0.528 C  
BRANCH  19  20
HETATM   20  C   UNL     1     -12.023  13.861  66.833  1.00  0.00    -0.467 C  
HETATM   21  C   UNL     1     -10.868  14.792  67.163  1.00  0.00    -0.311 C  
ENDBRANCH  19  20
ENDBRANCH  18  19
ENDBRANCH  17  18
ENDBRANCH  14  17
ENDBRANCH  13  14
ENDBRANCH   5  12
BRANCH   6  22
HETATM   22  C   UNL     1      -9.429   6.583  70.735  1.00  0.00    -0.180 C  
BRANCH  22  23
HETATM   23  C   UNL     1     -10.419   5.543  71.256  1.00  0.00    -0.306 C  
BRANCH  23  24
HETATM   24  C   UNL     1     -11.263   6.124  72.386  1.00  0.00    -0.329 C  
HETATM   25  C   UNL     1     -12.066   7.320  71.943  1.00  0.00    -0.314 C  
HETATM   26  O   UNL     1     -11.918   8.444  72.397  1.00  0.00    -0.372 OA 
HETATM   27  O   UNL     1     -13.006   7.033  71.017  1.00  0.00    -0.326 OA 
ENDBRANCH  23  24
ENDBRANCH  22  23
ENDBRANCH   6  22
TORSDOF 9
ENDMDL
MODEL       17
REMARK 921   NORMALIZED FREE ENERGY PREDICTED BY IDOCK:   -5.91 KCAL/MOL
REMARK 922        TOTAL FREE ENERGY PREDICTED BY IDOCK:  -10.17 KCAL/MOL
REMARK 923 INTER-LIGAND FREE ENERGY PREDICTED BY IDOCK:   -8.67 KCAL/MOL
REMARK 924 INTRA-LIGAND FREE ENERGY PREDICTED BY IDOCK:   -1.49 KCAL/MOL
REMARK 927      BINDING AFFINITY PREDICTED BY RF-SCORE:    0.00 PKD
ROOT
HETATM    1  C   UNL     1     -11.155  10.232  67.459  1.00  0.00    -0.232 C  
HETATM    2  C   UNL     1      -9.913   9.440  67.092  1.00  0.00    -0.263 C  
HETATM    3  C   UNL     1      -8.902   9.756  68.192  1.00  0.00    -0.119 C  
HETATM    4  O   UNL     1      -8.032  10.812  67.787  1.00  0.00    -0.108 OA 
HETATM    5  C   UNL     1      -9.714  10.214  69.422  1.00  0.00    -0.247 C  
HETATM    6  C   UNL     1     -11.987  13.621  67.858  1.00  0.00    -0.382 C  
HETATM    7  C   UNL     1     -11.195  10.243  68.975  1.00  0.00    -0.260 C  
HETATM    8  H   UNL     1      -7.403  11.008  68.471  1.00  0.00     0.000 HD 
HETATM    9  C   UNL     1     -11.909  11.544  69.281  1.00  0.00    -0.414 C  
HETATM   10  O   UNL     1     -11.055  11.592  67.031  1.00  0.00    -0.271 OA 
HETATM   11  C   UNL     1     -11.655  12.335  68.035  1.00  0.00    -0.349 C  
ENDROOT
BRANCH   5  12
HETATM   12  C   UNL     1      -9.556   9.273  70.598  1.00  0.00    -0.334 C  
HETATM   13  C   UNL     1     -10.497   9.101  71.541  1.00  0.00    -0.422 C  
BRANCH  13  14
HETATM   14  C   UNL     1     -10.422   8.075  72.636  1.00  0.00    -0.339 C  
HETATM   15  O   UNL     1     -11.750   7.789  73.054  1.00  0.00    -0.613 OA 
HETATM   16  H   UNL     1     -11.703   7.140  73.746  1.00  0.00     0.000 HD 
BRANCH  14  17
HETATM   17  C   UNL     1      -9.768   6.773  72.160  1.00  0.00    -0.156 C  
BRANCH  17  18
HETATM   18  C   UNL     1     -10.785   5.665  71.879  1.00  0.00    -0.299 C  
BRANCH  18  19
HETATM   19  C   UNL     1     -10.525   4.983  70.535  1.00  0.00    -0.230 C  
BRANCH  19  20
HETATM   20  C   UNL     1     -10.027   5.994  69.502  1.00  0.00    -0.225 C  
HETATM   21  C   UNL     1     -11.029   6.181  68.375  1.00  0.00    -0.391 C  
ENDBRANCH  19  20
ENDBRANCH  18  19
ENDBRANCH  17  18
ENDBRANCH  14  17
ENDBRANCH  13  14
ENDBRANCH   5  12
BRANCH   6  22
HETATM   22  C   UNL     1     -11.776  14.384  66.581  1.00  0.00    -0.410 C  
BRANCH  22  23
HETATM   23  C   UNL     1     -12.656  13.849  65.452  1.00  0.00    -0.538 C  
BRANCH  23  24
HETATM   24  C   UNL     1     -11.833  13.636  64.186  1.00  0.00    -0.463 C  
HETATM   25  C   UNL     1     -11.922  12.219  63.679  1.00  0.00    -0.543 C  
HETATM   26  O   UNL     1     -10.966  11.462  63.605  1.00  0.00    -0.393 OA 
HETATM   27  O   UNL     1     -13.159  11.864  63.267  1.00  0.00    -0.674 OA 
ENDBRANCH  23  24
ENDBRANCH  22  23
ENDBRANCH   6  22
TORSDOF 9
ENDMDL
MODEL       18
REMARK 921   NORMALIZED FREE ENERGY PREDICTED BY IDOCK:   -5.91 KCAL/MOL
REMARK 922        TOTAL FREE ENERGY PREDICTED BY IDOCK:  -10.16 KCAL/MOL
REMARK 923 INTER-LIGAND FREE ENERGY PREDICTED BY IDOCK:   -8.98 KCAL/MOL
REMARK 924 INTRA-LIGAND FREE ENERGY PREDICTED BY IDOCK:   -1.18 KCAL/MOL
REMARK 927      BINDING AFFINITY PREDICTED BY RF-SCORE:    0.00 PKD
ROOT
HETATM    1  C   UNL     1      -9.583  11.724  66.438  1.00  0.00    -0.218 C  
HETATM    2  C   UNL     1     -10.162  12.589  65.333  1.00  0.00    -0.303 C  
HETATM    3  C   UNL     1     -11.564  12.958  65.814  1.00  0.00    -0.368 C  
HETATM    4  O   UNL     1     -12.534  12.066  65.269  1.00  0.00    -0.427 OA 
HETATM    5  C   UNL     1     -11.557  12.820  67.351  1.00  0.00    -0.415 C  
HETATM    6  C   UNL     1     -10.362   8.641  67.932  1.00  0.00    -0.286 C  
HETATM    7  C   UNL     1     -10.159  12.276  67.729  1.00  0.00    -0.202 C  
HETATM    8  H   UNL     1     -13.406  12.296  65.567  1.00  0.00     0.000 HD 
HETATM    9  C   UNL     1     -10.190  11.056  68.628  1.00  0.00    -0.211 C  
HETATM   10  O   UNL     1     -10.021  10.368  66.328  1.00  0.00    -0.207 OA 
HETATM   11  C   UNL     1     -10.210   9.939  67.632  1.00  0.00    -0.208 C  
ENDROOT
BRANCH   5  12
HETATM   12  C   UNL     1     -11.793  14.142  68.049  1.00  0.00    -0.400 C  
HETATM   13  C   UNL     1     -11.571  14.339  69.359  1.00  0.00    -0.354 C  
BRANCH  13  14
HETATM   14  C   UNL     1     -11.665  15.673  70.044  1.00  0.00    -0.357 C  
HETATM   15  O   UNL     1     -12.997  16.146  69.889  1.00  0.00    -0.517 OA 
HETATM   16  H   UNL     1     -13.056  16.990  70.322  1.00  0.00     0.000 HD 
BRANCH  14  17
HETATM   17  C   UNL     1     -11.353  15.574  71.541  1.00  0.00    -0.466 C  
BRANCH  17  18
HETATM   18  C   UNL     1     -12.585  15.797  72.422  1.00  0.00    -0.539 C  
BRANCH  18  19
HETATM   19  C   UNL     1     -12.989  14.523  73.164  1.00  0.00    -0.577 C  
BRANCH  19  20
HETATM   20  C   UNL     1     -13.889  13.648  72.291  1.00  0.00    -0.689 C  
HETATM   21  C   UNL     1     -13.258  12.293  72.021  1.00  0.00    -0.508 C  
ENDBRANCH  19  20
ENDBRANCH  18  19
ENDBRANCH  17  18
ENDBRANCH  14  17
ENDBRANCH  13  14
ENDBRANCH   5  12
BRANCH   6  22
HETATM   22  C   UNL     1     -10.322   7.528  66.925  1.00  0.00    -0.379 C  
BRANCH  22  23
HETATM   23  C   UNL     1     -10.770   6.200  67.534  1.00  0.00    -0.393 C  
BRANCH  23  24
HETATM   24  C   UNL     1     -11.058   6.361  69.023  1.00  0.00    -0.424 C  
HETATM   25  C   UNL     1     -10.079   5.602  69.881  1.00  0.00    -0.222 C  
HETATM   26  O   UNL     1     -10.394   4.681  70.619  1.00  0.00    -0.182 OA 
HETATM   27  O   UNL     1      -8.811   6.059  69.795  1.00  0.00    -0.131 OA 
ENDBRANCH  23  24
ENDBRANCH  22  23
ENDBRANCH   6  22
TORSDOF 9
ENDMDL
MODEL       19
REMARK 921   NORMALIZED FREE ENERGY PREDICTED BY IDOCK:   -5.90 KCAL/MOL
REMARK 922        TOTAL FREE ENERGY PREDICTED BY IDOCK:  -10.16 KCAL/MOL
REMARK 923 INTER-LIGAND FREE ENERGY PREDICTED BY IDOCK:   -9.14 KCAL/MOL
REMARK 924 INTRA-LIGAND FREE ENERGY PREDICTED BY IDOCK:   -1.02 KCAL/MOL
REMARK 927      BINDING AFFINITY PREDICTED BY RF-SCORE:    0.00 PKD
ROOT
HETATM    1  C   UNL     1     -11.901  13.926  67.561  1.00  0.00    -0.396 C  
HETATM    2  C   UNL     1     -11.773  12.702  66.672  1.00  0.00    -0.464 C  
HETATM    3  C   UNL     1     -11.105  11.645  67.548  1.00  0.00    -0.276 C  
HETATM    4  O   UNL     1      -9.694  11.629  67.330  1.00  0.00    -0.179 OA 
HETATM    5  C   UNL     1     -11.385  12.040  69.013  1.00  0.00    -0.331 C  
HETATM    6  C   UNL     1      -9.706  16.084  69.253  1.00  0.00    -0.257 C  
HETATM    7  C   UNL     1     -12.143  13.388  68.958  1.00  0.00    -0.299 C  
HETATM    8  H   UNL     1      -9.278  10.971  67.874  1.00  0.00     0.000 HD 
HETATM    9  C   UNL     1     -11.549  14.469  69.839  1.00  0.00    -0.340 C  
HETATM   10  O   UNL     1     -10.684  14.674  67.602  1.00  0.00    -0.263 OA 
HETATM   11  C   UNL     1     -10.579  15.127  68.907  1.00  0.00    -0.242 C  
ENDROOT
BRANCH   5  12
HETATM   12  C   UNL     1     -12.230  11.011  69.735  1.00  0.00    -0.388 C  
HETATM   13  C   UNL     1     -11.945  10.549  70.964  1.00  0.00    -0.466 C  
BRANCH  13  14
HETATM   14  C   UNL     1     -12.839   9.636  71.754  1.00  0.00    -0.421 C  
HETATM   15  O   UNL     1     -13.789   9.077  70.857  1.00  0.00    -0.587 OA 
HETATM   16  H   UNL     1     -14.354   8.500  71.356  1.00  0.00     0.000 HD 
BRANCH  14  17
HETATM   17  C   UNL     1     -12.056   8.493  72.411  1.00  0.00    -0.436 C  
BRANCH  17  18
HETATM   18  C   UNL     1     -12.071   7.208  71.580  1.00  0.00    -0.371 C  
BRANCH  18  19
HETATM   19  C   UNL     1     -10.722   6.950  70.909  1.00  0.00    -0.258 C  
BRANCH  19  20
HETATM   20  C   UNL     1     -10.731   7.449  69.464  1.00  0.00    -0.233 C  
HETATM   21  C   UNL     1     -10.870   6.301  68.477  1.00  0.00    -0.394 C  
ENDBRANCH  19  20
ENDBRANCH  18  19
ENDBRANCH  17  18
ENDBRANCH  14  17
ENDBRANCH  13  14
ENDBRANCH   5  12
BRANCH   6  22
HETATM   22  C   UNL     1      -8.780  16.774  68.294  1.00  0.00    -0.227 C  
BRANCH  22  23
HETATM   23  C   UNL     1      -9.005  18.284  68.278  1.00  0.00    -0.318 C  
BRANCH  23  24
HETATM   24  C   UNL     1     -10.408  18.612  67.777  1.00  0.00    -0.454 C  
HETATM   25  C   UNL     1     -10.457  18.780  66.280  1.00  0.00    -0.435 C  
HETATM   26  O   UNL     1     -10.755  19.824  65.722  1.00  0.00    -0.512 OA 
HETATM   27  O   UNL     1     -10.177  17.648  65.596  1.00  0.00    -0.593 OA 
ENDBRANCH  23  24
ENDBRANCH  22  23
ENDBRANCH   6  22
TORSDOF 9
ENDMDL
MODEL       20
REMARK 921   NORMALIZED FREE ENERGY PREDICTED BY IDOCK:   -5.86 KCAL/MOL
REMARK 922        TOTAL FREE ENERGY PREDICTED BY IDOCK:  -10.09 KCAL/MOL
REMARK 923 INTER-LIGAND FREE ENERGY PREDICTED BY IDOCK:   -9.12 KCAL/MOL
REMARK 924 INTRA-LIGAND FREE ENERGY PREDICTED BY IDOCK:   -0.97 KCAL/MOL
REMARK 927      BINDING AFFINITY PREDICTED BY RF-SCORE:    0.00 PKD
ROOT
HETATM    1  C   UNL     1     -11.364  11.812  66.765  1.00  0.00    -0.320 C  
HETATM    2  C   UNL     1     -11.975  12.921  65.926  1.00  0.00    -0.504 C  
HETATM    3  C   UNL     1     -11.519  14.217  66.593  1.00  0.00    -0.364 C  
HETATM    4  O   UNL     1     -12.519  14.700  67.490  1.00  0.00    -0.551 OA 
HETATM    5  C   UNL     1     -10.243  13.881  67.393  1.00  0.00    -0.252 C  
HETATM    6  C   UNL     1     -11.610  10.705  70.089  1.00  0.00    -0.414 C  
HETATM    7  C   UNL     1     -10.033  12.355  67.247  1.00  0.00    -0.209 C  
HETATM    8  H   UNL     1     -12.236  15.506  67.905  1.00  0.00     0.000 HD 
HETATM    9  C   UNL     1      -9.832  11.628  68.562  1.00  0.00    -0.196 C  
HETATM   10  O   UNL     1     -12.152  11.538  67.926  1.00  0.00    -0.630 OA 
HETATM   11  C   UNL     1     -11.237  11.265  68.930  1.00  0.00    -0.253 C  
ENDROOT
BRANCH   5  12
HETATM   12  C   UNL     1      -9.026  14.614  66.870  1.00  0.00    -0.275 C  
HETATM   13  C   UNL     1      -8.819  15.929  67.050  1.00  0.00    -0.240 C  
BRANCH  13  14
HETATM   14  C   UNL     1      -7.558  16.649  66.663  1.00  0.00    -0.279 C  
HETATM   15  O   UNL     1      -7.892  17.595  65.656  1.00  0.00    -0.533 OA 
HETATM   16  H   UNL     1      -7.095  18.050  65.411  1.00  0.00     0.000 HD 
BRANCH  14  17
HETATM   17  C   UNL     1      -6.935  17.395  67.848  1.00  0.00    -0.181 C  
BRANCH  17  18
HETATM   18  C   UNL     1      -7.130  18.912  67.764  1.00  0.00    -0.245 C  
BRANCH  18  19
HETATM   19  C   UNL     1      -8.390  19.363  68.504  1.00  0.00    -0.399 C  
BRANCH  19  20
HETATM   20  C   UNL     1      -9.317  20.142  67.571  1.00  0.00    -0.507 C  
HETATM   21  C   UNL     1     -10.667  19.460  67.427  1.00  0.00    -0.594 C  
ENDBRANCH  19  20
ENDBRANCH  18  19
ENDBRANCH  17  18
ENDBRANCH  14  17
ENDBRANCH  13  14
ENDBRANCH   5  12
BRANCH   6  22
HETATM   22  C   UNL     1     -13.016  10.295  70.420  1.00  0.00    -0.153 C  
BRANCH  22  23
HETATM   23  C   UNL     1     -13.171   9.947  71.900  1.00  0.00    -0.558 C  
BRANCH  23  24
HETATM   24  C   UNL     1     -13.505   8.468  72.071  1.00  0.00    -0.409 C  
HETATM   25  C   UNL     1     -12.330   7.577  71.762  1.00  0.00    -0.326 C  
HETATM   26  O   UNL     1     -12.315   6.763  70.851  1.00  0.00    -0.381 OA 
HETATM   27  O   UNL     1     -11.293   7.726  72.616  1.00  0.00    -0.348 OA 
ENDBRANCH  23  24
ENDBRANCH  22  23
ENDBRANCH   6  22
TORSDOF 9
ENDMDL
MODEL       21
REMARK 921   NORMALIZED FREE ENERGY PREDICTED BY IDOCK:   -5.86 KCAL/MOL
REMARK 922        TOTAL FREE ENERGY PREDICTED BY IDOCK:  -10.09 KCAL/MOL
REMARK 923 INTER-LIGAND FREE ENERGY PREDICTED BY IDOCK:   -8.19 KCAL/MOL
REMARK 924 INTRA-LIGAND FREE ENERGY PREDICTED BY IDOCK:   -1.90 KCAL/MOL
REMARK 927      BINDING AFFINITY PREDICTED BY RF-SCORE:    0.00 PKD
ROOT
HETATM    1  C   UNL     1      -8.866  10.434  67.189  1.00  0.00    -0.136 C  
HETATM    2  C   UNL     1      -9.537  10.809  68.499  1.00  0.00    -0.183 C  
HETATM    3  C   UNL     1     -10.763   9.902  68.589  1.00  0.00    -0.226 C  
HETATM    4  O   UNL     1     -11.923  10.575  68.102  1.00  0.00    -0.788 OA 
HETATM    5  C   UNL     1     -10.476   8.678  67.694  1.00  0.00    -0.311 C  
HETATM    6  C   UNL     1      -9.716  10.507  63.782  1.00  0.00    -0.385 C  
HETATM    7  C   UNL     1      -9.109   8.947  67.020  1.00  0.00    -0.161 C  
HETATM    8  H   UNL     1     -12.686  10.012  68.158  1.00  0.00     0.000 HD 
HETATM    9  C   UNL     1      -9.116   8.779  65.514  1.00  0.00    -0.221 C  
HETATM   10  O   UNL     1      -9.482  11.090  66.078  1.00  0.00    -0.192 OA 
HETATM   11  C   UNL     1      -9.467  10.159  65.052  1.00  0.00    -0.271 C  
ENDROOT
BRANCH   5  12
HETATM   12  C   UNL     1     -10.408   7.389  68.486  1.00  0.00    -0.221 C  
HETATM   13  C   UNL     1      -9.308   6.978  69.138  1.00  0.00    -0.140 C  
BRANCH  13  14
HETATM   14  C   UNL     1      -9.257   5.778  70.041  1.00  0.00    -0.146 C  
HETATM   15  O   UNL     1      -8.457   6.116  71.167  1.00  0.00    -0.123 OA 
HETATM   16  H   UNL     1      -8.425   5.358  71.737  1.00  0.00     0.000 HD 
BRANCH  14  17
HETATM   17  C   UNL     1     -10.650   5.372  70.536  1.00  0.00    -0.312 C  
BRANCH  17  18
HETATM   18  C   UNL     1     -11.057   6.093  71.823  1.00  0.00    -0.327 C  
BRANCH  18  19
HETATM   19  C   UNL     1     -12.445   6.726  71.705  1.00  0.00    -0.394 C  
BRANCH  19  20
HETATM   20  C   UNL     1     -12.336   8.235  71.491  1.00  0.00    -0.336 C  
HETATM   21  C   UNL     1     -10.991   8.770  71.953  1.00  0.00    -0.435 C  
ENDBRANCH  19  20
ENDBRANCH  18  19
ENDBRANCH  17  18
ENDBRANCH  14  17
ENDBRANCH  13  14
ENDBRANCH   5  12
BRANCH   6  22
HETATM   22  C   UNL     1     -10.010  11.907  63.327  1.00  0.00    -0.409 C  
BRANCH  22  23
HETATM   23  C   UNL     1     -11.483  12.266  63.517  1.00  0.00    -0.558 C  
BRANCH  23  24
HETATM   24  C   UNL     1     -11.621  13.608  64.228  1.00  0.00    -0.413 C  
HETATM   25  C   UNL     1     -12.628  13.560  65.349  1.00  0.00    -0.483 C  
HETATM   26  O   UNL     1     -13.656  14.219  65.368  1.00  0.00    -0.516 OA 
HETATM   27  O   UNL     1     -12.273  12.744  66.366  1.00  0.00    -0.507 OA 
ENDBRANCH  23  24
ENDBRANCH  22  23
ENDBRANCH   6  22
TORSDOF 9
ENDMDL
MODEL       22
REMARK 921   NORMALIZED FREE ENERGY PREDICTED BY IDOCK:   -5.84 KCAL/MOL
REMARK 922        TOTAL FREE ENERGY PREDICTED BY IDOCK:  -10.06 KCAL/MOL
REMARK 923 INTER-LIGAND FREE ENERGY PREDICTED BY IDOCK:   -8.86 KCAL/MOL
REMARK 924 INTRA-LIGAND FREE ENERGY PREDICTED BY IDOCK:   -1.20 KCAL/MOL
REMARK 927      BINDING AFFINITY PREDICTED BY RF-SCORE:    0.00 PKD
ROOT
HETATM    1  C   UNL     1     -12.343  13.506  66.261  1.00  0.00    -0.383 C  
HETATM    2  C   UNL     1     -12.347  12.985  64.835  1.00  0.00    -0.512 C  
HETATM    3  C   UNL     1     -10.952  12.402  64.622  1.00  0.00    -0.305 C  
HETATM    4  O   UNL     1     -10.098  13.357  63.995  1.00  0.00    -0.764 OA 
HETATM    5  C   UNL     1     -10.393  12.066  66.021  1.00  0.00    -0.271 C  
HETATM    6  C   UNL     1     -10.570  15.934  68.079  1.00  0.00    -0.287 C  
HETATM    7  C   UNL     1     -11.453  12.554  67.037  1.00  0.00    -0.419 C  
HETATM    8  H   UNL     1      -9.230  12.995  63.862  1.00  0.00     0.000 HD 
HETATM    9  C   UNL     1     -10.898  13.437  68.137  1.00  0.00    -0.273 C  
HETATM   10  O   UNL     1     -11.745  14.802  66.344  1.00  0.00    -0.346 OA 
HETATM   11  C   UNL     1     -11.038  14.801  67.536  1.00  0.00    -0.319 C  
ENDROOT
BRANCH   5  12
HETATM   12  C   UNL     1     -10.158  10.582  66.205  1.00  0.00    -0.306 C  
HETATM   13  C   UNL     1     -10.574   9.893  67.281  1.00  0.00    -0.316 C  
BRANCH  13  14
HETATM   14  C   UNL     1     -10.475   8.400  67.422  1.00  0.00    -0.283 C  
HETATM   15  O   UNL     1      -9.181   8.009  66.980  1.00  0.00    -0.136 OA 
HETATM   16  H   UNL     1      -9.118   7.066  67.070  1.00  0.00     0.000 HD 
BRANCH  14  17
HETATM   17  C   UNL     1     -10.653   7.948  68.875  1.00  0.00    -0.165 C  
BRANCH  17  18
HETATM   18  C   UNL     1      -9.976   8.886  69.877  1.00  0.00    -0.197 C  
BRANCH  18  19
HETATM   19  C   UNL     1     -10.850   9.127  71.109  1.00  0.00    -0.381 C  
BRANCH  19  20
HETATM   20  C   UNL     1     -11.773  10.326  70.893  1.00  0.00    -0.472 C  
HETATM   21  C   UNL     1     -13.051  10.200  71.706  1.00  0.00    -0.568 C  
ENDBRANCH  19  20
ENDBRANCH  18  19
ENDBRANCH  17  18
ENDBRANCH  14  17
ENDBRANCH  13  14
ENDBRANCH   5  12
BRANCH   6  22
HETATM   22  C   UNL     1     -10.769  17.301  67.491  1.00  0.00    -0.278 C  
BRANCH  22  23
HETATM   23  C   UNL     1     -10.014  18.371  68.279  1.00  0.00    -0.394 C  
BRANCH  23  24
HETATM   24  C   UNL     1      -8.542  18.392  67.880  1.00  0.00    -0.285 C  
HETATM   25  C   UNL     1      -8.355  18.476  66.387  1.00  0.00    -0.259 C  
HETATM   26  O   UNL     1      -7.816  17.607  65.720  1.00  0.00    -0.548 OA 
HETATM   27  O   UNL     1      -8.804  19.630  65.846  1.00  0.00    -0.395 OA 
ENDBRANCH  23  24
ENDBRANCH  22  23
ENDBRANCH   6  22
TORSDOF 9
ENDMDL
MODEL       23
REMARK 921   NORMALIZED FREE ENERGY PREDICTED BY IDOCK:   -5.83 KCAL/MOL
REMARK 922        TOTAL FREE ENERGY PREDICTED BY IDOCK:  -10.05 KCAL/MOL
REMARK 923 INTER-LIGAND FREE ENERGY PREDICTED BY IDOCK:   -8.14 KCAL/MOL
REMARK 924 INTRA-LIGAND FREE ENERGY PREDICTED BY IDOCK:   -1.91 KCAL/MOL
REMARK 927      BINDING AFFINITY PREDICTED BY RF-SCORE:    0.00 PKD
ROOT
HETATM    1  C   UNL     1     -11.778  14.777  67.320  1.00  0.00    -0.347 C  
HETATM    2  C   UNL     1     -11.508  14.480  68.784  1.00  0.00    -0.322 C  
HETATM    3  C   UNL     1      -9.993  14.596  68.939  1.00  0.00    -0.228 C  
HETATM    4  O   UNL     1      -9.377  13.312  68.833  1.00  0.00    -0.394 OA 
HETATM    5  C   UNL     1      -9.496  15.491  67.784  1.00  0.00    -0.204 C  
HETATM    6  C   UNL     1     -10.911  13.347  64.230  1.00  0.00    -0.391 C  
HETATM    7  C   UNL     1     -10.738  15.806  66.917  1.00  0.00    -0.299 C  
HETATM    8  H   UNL     1      -8.435  13.384  68.929  1.00  0.00     0.000 HD 
HETATM    9  C   UNL     1     -10.550  15.528  65.439  1.00  0.00    -0.428 C  
HETATM   10  O   UNL     1     -11.567  13.623  66.503  1.00  0.00    -0.335 OA 
HETATM   11  C   UNL     1     -11.000  14.104  65.333  1.00  0.00    -0.327 C  
ENDROOT
BRANCH   5  12
HETATM   12  C   UNL     1      -8.882  16.783  68.281  1.00  0.00    -0.228 C  
HETATM   13  C   UNL     1      -7.591  16.904  68.629  1.00  0.00    -0.232 C  
BRANCH  13  14
HETATM   14  C   UNL     1      -6.929  18.204  68.992  1.00  0.00    -0.254 C  
HETATM   15  O   UNL     1      -5.733  18.308  68.230  1.00  0.00    -0.170 OA 
HETATM   16  H   UNL     1      -5.315  19.129  68.459  1.00  0.00     0.000 HD 
BRANCH  14  17
HETATM   17  C   UNL     1      -7.819  19.410  68.673  1.00  0.00    -0.399 C  
BRANCH  17  18
HETATM   18  C   UNL     1      -7.368  20.167  67.421  1.00  0.00    -0.323 C  
BRANCH  18  19
HETATM   19  C   UNL     1      -8.312  19.925  66.242  1.00  0.00    -0.371 C  
BRANCH  19  20
HETATM   20  C   UNL     1      -9.762  20.191  66.644  1.00  0.00    -0.568 C  
HETATM   21  C   UNL     1     -10.731  19.347  65.833  1.00  0.00    -0.501 C  
ENDBRANCH  19  20
ENDBRANCH  18  19
ENDBRANCH  17  18
ENDBRANCH  14  17
ENDBRANCH  13  14
ENDBRANCH   5  12
BRANCH   6  22
HETATM   22  C   UNL     1     -11.421  11.939  64.125  1.00  0.00    -0.449 C  
BRANCH  22  23
HETATM   23  C   UNL     1     -10.277  10.928  64.054  1.00  0.00    -0.422 C  
BRANCH  23  24
HETATM   24  C   UNL     1      -9.390  11.034  65.290  1.00  0.00    -0.245 C  
HETATM   25  C   UNL     1      -9.970  10.306  66.475  1.00  0.00    -0.224 C  
HETATM   26  O   UNL     1     -10.307  10.856  67.512  1.00  0.00    -0.186 OA 
HETATM   27  O   UNL     1     -10.050   8.968  66.307  1.00  0.00    -0.295 OA 
ENDBRANCH  23  24
ENDBRANCH  22  23
ENDBRANCH   6  22
TORSDOF 9
ENDMDL
MODEL       24
REMARK 921   NORMALIZED FREE ENERGY PREDICTED BY IDOCK:   -5.83 KCAL/MOL
REMARK 922        TOTAL FREE ENERGY PREDICTED BY IDOCK:  -10.05 KCAL/MOL
REMARK 923 INTER-LIGAND FREE ENERGY PREDICTED BY IDOCK:   -8.79 KCAL/MOL
REMARK 924 INTRA-LIGAND FREE ENERGY PREDICTED BY IDOCK:   -1.27 KCAL/MOL
REMARK 927      BINDING AFFINITY PREDICTED BY RF-SCORE:    0.00 PKD
ROOT
HETATM    1  C   UNL     1     -11.587  14.380  66.590  1.00  0.00    -0.384 C  
HETATM    2  C   UNL     1     -12.721  13.726  65.821  1.00  0.00    -0.494 C  
HETATM    3  C   UNL     1     -12.166  13.497  64.417  1.00  0.00    -0.390 C  
HETATM    4  O   UNL     1     -12.540  14.566  63.548  1.00  0.00    -1.034 OA 
HETATM    5  C   UNL     1     -10.628  13.466  64.547  1.00  0.00    -0.441 C  
HETATM    6  C   UNL     1      -9.739  17.358  66.359  1.00  0.00    -0.303 C  
HETATM    7  C   UNL     1     -10.315  13.773  66.030  1.00  0.00    -0.311 C  
HETATM    8  H   UNL     1     -12.195  14.424  62.674  1.00  0.00     0.000 HD 
HETATM    9  C   UNL     1      -9.300  14.881  66.233  1.00  0.00    -0.329 C  
HETATM   10  O   UNL     1     -11.528  15.787  66.342  1.00  0.00     0.028 OA 
HETATM   11  C   UNL     1     -10.177  16.093  66.304  1.00  0.00    -0.320 C  
ENDROOT
BRANCH   5  12
HETATM   12  C   UNL     1     -10.047  12.119  64.173  1.00  0.00    -0.335 C  
HETATM   13  C   UNL     1      -9.698  11.186  65.074  1.00  0.00    -0.298 C  
BRANCH  13  14
HETATM   14  C   UNL     1      -9.250   9.795  64.725  1.00  0.00    -0.261 C  
HETATM   15  O   UNL     1      -7.880   9.862  64.352  1.00  0.00    -0.131 OA 
HETATM   16  H   UNL     1      -7.597   8.983  64.131  1.00  0.00     0.000 HD 
BRANCH  14  17
HETATM   17  C   UNL     1      -9.388   8.833  65.910  1.00  0.00    -0.284 C  
BRANCH  17  18
HETATM   18  C   UNL     1     -10.443   9.284  66.923  1.00  0.00    -0.284 C  
BRANCH  18  19
HETATM   19  C   UNL     1      -9.825   9.587  68.288  1.00  0.00    -0.174 C  
BRANCH  19  20
HETATM   20  C   UNL     1     -10.897  10.041  69.280  1.00  0.00    -0.261 C  
HETATM   21  C   UNL     1     -11.468  11.398  68.903  1.00  0.00    -0.363 C  
ENDBRANCH  19  20
ENDBRANCH  18  19
ENDBRANCH  17  18
ENDBRANCH  14  17
ENDBRANCH  13  14
ENDBRANCH   5  12
BRANCH   6  22
HETATM   22  C   UNL     1     -10.631  18.559  66.488  1.00  0.00    -0.375 C  
BRANCH  22  23
HETATM   23  C   UNL     1      -9.925  19.838  66.040  1.00  0.00    -0.541 C  
BRANCH  23  24
HETATM   24  C   UNL     1      -8.411  19.673  66.122  1.00  0.00    -0.354 C  
HETATM   25  C   UNL     1      -7.825  20.356  67.330  1.00  0.00    -0.324 C  
HETATM   26  O   UNL     1      -7.033  21.284  67.269  1.00  0.00    -0.508 OA 
HETATM   27  O   UNL     1      -8.225  19.823  68.505  1.00  0.00    -0.314 OA 
ENDBRANCH  23  24
ENDBRANCH  22  23
ENDBRANCH   6  22
TORSDOF 9
ENDMDL
MODEL       25
REMARK 921   NORMALIZED FREE ENERGY PREDICTED BY IDOCK:   -5.83 KCAL/MOL
REMARK 922        TOTAL FREE ENERGY PREDICTED BY IDOCK:  -10.05 KCAL/MOL
REMARK 923 INTER-LIGAND FREE ENERGY PREDICTED BY IDOCK:   -8.65 KCAL/MOL
REMARK 924 INTRA-LIGAND FREE ENERGY PREDICTED BY IDOCK:   -1.39 KCAL/MOL
REMARK 927      BINDING AFFINITY PREDICTED BY RF-SCORE:    0.00 PKD
ROOT
HETATM    1  C   UNL     1     -11.075  10.614  67.227  1.00  0.00    -0.243 C  
HETATM    2  C   UNL     1     -10.142   9.434  67.429  1.00  0.00    -0.271 C  
HETATM    3  C   UNL     1      -9.520   9.652  68.806  1.00  0.00    -0.148 C  
HETATM    4  O   UNL     1      -8.254  10.300  68.689  1.00  0.00    -0.104 OA 
HETATM    5  C   UNL     1     -10.486  10.567  69.589  1.00  0.00    -0.257 C  
HETATM    6  C   UNL     1     -10.754  14.106  67.015  1.00  0.00    -0.285 C  
HETATM    7  C   UNL     1     -11.618  10.941  68.605  1.00  0.00    -0.373 C  
HETATM    8  H   UNL     1      -7.867  10.436  69.546  1.00  0.00     0.000 HD 
HETATM    9  C   UNL     1     -11.892  12.429  68.511  1.00  0.00    -0.352 C  
HETATM   10  O   UNL     1     -10.368  11.769  66.768  1.00  0.00    -0.211 OA 
HETATM   11  C   UNL     1     -10.973  12.842  67.404  1.00  0.00    -0.260 C  
ENDROOT
BRANCH   5  12
HETATM   12  C   UNL     1     -11.073   9.878  70.803  1.00  0.00    -0.417 C  
HETATM   13  C   UNL     1     -12.390   9.669  70.971  1.00  0.00    -0.396 C  
BRANCH  13  14
HETATM   14  C   UNL     1     -12.984   8.868  72.095  1.00  0.00    -0.416 C  
HETATM   15  O   UNL     1     -14.116   9.577  72.581  1.00  0.00    -0.709 OA 
HETATM   16  H   UNL     1     -14.491   9.071  73.291  1.00  0.00     0.000 HD 
BRANCH  14  17
HETATM   17  C   UNL     1     -13.438   7.479  71.634  1.00  0.00    -0.429 C  
BRANCH  17  18
HETATM   18  C   UNL     1     -12.493   6.363  72.088  1.00  0.00    -0.173 C  
BRANCH  18  19
HETATM   19  C   UNL     1     -11.252   6.273  71.199  1.00  0.00    -0.365 C  
BRANCH  19  20
HETATM   20  C   UNL     1     -11.642   6.292  69.721  1.00  0.00    -0.330 C  
HETATM   21  C   UNL     1     -10.506   5.805  68.837  1.00  0.00    -0.326 C  
ENDBRANCH  19  20
ENDBRANCH  18  19
ENDBRANCH  17  18
ENDBRANCH  14  17
ENDBRANCH  13  14
ENDBRANCH   5  12
BRANCH   6  22
HETATM   22  C   UNL     1      -9.873  14.499  65.864  1.00  0.00    -0.347 C  
BRANCH  22  23
HETATM   23  C   UNL     1      -9.191  15.844  66.108  1.00  0.00    -0.384 C  
BRANCH  23  24
HETATM   24  C   UNL     1     -10.147  16.813  66.796  1.00  0.00    -0.295 C  
HETATM   25  C   UNL     1     -10.398  18.050  65.972  1.00  0.00    -0.331 C  
HETATM   26  O   UNL     1     -10.089  19.177  66.327  1.00  0.00    -0.378 OA 
HETATM   27  O   UNL     1     -11.041  17.808  64.809  1.00  0.00    -0.852 OA 
ENDBRANCH  23  24
ENDBRANCH  22  23
ENDBRANCH   6  22
TORSDOF 9
ENDMDL
MODEL       26
REMARK 921   NORMALIZED FREE ENERGY PREDICTED BY IDOCK:   -5.78 KCAL/MOL
REMARK 922        TOTAL FREE ENERGY PREDICTED BY IDOCK:   -9.97 KCAL/MOL
REMARK 923 INTER-LIGAND FREE ENERGY PREDICTED BY IDOCK:   -8.72 KCAL/MOL
REMARK 924 INTRA-LIGAND FREE ENERGY PREDICTED BY IDOCK:   -1.25 KCAL/MOL
REMARK 927      BINDING AFFINITY PREDICTED BY RF-SCORE:    0.00 PKD
ROOT
HETATM    1  C   UNL     1      -9.748  10.116  69.563  1.00  0.00    -0.229 C  
HETATM    2  C   UNL     1      -9.092   9.402  68.394  1.00  0.00    -0.128 C  
HETATM    3  C   UNL     1     -10.162   9.362  67.305  1.00  0.00    -0.246 C  
HETATM    4  O   UNL     1     -10.863   8.119  67.334  1.00  0.00    -0.493 OA 
HETATM    5  C   UNL     1     -11.150  10.507  67.610  1.00  0.00    -0.375 C  
HETATM    6  C   UNL     1     -12.501   9.552  71.671  1.00  0.00    -0.476 C  
HETATM    7  C   UNL     1     -10.679  11.139  68.941  1.00  0.00    -0.246 C  
HETATM    8  H   UNL     1     -11.528   8.093  66.656  1.00  0.00     0.000 HD 
HETATM    9  C   UNL     1     -11.770  11.274  69.984  1.00  0.00    -0.428 C  
HETATM   10  O   UNL     1     -10.557   9.225  70.335  1.00  0.00    -0.214 OA 
HETATM   11  C   UNL     1     -11.660   9.973  70.716  1.00  0.00    -0.360 C  
ENDROOT
BRANCH   5  12
HETATM   12  C   UNL     1     -11.163  11.561  66.523  1.00  0.00    -0.324 C  
HETATM   13  C   UNL     1     -11.891  12.687  66.591  1.00  0.00    -0.449 C  
BRANCH  13  14
HETATM   14  C   UNL     1     -11.815  13.808  65.593  1.00  0.00    -0.365 C  
HETATM   15  O   UNL     1     -13.134  14.068  65.132  1.00  0.00    -0.776 OA 
HETATM   16  H   UNL     1     -13.085  14.776  64.501  1.00  0.00     0.000 HD 
BRANCH  14  17
HETATM   17  C   UNL     1     -11.252  15.092  66.213  1.00  0.00    -0.309 C  
BRANCH  17  18
HETATM   18  C   UNL     1     -10.829  14.911  67.673  1.00  0.00    -0.286 C  
BRANCH  18  19
HETATM   19  C   UNL     1     -11.774  15.635  68.632  1.00  0.00    -0.364 C  
BRANCH  19  20
HETATM   20  C   UNL     1     -11.949  14.840  69.926  1.00  0.00    -0.378 C  
HETATM   21  C   UNL     1     -12.826  15.580  70.922  1.00  0.00    -0.535 C  
ENDBRANCH  19  20
ENDBRANCH  18  19
ENDBRANCH  17  18
ENDBRANCH  14  17
ENDBRANCH  13  14
ENDBRANCH   5  12
BRANCH   6  22
HETATM   22  C   UNL     1     -12.342   8.269  72.435  1.00  0.00    -0.385 C  
BRANCH  22  23
HETATM   23  C   UNL     1     -12.841   7.068  71.634  1.00  0.00    -0.408 C  
BRANCH  23  24
HETATM   24  C   UNL     1     -11.667   6.271  71.075  1.00  0.00    -0.283 C  
HETATM   25  C   UNL     1     -10.715   5.822  72.154  1.00  0.00    -0.231 C  
HETATM   26  O   UNL     1      -9.550   6.182  72.225  1.00  0.00    -0.154 OA 
HETATM   27  O   UNL     1     -11.256   4.942  73.025  1.00  0.00    -0.279 OA 
ENDBRANCH  23  24
ENDBRANCH  22  23
ENDBRANCH   6  22
TORSDOF 9
ENDMDL
MODEL       27
REMARK 921   NORMALIZED FREE ENERGY PREDICTED BY IDOCK:   -5.76 KCAL/MOL
REMARK 922        TOTAL FREE ENERGY PREDICTED BY IDOCK:   -9.93 KCAL/MOL
REMARK 923 INTER-LIGAND FREE ENERGY PREDICTED BY IDOCK:   -9.03 KCAL/MOL
REMARK 924 INTRA-LIGAND FREE ENERGY PREDICTED BY IDOCK:   -0.90 KCAL/MOL
REMARK 927      BINDING AFFINITY PREDICTED BY RF-SCORE:    0.00 PKD
ROOT
HETATM    1  C   UNL     1     -12.464  13.852  65.938  1.00  0.00    -0.481 C  
HETATM    2  C   UNL     1     -12.389  12.965  64.708  1.00  0.00    -0.516 C  
HETATM    3  C   UNL     1     -11.118  12.140  64.893  1.00  0.00    -0.319 C  
HETATM    4  O   UNL     1     -10.022  12.743  64.205  1.00  0.00    -0.579 OA 
HETATM    5  C   UNL     1     -10.816  12.121  66.406  1.00  0.00    -0.306 C  
HETATM    6  C   UNL     1     -10.501  16.387  67.373  1.00  0.00    -0.309 C  
HETATM    7  C   UNL     1     -11.882  13.026  67.069  1.00  0.00    -0.437 C  
HETATM    8  H   UNL     1      -9.231  12.229  64.320  1.00  0.00     0.000 HD 
HETATM    9  C   UNL     1     -11.310  14.083  67.993  1.00  0.00    -0.320 C  
HETATM   10  O   UNL     1     -11.643  15.014  65.798  1.00  0.00    -0.292 OA 
HETATM   11  C   UNL     1     -11.106  15.233  67.057  1.00  0.00    -0.305 C  
ENDROOT
BRANCH   5  12
HETATM   12  C   UNL     1     -10.897  10.728  66.992  1.00  0.00    -0.311 C  
HETATM   13  C   UNL     1     -10.581  10.440  68.266  1.00  0.00    -0.245 C  
BRANCH  13  14
HETATM   14  C   UNL     1     -10.785   9.096  68.907  1.00  0.00    -0.141 C  
HETATM   15  O   UNL     1     -11.027   8.154  67.870  1.00  0.00    -0.480 OA 
HETATM   16  H   UNL     1     -11.155   7.305  68.275  1.00  0.00     0.000 HD 
BRANCH  14  17
HETATM   17  C   UNL     1      -9.553   8.645  69.699  1.00  0.00    -0.170 C  
BRANCH  17  18
HETATM   18  C   UNL     1      -9.669   8.938  71.197  1.00  0.00    -0.344 C  
BRANCH  18  19
HETATM   19  C   UNL     1     -11.116   8.843  71.683  1.00  0.00    -0.420 C  
BRANCH  19  20
HETATM   20  C   UNL     1     -11.294   7.655  72.627  1.00  0.00    -0.423 C  
HETATM   21  C   UNL     1     -11.824   6.433  71.895  1.00  0.00    -0.380 C  
ENDBRANCH  19  20
ENDBRANCH  18  19
ENDBRANCH  17  18
ENDBRANCH  14  17
ENDBRANCH  13  14
ENDBRANCH   5  12
BRANCH   6  22
HETATM   22  C   UNL     1     -10.356  17.553  66.438  1.00  0.00    -0.334 C  
BRANCH  22  23
HETATM   23  C   UNL     1     -10.768  18.865  67.103  1.00  0.00    -0.506 C  
BRANCH  23  24
HETATM   24  C   UNL     1      -9.923  19.126  68.345  1.00  0.00    -0.493 C  
HETATM   25  C   UNL     1      -8.510  19.524  68.002  1.00  0.00    -0.321 C  
HETATM   26  O   UNL     1      -7.526  18.869  68.309  1.00  0.00    -0.267 OA 
HETATM   27  O   UNL     1      -8.419  20.706  67.353  1.00  0.00    -0.334 OA 
ENDBRANCH  23  24
ENDBRANCH  22  23
ENDBRANCH   6  22
TORSDOF 9
ENDMDL
MODEL       28
REMARK 921   NORMALIZED FREE ENERGY PREDICTED BY IDOCK:   -5.75 KCAL/MOL
REMARK 922        TOTAL FREE ENERGY PREDICTED BY IDOCK:   -9.92 KCAL/MOL
REMARK 923 INTER-LIGAND FREE ENERGY PREDICTED BY IDOCK:   -8.79 KCAL/MOL
REMARK 924 INTRA-LIGAND FREE ENERGY PREDICTED BY IDOCK:   -1.13 KCAL/MOL
REMARK 927      BINDING AFFINITY PREDICTED BY RF-SCORE:    0.00 PKD
ROOT
HETATM    1  C   UNL     1     -10.596  12.292  66.419  1.00  0.00    -0.242 C  
HETATM    2  C   UNL     1      -9.707  11.161  66.907  1.00  0.00    -0.216 C  
HETATM    3  C   UNL     1      -9.789  11.224  68.431  1.00  0.00    -0.199 C  
HETATM    4  O   UNL     1      -8.693  11.967  68.963  1.00  0.00    -0.360 OA 
HETATM    5  C   UNL     1     -11.107  11.950  68.775  1.00  0.00    -0.296 C  
HETATM    6  C   UNL     1     -10.654  15.792  66.712  1.00  0.00    -0.309 C  
HETATM    7  C   UNL     1     -11.727  12.382  67.426  1.00  0.00    -0.417 C  
HETATM    8  H   UNL     1      -8.743  12.006  69.911  1.00  0.00     0.000 HD 
HETATM    9  C   UNL     1     -12.115  13.845  67.361  1.00  0.00    -0.380 C  
HETATM   10  O   UNL     1      -9.910  13.546  66.443  1.00  0.00    -0.281 OA 
HETATM   11  C   UNL     1     -10.862  14.473  66.836  1.00  0.00    -0.305 C  
ENDROOT
BRANCH   5  12
HETATM   12  C   UNL     1     -12.078  11.057  69.519  1.00  0.00    -0.400 C  
HETATM   13  C   UNL     1     -11.882  10.637  70.780  1.00  0.00    -0.459 C  
BRANCH  13  14
HETATM   14  C   UNL     1     -12.893   9.868  71.583  1.00  0.00    -0.436 C  
HETATM   15  O   UNL     1     -13.893   9.402  70.688  1.00  0.00    -0.540 OA 
HETATM   16  H   UNL     1     -14.532   8.915  71.196  1.00  0.00     0.000 HD 
BRANCH  14  17
HETATM   17  C   UNL     1     -12.266   8.661  72.290  1.00  0.00    -0.447 C  
BRANCH  17  18
HETATM   18  C   UNL     1     -10.767   8.524  72.015  1.00  0.00    -0.410 C  
BRANCH  18  19
HETATM   19  C   UNL     1     -10.389   7.094  71.625  1.00  0.00    -0.215 C  
BRANCH  19  20
HETATM   20  C   UNL     1     -11.534   6.418  70.870  1.00  0.00    -0.406 C  
HETATM   21  C   UNL     1     -11.236   6.310  69.384  1.00  0.00    -0.489 C  
ENDBRANCH  19  20
ENDBRANCH  18  19
ENDBRANCH  17  18
ENDBRANCH  14  17
ENDBRANCH  13  14
ENDBRANCH   5  12
BRANCH   6  22
HETATM   22  C   UNL     1      -9.412  16.404  66.129  1.00  0.00    -0.363 C  
BRANCH  22  23
HETATM   23  C   UNL     1      -8.513  16.998  67.211  1.00  0.00    -0.210 C  
BRANCH  23  24
HETATM   24  C   UNL     1      -8.350  18.501  67.008  1.00  0.00    -0.259 C  
HETATM   25  C   UNL     1      -9.640  19.250  67.224  1.00  0.00    -0.320 C  
HETATM   26  O   UNL     1     -10.211  19.887  66.352  1.00  0.00    -0.439 OA 
HETATM   27  O   UNL     1     -10.099  19.191  68.494  1.00  0.00    -0.393 OA 
ENDBRANCH  23  24
ENDBRANCH  22  23
ENDBRANCH   6  22
TORSDOF 9
ENDMDL
MODEL       29
REMARK 921   NORMALIZED FREE ENERGY PREDICTED BY IDOCK:   -5.75 KCAL/MOL
REMARK 922        TOTAL FREE ENERGY PREDICTED BY IDOCK:   -9.92 KCAL/MOL
REMARK 923 INTER-LIGAND FREE ENERGY PREDICTED BY IDOCK:   -8.79 KCAL/MOL
REMARK 924 INTRA-LIGAND FREE ENERGY PREDICTED BY IDOCK:   -1.12 KCAL/MOL
REMARK 927      BINDING AFFINITY PREDICTED BY RF-SCORE:    0.00 PKD
ROOT
HETATM    1  C   UNL     1     -11.217  14.971  66.087  1.00  0.00    -0.307 C  
HETATM    2  C   UNL     1     -11.813  14.305  64.859  1.00  0.00    -0.414 C  
HETATM    3  C   UNL     1     -10.986  13.037  64.656  1.00  0.00    -0.342 C  
HETATM    4  O   UNL     1      -9.944  13.264  63.707  1.00  0.00    -0.699 OA 
HETATM    5  C   UNL     1     -10.358  12.693  66.023  1.00  0.00    -0.287 C  
HETATM    6  C   UNL     1      -8.105  16.329  66.989  1.00  0.00    -0.244 C  
HETATM    7  C   UNL     1     -10.764  13.835  66.985  1.00  0.00    -0.283 C  
HETATM    8  H   UNL     1      -9.429  12.475  63.581  1.00  0.00     0.000 HD 
HETATM    9  C   UNL     1      -9.605  14.450  67.742  1.00  0.00    -0.216 C  
HETATM   10  O   UNL     1     -10.055  15.735  65.757  1.00  0.00    -0.319 OA 
HETATM   11  C   UNL     1      -9.185  15.553  66.821  1.00  0.00    -0.248 C  
ENDROOT
BRANCH   5  12
HETATM   12  C   UNL     1     -10.854  11.370  66.567  1.00  0.00    -0.334 C  
HETATM   13  C   UNL     1     -10.048  10.330  66.837  1.00  0.00    -0.274 C  
BRANCH  13  14
HETATM   14  C   UNL     1     -10.496   9.061  67.505  1.00  0.00    -0.272 C  
HETATM   15  O   UNL     1     -10.445   8.021  66.537  1.00  0.00    -0.455 OA 
HETATM   16  H   UNL     1     -10.728   7.219  66.959  1.00  0.00     0.000 HD 
BRANCH  14  17
HETATM   17  C   UNL     1      -9.590   8.679  68.681  1.00  0.00    -0.159 C  
BRANCH  17  18
HETATM   18  C   UNL     1      -9.524   9.765  69.757  1.00  0.00    -0.253 C  
BRANCH  18  19
HETATM   19  C   UNL     1     -10.286   9.360  71.020  1.00  0.00    -0.382 C  
BRANCH  19  20
HETATM   20  C   UNL     1     -11.637  10.073  71.090  1.00  0.00    -0.460 C  
HETATM   21  C   UNL     1     -12.714   9.173  71.673  1.00  0.00    -0.429 C  
ENDBRANCH  19  20
ENDBRANCH  18  19
ENDBRANCH  17  18
ENDBRANCH  14  17
ENDBRANCH  13  14
ENDBRANCH   5  12
BRANCH   6  22
HETATM   22  C   UNL     1      -7.731  17.468  66.086  1.00  0.00    -0.304 C  
BRANCH  22  23
HETATM   23  C   UNL     1      -7.870  18.817  66.790  1.00  0.00    -0.255 C  
BRANCH  23  24
HETATM   24  C   UNL     1      -8.922  19.678  66.098  1.00  0.00    -0.375 C  
HETATM   25  C   UNL     1     -10.297  19.065  66.167  1.00  0.00    -0.468 C  
HETATM   26  O   UNL     1     -10.933  18.709  65.187  1.00  0.00    -0.543 OA 
HETATM   27  O   UNL     1     -10.793  18.977  67.422  1.00  0.00    -0.473 OA 
ENDBRANCH  23  24
ENDBRANCH  22  23
ENDBRANCH   6  22
TORSDOF 9
ENDMDL
MODEL       30
REMARK 921   NORMALIZED FREE ENERGY PREDICTED BY IDOCK:   -5.74 KCAL/MOL
REMARK 922        TOTAL FREE ENERGY PREDICTED BY IDOCK:   -9.91 KCAL/MOL
REMARK 923 INTER-LIGAND FREE ENERGY PREDICTED BY IDOCK:   -8.27 KCAL/MOL
REMARK 924 INTRA-LIGAND FREE ENERGY PREDICTED BY IDOCK:   -1.64 KCAL/MOL
REMARK 927      BINDING AFFINITY PREDICTED BY RF-SCORE:    0.00 PKD
ROOT
HETATM    1  C   UNL     1      -9.805  10.782  69.146  1.00  0.00    -0.175 C  
HETATM    2  C   UNL     1      -9.218  10.171  67.885  1.00  0.00    -0.144 C  
HETATM    3  C   UNL     1     -10.400  10.023  66.930  1.00  0.00    -0.234 C  
HETATM    4  O   UNL     1     -10.944   8.706  67.004  1.00  0.00    -0.332 OA 
HETATM    5  C   UNL     1     -11.470  11.037  67.387  1.00  0.00    -0.217 C  
HETATM    6  C   UNL     1     -12.196   9.858  71.548  1.00  0.00    -0.505 C  
HETATM    7  C   UNL     1     -10.917  11.698  68.672  1.00  0.00    -0.266 C  
HETATM    8  H   UNL     1     -11.679   8.613  66.409  1.00  0.00     0.000 HD 
HETATM    9  C   UNL     1     -11.881  11.684  69.841  1.00  0.00    -0.434 C  
HETATM   10  O   UNL     1     -10.405   9.788  69.980  1.00  0.00    -0.227 OA 
HETATM   11  C   UNL     1     -11.532  10.393  70.513  1.00  0.00    -0.345 C  
ENDROOT
BRANCH   5  12
HETATM   12  C   UNL     1     -11.738  12.101  66.343  1.00  0.00    -0.394 C  
HETATM   13  C   UNL     1     -11.338  12.001  65.065  1.00  0.00    -0.365 C  
BRANCH  13  14
HETATM   14  C   UNL     1     -11.710  12.975  63.982  1.00  0.00    -0.436 C  
HETATM   15  O   UNL     1     -12.952  12.556  63.431  1.00  0.00    -0.685 OA 
HETATM   16  H   UNL     1     -13.187  13.172  62.748  1.00  0.00     0.000 HD 
BRANCH  14  17
HETATM   17  C   UNL     1     -11.870  14.400  64.522  1.00  0.00    -0.463 C  
BRANCH  17  18
HETATM   18  C   UNL     1     -10.530  15.109  64.736  1.00  0.00    -0.242 C  
BRANCH  18  19
HETATM   19  C   UNL     1     -10.566  16.036  65.951  1.00  0.00    -0.338 C  
BRANCH  19  20
HETATM   20  C   UNL     1     -10.255  15.263  67.233  1.00  0.00    -0.248 C  
HETATM   21  C   UNL     1     -11.319  15.490  68.294  1.00  0.00    -0.360 C  
ENDBRANCH  19  20
ENDBRANCH  18  19
ENDBRANCH  17  18
ENDBRANCH  14  17
ENDBRANCH  13  14
ENDBRANCH   5  12
BRANCH   6  22
HETATM   22  C   UNL     1     -11.797   8.590  72.247  1.00  0.00    -0.453 C  
BRANCH  22  23
HETATM   23  C   UNL     1     -12.545   7.379  71.691  1.00  0.00    -0.391 C  
BRANCH  23  24
HETATM   24  C   UNL     1     -11.695   6.652  70.653  1.00  0.00    -0.452 C  
HETATM   25  C   UNL     1     -10.341   6.269  71.191  1.00  0.00    -0.209 C  
HETATM   26  O   UNL     1      -9.287   6.700  70.749  1.00  0.00    -0.158 OA 
HETATM   27  O   UNL     1     -10.388   5.362  72.192  1.00  0.00    -0.199 OA 
ENDBRANCH  23  24
ENDBRANCH  22  23
ENDBRANCH   6  22
TORSDOF 9
ENDMDL
MODEL       31
REMARK 921   NORMALIZED FREE ENERGY PREDICTED BY IDOCK:   -5.74 KCAL/MOL
REMARK 922        TOTAL FREE ENERGY PREDICTED BY IDOCK:   -9.91 KCAL/MOL
REMARK 923 INTER-LIGAND FREE ENERGY PREDICTED BY IDOCK:   -8.32 KCAL/MOL
REMARK 924 INTRA-LIGAND FREE ENERGY PREDICTED BY IDOCK:   -1.59 KCAL/MOL
REMARK 927      BINDING AFFINITY PREDICTED BY RF-SCORE:    0.00 PKD
ROOT
HETATM    1  C   UNL     1     -12.533  13.174  65.762  1.00  0.00    -0.377 C  
HETATM    2  C   UNL     1     -12.177  13.336  64.295  1.00  0.00    -0.454 C  
HETATM    3  C   UNL     1     -10.710  12.923  64.196  1.00  0.00    -0.415 C  
HETATM    4  O   UNL     1      -9.860  14.068  64.260  1.00  0.00    -0.598 OA 
HETATM    5  C   UNL     1     -10.422  12.012  65.407  1.00  0.00    -0.313 C  
HETATM    6  C   UNL     1     -11.477  14.573  68.807  1.00  0.00    -0.322 C  
HETATM    7  C   UNL     1     -11.721  11.988  66.247  1.00  0.00    -0.319 C  
HETATM    8  H   UNL     1      -8.948  13.812  64.198  1.00  0.00     0.000 HD 
HETATM    9  C   UNL     1     -11.516  12.303  67.716  1.00  0.00    -0.392 C  
HETATM   10  O   UNL     1     -12.121  14.308  66.530  1.00  0.00    -0.431 OA 
HETATM   11  C   UNL     1     -11.685  13.790  67.739  1.00  0.00    -0.358 C  
ENDROOT
BRANCH   5  12
HETATM   12  C   UNL     1     -10.059  10.602  64.993  1.00  0.00    -0.388 C  
HETATM   13  C   UNL     1      -8.881  10.024  65.283  1.00  0.00    -0.205 C  
BRANCH  13  14
HETATM   14  C   UNL     1      -8.552   8.585  65.004  1.00  0.00    -0.135 C  
HETATM   15  O   UNL     1      -7.304   8.550  64.324  1.00  0.00    -0.094 OA 
HETATM   16  H   UNL     1      -7.096   7.640  64.148  1.00  0.00     0.000 HD 
BRANCH  14  17
HETATM   17  C   UNL     1      -8.428   7.764  66.293  1.00  0.00    -0.143 C  
BRANCH  17  18
HETATM   18  C   UNL     1      -9.556   6.741  66.456  1.00  0.00    -0.191 C  
BRANCH  18  19
HETATM   19  C   UNL     1     -10.796   7.361  67.101  1.00  0.00    -0.340 C  
BRANCH  19  20
HETATM   20  C   UNL     1     -10.402   8.296  68.245  1.00  0.00    -0.242 C  
HETATM   21  C   UNL     1     -10.770   7.710  69.598  1.00  0.00    -0.230 C  
ENDBRANCH  19  20
ENDBRANCH  18  19
ENDBRANCH  17  18
ENDBRANCH  14  17
ENDBRANCH  13  14
ENDBRANCH   5  12
BRANCH   6  22
HETATM   22  C   UNL     1     -11.706  16.057  68.828  1.00  0.00    -0.302 C  
BRANCH  22  23
HETATM   23  C   UNL     1     -10.439  16.830  68.466  1.00  0.00    -0.335 C  
BRANCH  23  24
HETATM   24  C   UNL     1     -10.770  18.002  67.548  1.00  0.00    -0.352 C  
HETATM   25  C   UNL     1     -10.043  17.919  66.230  1.00  0.00    -0.351 C  
HETATM   26  O   UNL     1      -9.223  18.742  65.852  1.00  0.00    -0.457 OA 
HETATM   27  O   UNL     1     -10.410  16.862  65.472  1.00  0.00    -0.572 OA 
ENDBRANCH  23  24
ENDBRANCH  22  23
ENDBRANCH   6  22
TORSDOF 9
ENDMDL
MODEL       32
REMARK 921   NORMALIZED FREE ENERGY PREDICTED BY IDOCK:   -5.74 KCAL/MOL
REMARK 922        TOTAL FREE ENERGY PREDICTED BY IDOCK:   -9.90 KCAL/MOL
REMARK 923 INTER-LIGAND FREE ENERGY PREDICTED BY IDOCK:   -8.87 KCAL/MOL
REMARK 924 INTRA-LIGAND FREE ENERGY PREDICTED BY IDOCK:   -1.04 KCAL/MOL
REMARK 927      BINDING AFFINITY PREDICTED BY RF-SCORE:    0.00 PKD
ROOT
HETATM    1  C   UNL     1     -12.326   7.722  71.259  1.00  0.00    -0.293 C  
HETATM    2  C   UNL     1     -13.828   7.943  71.228  1.00  0.00    -0.267 C  
HETATM    3  C   UNL     1     -14.063   9.180  72.092  1.00  0.00    -0.346 C  
HETATM    4  O   UNL     1     -14.408   8.804  73.425  1.00  0.00    -1.155 OA 
HETATM    5  C   UNL     1     -12.735   9.965  72.116  1.00  0.00    -0.387 C  
HETATM    6  C   UNL     1      -9.907   7.015  73.706  1.00  0.00    -0.341 C  
HETATM    7  C   UNL     1     -11.714   9.108  71.331  1.00  0.00    -0.413 C  
HETATM    8  H   UNL     1     -14.555   9.573  73.963  1.00  0.00     0.000 HD 
HETATM    9  C   UNL     1     -10.413   8.861  72.069  1.00  0.00    -0.383 C  
HETATM   10  O   UNL     1     -11.923   7.023  72.439  1.00  0.00    -0.239 OA 
HETATM   11  C   UNL     1     -10.713   7.591  72.804  1.00  0.00    -0.330 C  
ENDROOT
BRANCH   5  12
HETATM   12  C   UNL     1     -12.860  11.328  71.469  1.00  0.00    -0.519 C  
HETATM   13  C   UNL     1     -13.398  12.394  72.084  1.00  0.00    -0.508 C  
BRANCH  13  14
HETATM   14  C   UNL     1     -13.408  13.785  71.516  1.00  0.00    -0.318 C  
HETATM   15  O   UNL     1     -13.827  14.670  72.546  1.00  0.00    -0.454 OA 
HETATM   16  H   UNL     1     -13.832  15.549  72.187  1.00  0.00     0.000 HD 
BRANCH  14  17
HETATM   17  C   UNL     1     -12.019  14.218  71.034  1.00  0.00    -0.374 C  
BRANCH  17  18
HETATM   18  C   UNL     1     -12.007  14.651  69.566  1.00  0.00    -0.361 C  
BRANCH  18  19
HETATM   19  C   UNL     1     -11.291  13.633  68.679  1.00  0.00    -0.321 C  
BRANCH  19  20
HETATM   20  C   UNL     1     -11.132  14.169  67.256  1.00  0.00    -0.315 C  
HETATM   21  C   UNL     1     -12.240  13.669  66.344  1.00  0.00    -0.472 C  
ENDBRANCH  19  20
ENDBRANCH  18  19
ENDBRANCH  17  18
ENDBRANCH  14  17
ENDBRANCH  13  14
ENDBRANCH   5  12
BRANCH   6  22
HETATM   22  C   UNL     1     -10.198   5.711  74.392  1.00  0.00    -0.295 C  
BRANCH  22  23
HETATM   23  C   UNL     1      -9.487   4.543  73.711  1.00  0.00    -0.129 C  
BRANCH  23  24
HETATM   24  C   UNL     1     -10.219   4.140  72.434  1.00  0.00    -0.239 C  
HETATM   25  C   UNL     1      -9.445   4.504  71.193  1.00  0.00    -0.160 C  
HETATM   26  O   UNL     1      -9.840   5.299  70.354  1.00  0.00    -0.181 OA 
HETATM   27  O   UNL     1      -8.277   3.837  71.064  1.00  0.00    -0.065 OA 
ENDBRANCH  23  24
ENDBRANCH  22  23
ENDBRANCH   6  22
TORSDOF 9
ENDMDL
MODEL       33
REMARK 921   NORMALIZED FREE ENERGY PREDICTED BY IDOCK:   -5.73 KCAL/MOL
REMARK 922        TOTAL FREE ENERGY PREDICTED BY IDOCK:   -9.89 KCAL/MOL
REMARK 923 INTER-LIGAND FREE ENERGY PREDICTED BY IDOCK:   -9.13 KCAL/MOL
REMARK 924 INTRA-LIGAND FREE ENERGY PREDICTED BY IDOCK:   -0.76 KCAL/MOL
REMARK 927      BINDING AFFINITY PREDICTED BY RF-SCORE:    0.00 PKD
ROOT
HETATM    1  C   UNL     1     -11.908  12.505  64.854  1.00  0.00    -0.386 C  
HETATM    2  C   UNL     1     -11.690  11.809  63.523  1.00  0.00    -0.485 C  
HETATM    3  C   UNL     1     -10.310  11.164  63.635  1.00  0.00    -0.389 C  
HETATM    4  O   UNL     1      -9.313  12.009  63.062  1.00  0.00    -0.641 OA 
HETATM    5  C   UNL     1     -10.022  10.992  65.141  1.00  0.00    -0.333 C  
HETATM    6  C   UNL     1     -10.361  15.092  66.658  1.00  0.00    -0.274 C  
HETATM    7  C   UNL     1     -11.217  11.634  65.885  1.00  0.00    -0.296 C  
HETATM    8  H   UNL     1      -8.454  11.608  63.131  1.00  0.00     0.000 HD 
HETATM    9  C   UNL     1     -10.819  12.633  66.953  1.00  0.00    -0.282 C  
HETATM   10  O   UNL     1     -11.270  13.784  64.888  1.00  0.00    -0.322 OA 
HETATM   11  C   UNL     1     -10.783  13.913  66.179  1.00  0.00    -0.283 C  
ENDROOT
BRANCH   5  12
HETATM   12  C   UNL     1      -9.897   9.537  65.540  1.00  0.00    -0.304 C  
HETATM   13  C   UNL     1     -10.526   9.002  66.599  1.00  0.00    -0.235 C  
BRANCH  13  14
HETATM   14  C   UNL     1     -10.528   7.537  66.933  1.00  0.00    -0.315 C  
HETATM   15  O   UNL     1      -9.513   6.915  66.157  1.00  0.00    -0.348 OA 
HETATM   16  H   UNL     1      -9.514   5.989  66.368  1.00  0.00     0.000 HD 
BRANCH  14  17
HETATM   17  C   UNL     1     -10.233   7.285  68.416  1.00  0.00    -0.203 C  
BRANCH  17  18
HETATM   18  C   UNL     1     -11.205   6.290  69.055  1.00  0.00    -0.415 C  
BRANCH  18  19
HETATM   19  C   UNL     1     -11.547   6.675  70.495  1.00  0.00    -0.448 C  
BRANCH  19  20
HETATM   20  C   UNL     1     -11.149   8.123  70.778  1.00  0.00    -0.275 C  
HETATM   21  C   UNL     1     -12.025   8.743  71.854  1.00  0.00    -0.435 C  
ENDBRANCH  19  20
ENDBRANCH  18  19
ENDBRANCH  17  18
ENDBRANCH  14  17
ENDBRANCH  13  14
ENDBRANCH   5  12
BRANCH   6  22
HETATM   22  C   UNL     1     -10.385  16.380  65.886  1.00  0.00    -0.378 C  
BRANCH  22  23
HETATM   23  C   UNL     1      -9.554  17.464  66.569  1.00  0.00    -0.292 C  
BRANCH  23  24
HETATM   24  C   UNL     1     -10.460  18.485  67.251  1.00  0.00    -0.455 C  
HETATM   25  C   UNL     1     -10.338  19.857  66.640  1.00  0.00    -0.485 C  
HETATM   26  O   UNL     1      -9.928  20.836  67.244  1.00  0.00    -0.433 OA 
HETATM   27  O   UNL     1     -10.764  19.922  65.359  1.00  0.00    -0.421 OA 
ENDBRANCH  23  24
ENDBRANCH  22  23
ENDBRANCH   6  22
TORSDOF 9
ENDMDL
MODEL       34
REMARK 921   NORMALIZED FREE ENERGY PREDICTED BY IDOCK:   -5.72 KCAL/MOL
REMARK 922        TOTAL FREE ENERGY PREDICTED BY IDOCK:   -9.88 KCAL/MOL
REMARK 923 INTER-LIGAND FREE ENERGY PREDICTED BY IDOCK:   -8.48 KCAL/MOL
REMARK 924 INTRA-LIGAND FREE ENERGY PREDICTED BY IDOCK:   -1.40 KCAL/MOL
REMARK 927      BINDING AFFINITY PREDICTED BY RF-SCORE:    0.00 PKD
ROOT
HETATM    1  C   UNL     1     -10.344  12.784  65.282  1.00  0.00    -0.296 C  
HETATM    2  C   UNL     1     -11.282  13.220  64.170  1.00  0.00    -0.412 C  
HETATM    3  C   UNL     1     -12.016  14.438  64.726  1.00  0.00    -0.447 C  
HETATM    4  O   UNL     1     -13.273  14.056  65.284  1.00  0.00    -0.782 OA 
HETATM    5  C   UNL     1     -11.125  15.021  65.842  1.00  0.00    -0.334 C  
HETATM    6  C   UNL     1     -10.672  11.628  68.583  1.00  0.00    -0.246 C  
HETATM    7  C   UNL     1      -9.918  14.063  65.976  1.00  0.00    -0.331 C  
HETATM    8  H   UNL     1     -13.730  14.814  65.630  1.00  0.00     0.000 HD 
HETATM    9  C   UNL     1      -9.648  13.599  67.394  1.00  0.00    -0.226 C  
HETATM   10  O   UNL     1     -11.020  11.982  66.254  1.00  0.00    -0.274 OA 
HETATM   11  C   UNL     1     -10.477  12.354  67.473  1.00  0.00    -0.215 C  
ENDROOT
BRANCH   5  12
HETATM   12  C   UNL     1     -10.633  16.416  65.516  1.00  0.00    -0.346 C  
HETATM   13  C   UNL     1     -10.881  17.488  66.286  1.00  0.00     0.062 C  
BRANCH  13  14
HETATM   14  C   UNL     1     -10.290  18.851  66.057  1.00  0.00    -0.429 C  
HETATM   15  O   UNL     1     -11.099  19.519  65.098  1.00  0.00    -0.345 OA 
HETATM   16  H   UNL     1     -10.726  20.380  64.954  1.00  0.00     0.000 HD 
BRANCH  14  17
HETATM   17  C   UNL     1     -10.261  19.687  67.341  1.00  0.00    -0.561 C  
BRANCH  17  18
HETATM   18  C   UNL     1      -9.711  18.914  68.542  1.00  0.00    -0.441 C  
BRANCH  18  19
HETATM   19  C   UNL     1      -8.200  18.704  68.439  1.00  0.00    -0.361 C  
BRANCH  19  20
HETATM   20  C   UNL     1      -7.855  17.215  68.492  1.00  0.00    -0.257 C  
HETATM   21  C   UNL     1      -7.297  16.724  67.166  1.00  0.00    -0.222 C  
ENDBRANCH  19  20
ENDBRANCH  18  19
ENDBRANCH  17  18
ENDBRANCH  14  17
ENDBRANCH  13  14
ENDBRANCH   5  12
BRANCH   6  22
HETATM   22  C   UNL     1     -11.460  10.351  68.632  1.00  0.00    -0.238 C  
BRANCH  22  23
HETATM   23  C   UNL     1     -10.844   9.344  69.603  1.00  0.00    -0.245 C  
BRANCH  23  24
HETATM   24  C   UNL     1     -11.241   9.672  71.039  1.00  0.00    -0.445 C  
HETATM   25  C   UNL     1     -10.521   8.807  72.042  1.00  0.00    -0.344 C  
HETATM   26  O   UNL     1     -11.083   8.022  72.791  1.00  0.00    -0.373 OA 
HETATM   27  O   UNL     1      -9.185   9.006  72.073  1.00  0.00    -0.373 OA 
ENDBRANCH  23  24
ENDBRANCH  22  23
ENDBRANCH   6  22
TORSDOF 9
ENDMDL
MODEL       35
REMARK 921   NORMALIZED FREE ENERGY PREDICTED BY IDOCK:   -5.70 KCAL/MOL
REMARK 922        TOTAL FREE ENERGY PREDICTED BY IDOCK:   -9.85 KCAL/MOL
REMARK 923 INTER-LIGAND FREE ENERGY PREDICTED BY IDOCK:   -8.88 KCAL/MOL
REMARK 924 INTRA-LIGAND FREE ENERGY PREDICTED BY IDOCK:   -0.97 KCAL/MOL
REMARK 927      BINDING AFFINITY PREDICTED BY RF-SCORE:    0.00 PKD
ROOT
HETATM    1  C   UNL     1      -9.342  15.912  68.331  1.00  0.00    -0.201 C  
HETATM    2  C   UNL     1      -9.578  15.692  69.815  1.00  0.00    -0.192 C  
HETATM    3  C   UNL     1     -11.022  15.208  69.918  1.00  0.00    -0.274 C  
HETATM    4  O   UNL     1     -11.899  16.297  70.205  1.00  0.00    -0.403 OA 
HETATM    5  C   UNL     1     -11.390  14.612  68.543  1.00  0.00    -0.305 C  
HETATM    6  C   UNL     1     -10.676  17.974  65.819  1.00  0.00    -0.091 C  
HETATM    7  C   UNL     1     -10.165  14.850  67.628  1.00  0.00    -0.236 C  
HETATM    8  H   UNL     1     -12.797  15.996  70.270  1.00  0.00     0.000 HD 
HETATM    9  C   UNL     1     -10.498  15.508  66.304  1.00  0.00    -0.313 C  
HETATM   10  O   UNL     1      -9.840  17.182  67.903  1.00  0.00    -0.267 OA 
HETATM   11  C   UNL     1     -10.364  16.961  66.640  1.00  0.00    -0.299 C  
ENDROOT
BRANCH   5  12
HETATM   12  C   UNL     1     -11.688  13.130  68.619  1.00  0.00    -0.362 C  
HETATM   13  C   UNL     1     -11.804  12.456  69.775  1.00  0.00    -0.387 C  
BRANCH  13  14
HETATM   14  C   UNL     1     -12.234  11.019  69.879  1.00  0.00    -0.336 C  
HETATM   15  O   UNL     1     -12.304  10.492  68.561  1.00  0.00    -0.765 OA 
HETATM   16  H   UNL     1     -12.576   9.584  68.627  1.00  0.00     0.000 HD 
BRANCH  14  17
HETATM   17  C   UNL     1     -11.240  10.180  70.690  1.00  0.00    -0.418 C  
BRANCH  17  18
HETATM   18  C   UNL     1     -11.902   9.430  71.849  1.00  0.00    -0.402 C  
BRANCH  18  19
HETATM   19  C   UNL     1     -13.386   9.776  71.975  1.00  0.00    -0.547 C  
BRANCH  19  20
HETATM   20  C   UNL     1     -14.251   8.529  71.794  1.00  0.00    -0.525 C  
HETATM   21  C   UNL     1     -13.404   7.271  71.696  1.00  0.00    -0.421 C  
ENDBRANCH  19  20
ENDBRANCH  18  19
ENDBRANCH  17  18
ENDBRANCH  14  17
ENDBRANCH  13  14
ENDBRANCH   5  12
BRANCH   6  22
HETATM   22  C   UNL     1     -10.481  19.425  66.151  1.00  0.00    -0.600 C  
BRANCH  22  23
HETATM   23  C   UNL     1      -9.009  19.827  66.084  1.00  0.00    -0.387 C  
BRANCH  23  24
HETATM   24  C   UNL     1      -8.534  20.354  67.435  1.00  0.00    -0.394 C  
HETATM   25  C   UNL     1      -7.243  19.714  67.877  1.00  0.00    -0.273 C  
HETATM   26  O   UNL     1      -7.134  19.023  68.878  1.00  0.00    -0.305 OA 
HETATM   27  O   UNL     1      -6.190  20.006  67.081  1.00  0.00    -0.182 OA 
ENDBRANCH  23  24
ENDBRANCH  22  23
ENDBRANCH   6  22
TORSDOF 9
ENDMDL
MODEL       36
REMARK 921   NORMALIZED FREE ENERGY PREDICTED BY IDOCK:   -5.69 KCAL/MOL
REMARK 922        TOTAL FREE ENERGY PREDICTED BY IDOCK:   -9.84 KCAL/MOL
REMARK 923 INTER-LIGAND FREE ENERGY PREDICTED BY IDOCK:   -8.92 KCAL/MOL
REMARK 924 INTRA-LIGAND FREE ENERGY PREDICTED BY IDOCK:   -0.92 KCAL/MOL
REMARK 927      BINDING AFFINITY PREDICTED BY RF-SCORE:    0.00 PKD
ROOT
HETATM    1  C   UNL     1     -11.967  13.190  68.003  1.00  0.00    -0.304 C  
HETATM    2  C   UNL     1     -11.341  11.907  67.483  1.00  0.00    -0.381 C  
HETATM    3  C   UNL     1     -10.767  11.218  68.719  1.00  0.00    -0.203 C  
HETATM    4  O   UNL     1      -9.382  11.527  68.870  1.00  0.00    -0.367 OA 
HETATM    5  C   UNL     1     -11.542  11.769  69.935  1.00  0.00    -0.351 C  
HETATM    6  C   UNL     1     -10.846  16.088  69.641  1.00  0.00    -0.329 C  
HETATM    7  C   UNL     1     -12.501  12.850  69.382  1.00  0.00     0.196 C  
HETATM    8  H   UNL     1      -9.025  11.098  69.638  1.00  0.00     0.000 HD 
HETATM    9  C   UNL     1     -12.422  14.179  70.106  1.00  0.00    -0.391 C  
HETATM   10  O   UNL     1     -10.990  14.219  68.172  1.00  0.00    -0.237 OA 
HETATM   11  C   UNL     1     -11.370  14.897  69.320  1.00  0.00    -0.296 C  
ENDROOT
BRANCH   5  12
HETATM   12  C   UNL     1     -12.342  10.695  70.642  1.00  0.00    -0.462 C  
HETATM   13  C   UNL     1     -11.804   9.821  71.509  1.00  0.00    -0.476 C  
BRANCH  13  14
HETATM   14  C   UNL     1     -12.597   8.840  72.325  1.00  0.00    -0.394 C  
HETATM   15  O   UNL     1     -13.806   9.478  72.716  1.00  0.00    -0.733 OA 
HETATM   16  H   UNL     1     -14.307   8.858  73.231  1.00  0.00     0.000 HD 
BRANCH  14  17
HETATM   17  C   UNL     1     -12.947   7.579  71.527  1.00  0.00    -0.400 C  
BRANCH  17  18
HETATM   18  C   UNL     1     -12.119   6.361  71.947  1.00  0.00    -0.362 C  
BRANCH  18  19
HETATM   19  C   UNL     1     -10.882   6.185  71.065  1.00  0.00    -0.338 C  
BRANCH  19  20
HETATM   20  C   UNL     1     -11.259   6.235  69.585  1.00  0.00    -0.506 C  
HETATM   21  C   UNL     1     -10.339   5.366  68.744  1.00  0.00    -0.240 C  
ENDBRANCH  19  20
ENDBRANCH  18  19
ENDBRANCH  17  18
ENDBRANCH  14  17
ENDBRANCH  13  14
ENDBRANCH   5  12
BRANCH   6  22
HETATM   22  C   UNL     1      -9.833  16.821  68.810  1.00  0.00    -0.264 C  
BRANCH  22  23
HETATM   23  C   UNL     1     -10.175  18.304  68.679  1.00  0.00    -0.377 C  
BRANCH  23  24
HETATM   24  C   UNL     1      -9.189  19.002  67.747  1.00  0.00    -0.339 C  
HETATM   25  C   UNL     1      -9.272  18.484  66.335  1.00  0.00    -0.277 C  
HETATM   26  O   UNL     1      -8.353  17.917  65.764  1.00  0.00    -0.521 OA 
HETATM   27  O   UNL     1     -10.452  18.739  65.729  1.00  0.00    -0.571 OA 
ENDBRANCH  23  24
ENDBRANCH  22  23
ENDBRANCH   6  22
TORSDOF 9
ENDMDL
MODEL       37
REMARK 921   NORMALIZED FREE ENERGY PREDICTED BY IDOCK:   -5.65 KCAL/MOL
REMARK 922        TOTAL FREE ENERGY PREDICTED BY IDOCK:   -9.78 KCAL/MOL
REMARK 923 INTER-LIGAND FREE ENERGY PREDICTED BY IDOCK:   -8.27 KCAL/MOL
REMARK 924 INTRA-LIGAND FREE ENERGY PREDICTED BY IDOCK:   -1.51 KCAL/MOL
REMARK 927      BINDING AFFINITY PREDICTED BY RF-SCORE:    0.00 PKD
ROOT
HETATM    1  C   UNL     1     -11.779  14.703  67.696  1.00  0.00    -0.363 C  
HETATM    2  C   UNL     1     -11.627  15.867  68.658  1.00  0.00    -0.383 C  
HETATM    3  C   UNL     1     -10.131  15.940  68.957  1.00  0.00    -0.228 C  
HETATM    4  O   UNL     1      -9.825  15.240  70.163  1.00  0.00    -0.476 OA 
HETATM    5  C   UNL     1      -9.409  15.255  67.778  1.00  0.00    -0.196 C  
HETATM    6  C   UNL     1     -11.177  11.242  67.769  1.00  0.00    -0.354 C  
HETATM    7  C   UNL     1     -10.520  14.709  66.850  1.00  0.00    -0.270 C  
HETATM    8  H   UNL     1      -8.894  15.286  70.349  1.00  0.00     0.000 HD 
HETATM    9  C   UNL     1     -10.358  13.247  66.483  1.00  0.00    -0.285 C  
HETATM   10  O   UNL     1     -11.816  13.452  68.387  1.00  0.00    -0.337 OA 
HETATM   11  C   UNL     1     -11.121  12.568  67.577  1.00  0.00    -0.267 C  
ENDROOT
BRANCH   5  12
HETATM   12  C   UNL     1      -8.529  16.215  67.006  1.00  0.00    -0.238 C  
HETATM   13  C   UNL     1      -7.637  17.034  67.588  1.00  0.00    -0.180 C  
BRANCH  13  14
HETATM   14  C   UNL     1      -6.658  17.893  66.838  1.00  0.00    -0.180 C  
HETATM   15  O   UNL     1      -5.860  17.036  66.032  1.00  0.00    -0.225 OA 
HETATM   16  H   UNL     1      -5.242  17.579  65.557  1.00  0.00     0.000 HD 
BRANCH  14  17
HETATM   17  C   UNL     1      -7.363  18.904  65.927  1.00  0.00    -0.260 C  
BRANCH  17  18
HETATM   18  C   UNL     1      -8.241  19.890  66.701  1.00  0.00    -0.359 C  
BRANCH  18  19
HETATM   19  C   UNL     1      -9.695  19.848  66.228  1.00  0.00    -0.551 C  
BRANCH  19  20
HETATM   20  C   UNL     1     -10.627  19.459  67.374  1.00  0.00    -0.603 C  
HETATM   21  C   UNL     1      -9.977  19.693  68.728  1.00  0.00    -0.542 C  
ENDBRANCH  19  20
ENDBRANCH  18  19
ENDBRANCH  17  18
ENDBRANCH  14  17
ENDBRANCH  13  14
ENDBRANCH   5  12
BRANCH   6  22
HETATM   22  C   UNL     1     -11.994  10.574  68.838  1.00  0.00    -0.030 C  
BRANCH  22  23
HETATM   23  C   UNL     1     -11.231  10.483  70.158  1.00  0.00    -0.389 C  
BRANCH  23  24
HETATM   24  C   UNL     1     -12.197  10.310  71.326  1.00  0.00    -0.496 C  
HETATM   25  C   UNL     1     -12.182   8.908  71.878  1.00  0.00    -0.374 C  
HETATM   26  O   UNL     1     -13.147   8.159  71.860  1.00  0.00    -0.325 OA 
HETATM   27  O   UNL     1     -11.004   8.557  72.440  1.00  0.00    -0.357 OA 
ENDBRANCH  23  24
ENDBRANCH  22  23
ENDBRANCH   6  22
TORSDOF 9
ENDMDL
MODEL       38
REMARK 921   NORMALIZED FREE ENERGY PREDICTED BY IDOCK:   -5.64 KCAL/MOL
REMARK 922        TOTAL FREE ENERGY PREDICTED BY IDOCK:   -9.75 KCAL/MOL
REMARK 923 INTER-LIGAND FREE ENERGY PREDICTED BY IDOCK:   -8.86 KCAL/MOL
REMARK 924 INTRA-LIGAND FREE ENERGY PREDICTED BY IDOCK:   -0.90 KCAL/MOL
REMARK 927      BINDING AFFINITY PREDICTED BY RF-SCORE:    0.00 PKD
ROOT
HETATM    1  C   UNL     1     -12.540   7.180  71.099  1.00  0.00    -0.341 C  
HETATM    2  C   UNL     1     -13.960   7.713  71.172  1.00  0.00    -0.263 C  
HETATM    3  C   UNL     1     -13.859   8.993  71.999  1.00  0.00    -0.444 C  
HETATM    4  O   UNL     1     -14.163   8.732  73.369  1.00  0.00    -1.173 OA 
HETATM    5  C   UNL     1     -12.399   9.479  71.889  1.00  0.00    -0.450 C  
HETATM    6  C   UNL     1     -10.128   6.038  73.383  1.00  0.00    -0.205 C  
HETATM    7  C   UNL     1     -11.648   8.406  71.065  1.00  0.00    -0.307 C  
HETATM    8  H   UNL     1     -14.101   9.528  73.883  1.00  0.00     0.000 HD 
HETATM    9  C   UNL     1     -10.371   7.908  71.712  1.00  0.00    -0.260 C  
HETATM   10  O   UNL     1     -12.196   6.441  72.273  1.00  0.00    -0.273 OA 
HETATM   11  C   UNL     1     -10.868   6.750  72.521  1.00  0.00    -0.239 C  
ENDROOT
BRANCH   5  12
HETATM   12  C   UNL     1     -12.289  10.821  71.196  1.00  0.00    -0.498 C  
HETATM   13  C   UNL     1     -11.581  11.019  70.072  1.00  0.00    -0.427 C  
BRANCH  13  14
HETATM   14  C   UNL     1     -11.570  12.303  69.293  1.00  0.00    -0.324 C  
HETATM   15  O   UNL     1     -12.124  12.037  68.011  1.00  0.00    -0.514 OA 
HETATM   16  H   UNL     1     -12.117  12.849  67.519  1.00  0.00     0.000 HD 
BRANCH  14  17
HETATM   17  C   UNL     1     -12.407  13.394  69.971  1.00  0.00    -0.294 C  
BRANCH  17  18
HETATM   18  C   UNL     1     -11.664  14.727  70.088  1.00  0.00    -0.352 C  
BRANCH  18  19
HETATM   19  C   UNL     1     -12.301  15.642  71.134  1.00  0.00    -0.482 C  
BRANCH  19  20
HETATM   20  C   UNL     1     -11.810  15.287  72.537  1.00  0.00    -0.532 C  
HETATM   21  C   UNL     1     -12.695  15.898  73.610  1.00  0.00    -0.723 C  
ENDBRANCH  19  20
ENDBRANCH  18  19
ENDBRANCH  17  18
ENDBRANCH  14  17
ENDBRANCH  13  14
ENDBRANCH   5  12
BRANCH   6  22
HETATM   22  C   UNL     1     -10.627   4.843  74.144  1.00  0.00    -0.345 C  
BRANCH  22  23
HETATM   23  C   UNL     1      -9.962   3.553  73.669  1.00  0.00    -0.170 C  
BRANCH  23  24
HETATM   24  C   UNL     1      -8.817   3.861  72.708  1.00  0.00    -0.108 C  
HETATM   25  C   UNL     1      -7.483   3.408  73.245  1.00  0.00    -0.056 C  
HETATM   26  O   UNL     1      -6.562   4.167  73.503  1.00  0.00    -0.046 OA 
HETATM   27  O   UNL     1      -7.377   2.068  73.381  1.00  0.00    -0.031 OA 
ENDBRANCH  23  24
ENDBRANCH  22  23
ENDBRANCH   6  22
TORSDOF 9
ENDMDL
MODEL       39
REMARK 921   NORMALIZED FREE ENERGY PREDICTED BY IDOCK:   -5.60 KCAL/MOL
REMARK 922        TOTAL FREE ENERGY PREDICTED BY IDOCK:   -9.69 KCAL/MOL
REMARK 923 INTER-LIGAND FREE ENERGY PREDICTED BY IDOCK:   -8.10 KCAL/MOL
REMARK 924 INTRA-LIGAND FREE ENERGY PREDICTED BY IDOCK:   -1.59 KCAL/MOL
REMARK 927      BINDING AFFINITY PREDICTED BY RF-SCORE:    0.00 PKD
ROOT
HETATM    1  C   UNL     1     -12.020  14.077  66.716  1.00  0.00    -0.444 C  
HETATM    2  C   UNL     1     -12.958  14.154  65.524  1.00  0.00    -0.303 C  
HETATM    3  C   UNL     1     -12.043  14.297  64.309  1.00  0.00    -0.441 C  
HETATM    4  O   UNL     1     -11.895  15.670  63.951  1.00  0.00    -0.974 OA 
HETATM    5  C   UNL     1     -10.668  13.730  64.720  1.00  0.00    -0.429 C  
HETATM    6  C   UNL     1      -9.628  16.170  68.211  1.00  0.00    -0.216 C  
HETATM    7  C   UNL     1     -10.787  13.349  66.215  1.00  0.00    -0.294 C  
HETATM    8  H   UNL     1     -11.326  15.760  63.195  1.00  0.00     0.000 HD 
HETATM    9  C   UNL     1      -9.687  13.916  67.089  1.00  0.00    -0.244 C  
HETATM   10  O   UNL     1     -11.599  15.377  67.136  1.00  0.00    -0.220 OA 
HETATM   11  C   UNL     1     -10.274  15.226  67.512  1.00  0.00    -0.239 C  
ENDROOT
BRANCH   5  12
HETATM   12  C   UNL     1     -10.286  12.508  63.913  1.00  0.00    -0.386 C  
HETATM   13  C   UNL     1      -9.849  11.363  64.463  1.00  0.00    -0.302 C  
BRANCH  13  14
HETATM   14  C   UNL     1      -9.596  10.096  63.696  1.00  0.00    -0.207 C  
HETATM   15  O   UNL     1      -9.415  10.446  62.330  1.00  0.00    -0.399 OA 
HETATM   16  H   UNL     1      -9.255   9.645  61.846  1.00  0.00     0.000 HD 
BRANCH  14  17
HETATM   17  C   UNL     1      -8.338   9.369  64.186  1.00  0.00    -0.170 C  
BRANCH  17  18
HETATM   18  C   UNL     1      -8.186   9.404  65.709  1.00  0.00    -0.116 C  
BRANCH  18  19
HETATM   19  C   UNL     1      -7.211  10.494  66.157  1.00  0.00    -0.136 C  
BRANCH  19  20
HETATM   20  C   UNL     1      -7.350  10.763  67.655  1.00  0.00    -0.094 C  
HETATM   21  C   UNL     1      -8.621  10.149  68.218  1.00  0.00    -0.116 C  
ENDBRANCH  19  20
ENDBRANCH  18  19
ENDBRANCH  17  18
ENDBRANCH  14  17
ENDBRANCH  13  14
ENDBRANCH   5  12
BRANCH   6  22
HETATM   22  C   UNL     1     -10.250  17.455  68.677  1.00  0.00    -0.361 C  
BRANCH  22  23
HETATM   23  C   UNL     1      -9.382  18.663  68.327  1.00  0.00    -0.359 C  
BRANCH  23  24
HETATM   24  C   UNL     1      -9.069  18.684  66.834  1.00  0.00    -0.295 C  
HETATM   25  C   UNL     1     -10.312  18.798  65.990  1.00  0.00    -0.422 C  
HETATM   26  O   UNL     1     -10.681  17.940  65.203  1.00  0.00    -0.615 OA 
HETATM   27  O   UNL     1     -10.974  19.965  66.150  1.00  0.00    -0.319 OA 
ENDBRANCH  23  24
ENDBRANCH  22  23
ENDBRANCH   6  22
TORSDOF 9
ENDMDL
MODEL       40
REMARK 921   NORMALIZED FREE ENERGY PREDICTED BY IDOCK:   -5.58 KCAL/MOL
REMARK 922        TOTAL FREE ENERGY PREDICTED BY IDOCK:   -9.67 KCAL/MOL
REMARK 923 INTER-LIGAND FREE ENERGY PREDICTED BY IDOCK:   -8.92 KCAL/MOL
REMARK 924 INTRA-LIGAND FREE ENERGY PREDICTED BY IDOCK:   -0.76 KCAL/MOL
REMARK 927      BINDING AFFINITY PREDICTED BY RF-SCORE:    0.00 PKD
ROOT
HETATM    1  C   UNL     1     -12.625   7.278  71.121  1.00  0.00    -0.323 C  
HETATM    2  C   UNL     1     -14.093   7.661  71.186  1.00  0.00    -0.287 C  
HETATM    3  C   UNL     1     -14.127   8.955  71.996  1.00  0.00    -0.411 C  
HETATM    4  O   UNL     1     -14.406   8.681  73.369  1.00  0.00    -1.033 OA 
HETATM    5  C   UNL     1     -12.725   9.589  71.882  1.00  0.00    -0.496 C  
HETATM    6  C   UNL     1     -10.112   6.423  73.422  1.00  0.00    -0.222 C  
HETATM    7  C   UNL     1     -11.865   8.590  71.072  1.00  0.00    -0.290 C  
HETATM    8  H   UNL     1     -14.428   9.486  73.873  1.00  0.00     0.000 HD 
HETATM    9  C   UNL     1     -10.545   8.235  71.727  1.00  0.00    -0.325 C  
HETATM   10  O   UNL     1     -12.208   6.594  72.305  1.00  0.00    -0.251 OA 
HETATM   11  C   UNL     1     -10.920   7.042  72.550  1.00  0.00    -0.264 C  
ENDROOT
BRANCH   5  12
HETATM   12  C   UNL     1     -12.754  10.926  71.171  1.00  0.00    -0.530 C  
HETATM   13  C   UNL     1     -11.881  11.275  70.212  1.00  0.00    -0.446 C  
BRANCH  13  14
HETATM   14  C   UNL     1     -11.974  12.535  69.399  1.00  0.00    -0.256 C  
HETATM   15  O   UNL     1     -11.199  13.531  70.054  1.00  0.00    -0.484 OA 
HETATM   16  H   UNL     1     -11.257  14.327  69.540  1.00  0.00     0.000 HD 
BRANCH  14  17
HETATM   17  C   UNL     1     -11.427  12.345  67.980  1.00  0.00    -0.377 C  
BRANCH  17  18
HETATM   18  C   UNL     1     -12.084  13.279  66.960  1.00  0.00    -0.375 C  
BRANCH  18  19
HETATM   19  C   UNL     1     -12.100  12.667  65.559  1.00  0.00    -0.515 C  
BRANCH  19  20
HETATM   20  C   UNL     1     -10.683  12.562  64.997  1.00  0.00    -0.326 C  
HETATM   21  C   UNL     1     -10.286  11.116  64.747  1.00  0.00    -0.387 C  
ENDBRANCH  19  20
ENDBRANCH  18  19
ENDBRANCH  17  18
ENDBRANCH  14  17
ENDBRANCH  13  14
ENDBRANCH   5  12
BRANCH   6  22
HETATM   22  C   UNL     1     -10.485   5.192  74.197  1.00  0.00    -0.326 C  
BRANCH  22  23
HETATM   23  C   UNL     1     -10.804   4.017  73.274  1.00  0.00    -0.301 C  
BRANCH  23  24
HETATM   24  C   UNL     1      -9.539   3.518  72.584  1.00  0.00    -0.190 C  
HETATM   25  C   UNL     1      -9.724   3.360  71.096  1.00  0.00    -0.152 C  
HETATM   26  O   UNL     1      -9.643   2.292  70.511  1.00  0.00    -0.128 OA 
HETATM   27  O   UNL     1      -9.950   4.525  70.449  1.00  0.00    -0.222 OA 
ENDBRANCH  23  24
ENDBRANCH  22  23
ENDBRANCH   6  22
TORSDOF 9
ENDMDL
MODEL       41
REMARK 921   NORMALIZED FREE ENERGY PREDICTED BY IDOCK:   -5.56 KCAL/MOL
REMARK 922        TOTAL FREE ENERGY PREDICTED BY IDOCK:   -9.63 KCAL/MOL
REMARK 923 INTER-LIGAND FREE ENERGY PREDICTED BY IDOCK:   -8.13 KCAL/MOL
REMARK 924 INTRA-LIGAND FREE ENERGY PREDICTED BY IDOCK:   -1.50 KCAL/MOL
REMARK 927      BINDING AFFINITY PREDICTED BY RF-SCORE:    0.00 PKD
ROOT
HETATM    1  C   UNL     1     -10.105  14.480  67.305  1.00  0.00    -0.247 C  
HETATM    2  C   UNL     1      -8.611  14.738  67.223  1.00  0.00    -0.230 C  
HETATM    3  C   UNL     1      -7.964  13.533  67.901  1.00  0.00    -0.162 C  
HETATM    4  O   UNL     1      -7.675  13.821  69.269  1.00  0.00    -0.332 OA 
HETATM    5  C   UNL     1      -8.988  12.381  67.833  1.00  0.00    -0.184 C  
HETATM    6  C   UNL     1     -12.484  14.083  69.860  1.00  0.00    -0.301 C  
HETATM    7  C   UNL     1     -10.263  12.976  67.189  1.00  0.00    -0.243 C  
HETATM    8  H   UNL     1      -7.272  13.072  69.691  1.00  0.00     0.000 HD 
HETATM    9  C   UNL     1     -11.534  12.712  67.972  1.00  0.00    -0.366 C  
HETATM   10  O   UNL     1     -10.635  14.862  68.577  1.00  0.00    -0.234 OA 
HETATM   11  C   UNL     1     -11.592  13.905  68.875  1.00  0.00    -0.316 C  
ENDROOT
BRANCH   5  12
HETATM   12  C   UNL     1      -8.492  11.219  66.998  1.00  0.00    -0.150 C  
HETATM   13  C   UNL     1      -9.292  10.245  66.535  1.00  0.00    -0.200 C  
BRANCH  13  14
HETATM   14  C   UNL     1      -8.849   9.161  65.593  1.00  0.00    -0.185 C  
HETATM   15  O   UNL     1      -9.730   8.057  65.758  1.00  0.00    -0.428 OA 
HETATM   16  H   UNL     1      -9.450   7.372  65.163  1.00  0.00     0.000 HD 
BRANCH  14  17
HETATM   17  C   UNL     1      -8.902   9.614  64.130  1.00  0.00    -0.257 C  
BRANCH  17  18
HETATM   18  C   UNL     1     -10.202  10.343  63.780  1.00  0.00     0.000 C  
BRANCH  18  19
HETATM   19  C   UNL     1      -9.937  11.753  63.250  1.00  0.00    -0.435 C  
BRANCH  19  20
HETATM   20  C   UNL     1     -10.901  12.759  63.878  1.00  0.00    -0.447 C  
HETATM   21  C   UNL     1     -12.287  12.164  64.062  1.00  0.00    -0.550 C  
ENDBRANCH  19  20
ENDBRANCH  18  19
ENDBRANCH  17  18
ENDBRANCH  14  17
ENDBRANCH  13  14
ENDBRANCH   5  12
BRANCH   6  22
HETATM   22  C   UNL     1     -12.564  15.313  70.719  1.00  0.00    -0.474 C  
BRANCH  22  23
HETATM   23  C   UNL     1     -13.921  15.430  71.411  1.00  0.00    -0.565 C  
BRANCH  23  24
HETATM   24  C   UNL     1     -13.891  14.742  72.772  1.00  0.00    -0.401 C  
HETATM   25  C   UNL     1     -12.735  15.205  73.622  1.00  0.00    -0.546 C  
HETATM   26  O   UNL     1     -11.832  14.474  73.997  1.00  0.00    -0.222 OA 
HETATM   27  O   UNL     1     -12.805  16.508  73.973  1.00  0.00    -0.658 OA 
ENDBRANCH  23  24
ENDBRANCH  22  23
ENDBRANCH   6  22
TORSDOF 9
ENDMDL
MODEL       42
REMARK 921   NORMALIZED FREE ENERGY PREDICTED BY IDOCK:   -5.51 KCAL/MOL
REMARK 922        TOTAL FREE ENERGY PREDICTED BY IDOCK:   -9.56 KCAL/MOL
REMARK 923 INTER-LIGAND FREE ENERGY PREDICTED BY IDOCK:   -8.07 KCAL/MOL
REMARK 924 INTRA-LIGAND FREE ENERGY PREDICTED BY IDOCK:   -1.49 KCAL/MOL
REMARK 927      BINDING AFFINITY PREDICTED BY RF-SCORE:    0.00 PKD
ROOT
HETATM    1  C   UNL     1     -11.619  10.590  68.333  1.00  0.00    -0.128 C  
HETATM    2  C   UNL     1     -10.538   9.664  67.806  1.00  0.00    -0.320 C  
HETATM    3  C   UNL     1      -9.419   9.731  68.844  1.00  0.00    -0.161 C  
HETATM    4  O   UNL     1      -8.430  10.684  68.456  1.00  0.00    -0.121 OA 
HETATM    5  C   UNL     1     -10.068  10.188  70.167  1.00  0.00    -0.197 C  
HETATM    6  C   UNL     1     -11.905  14.014  69.065  1.00  0.00    -0.391 C  
HETATM    7  C   UNL     1     -11.555  10.470  69.844  1.00  0.00    -0.384 C  
HETATM    8  H   UNL     1      -7.734  10.725  69.101  1.00  0.00     0.000 HD 
HETATM    9  C   UNL     1     -12.044  11.827  70.308  1.00  0.00    -0.426 C  
HETATM   10  O   UNL     1     -11.346  11.955  68.008  1.00  0.00    -0.244 OA 
HETATM   11  C   UNL     1     -11.759  12.682  69.113  1.00  0.00    -0.321 C  
ENDROOT
BRANCH   5  12
HETATM   12  C   UNL     1      -9.975   9.132  71.249  1.00  0.00    -0.373 C  
HETATM   13  C   UNL     1     -11.024   8.731  71.985  1.00  0.00    -0.438 C  
BRANCH  13  14
HETATM   14  C   UNL     1     -10.985   7.591  72.964  1.00  0.00    -0.390 C  
HETATM   15  O   UNL     1     -12.156   6.810  72.766  1.00  0.00    -0.482 OA 
HETATM   16  H   UNL     1     -12.132   6.090  73.384  1.00  0.00     0.000 HD 
BRANCH  14  17
HETATM   17  C   UNL     1      -9.759   6.696  72.756  1.00  0.00    -0.166 C  
BRANCH  17  18
HETATM   18  C   UNL     1     -10.066   5.451  71.920  1.00  0.00    -0.246 C  
BRANCH  18  19
HETATM   19  C   UNL     1      -9.209   5.391  70.655  1.00  0.00    -0.183 C  
BRANCH  19  20
HETATM   20  C   UNL     1     -10.084   5.212  69.414  1.00  0.00    -0.305 C  
HETATM   21  C   UNL     1     -11.140   6.300  69.314  1.00  0.00    -0.461 C  
ENDBRANCH  19  20
ENDBRANCH  18  19
ENDBRANCH  17  18
ENDBRANCH  14  17
ENDBRANCH  13  14
ENDBRANCH   5  12
BRANCH   6  22
HETATM   22  C   UNL     1     -11.669  14.850  67.840  1.00  0.00    -0.344 C  
BRANCH  22  23
HETATM   23  C   UNL     1     -10.388  15.673  67.956  1.00  0.00    -0.246 C  
BRANCH  23  24
HETATM   24  C   UNL     1     -10.637  17.118  67.534  1.00  0.00    -0.323 C  
HETATM   25  C   UNL     1      -9.933  17.468  66.249  1.00  0.00    -0.308 C  
HETATM   26  O   UNL     1      -9.057  18.315  66.163  1.00  0.00    -0.473 OA 
HETATM   27  O   UNL     1     -10.386  16.785  65.175  1.00  0.00    -0.639 OA 
ENDBRANCH  23  24
ENDBRANCH  22  23
ENDBRANCH   6  22
TORSDOF 9
ENDMDL
MODEL       43
REMARK 921   NORMALIZED FREE ENERGY PREDICTED BY IDOCK:   -5.51 KCAL/MOL
REMARK 922        TOTAL FREE ENERGY PREDICTED BY IDOCK:   -9.56 KCAL/MOL
REMARK 923 INTER-LIGAND FREE ENERGY PREDICTED BY IDOCK:   -8.08 KCAL/MOL
REMARK 924 INTRA-LIGAND FREE ENERGY PREDICTED BY IDOCK:   -1.47 KCAL/MOL
REMARK 927      BINDING AFFINITY PREDICTED BY RF-SCORE:    0.00 PKD
ROOT
HETATM    1  C   UNL     1     -10.016   9.588  70.258  1.00  0.00    -0.259 C  
HETATM    2  C   UNL     1      -9.432   9.715  68.862  1.00  0.00    -0.157 C  
HETATM    3  C   UNL     1     -10.615  10.080  67.970  1.00  0.00    -0.235 C  
HETATM    4  O   UNL     1     -11.160   8.913  67.354  1.00  0.00    -0.422 OA 
HETATM    5  C   UNL     1     -11.684  10.713  68.886  1.00  0.00    -0.282 C  
HETATM    6  C   UNL     1     -12.403   7.557  71.844  1.00  0.00    -0.342 C  
HETATM    7  C   UNL     1     -11.128  10.617  70.327  1.00  0.00    -0.310 C  
HETATM    8  H   UNL     1     -11.896   9.140  66.799  1.00  0.00     0.000 HD 
HETATM    9  C   UNL     1     -12.090  10.002  71.323  1.00  0.00    -0.487 C  
HETATM   10  O   UNL     1     -10.615   8.306  70.462  1.00  0.00    -0.211 OA 
HETATM   11  C   UNL     1     -11.741   8.549  71.232  1.00  0.00    -0.284 C  
ENDROOT
BRANCH   5  12
HETATM   12  C   UNL     1     -11.952  12.162  68.540  1.00  0.00    -0.273 C  
HETATM   13  C   UNL     1     -11.271  13.190  69.073  1.00  0.00    -0.309 C  
BRANCH  13  14
HETATM   14  C   UNL     1     -11.424  14.622  68.645  1.00  0.00    -0.300 C  
HETATM   15  O   UNL     1     -12.310  14.649  67.533  1.00  0.00    -0.585 OA 
HETATM   16  H   UNL     1     -12.407  15.554  67.263  1.00  0.00     0.000 HD 
BRANCH  14  17
HETATM   17  C   UNL     1     -12.011  15.495  69.759  1.00  0.00    -0.384 C  
BRANCH  17  18
HETATM   18  C   UNL     1     -11.581  15.044  71.157  1.00  0.00    -0.377 C  
BRANCH  18  19
HETATM   19  C   UNL     1     -12.553  15.527  72.234  1.00  0.00    -0.481 C  
BRANCH  19  20
HETATM   20  C   UNL     1     -13.808  14.655  72.261  1.00  0.00    -0.583 C  
HETATM   21  C   UNL     1     -13.470  13.198  72.532  1.00  0.00    -0.579 C  
ENDBRANCH  19  20
ENDBRANCH  18  19
ENDBRANCH  17  18
ENDBRANCH  14  17
ENDBRANCH  13  14
ENDBRANCH   5  12
BRANCH   6  22
HETATM   22  C   UNL     1     -12.005   6.110  71.789  1.00  0.00    -0.226 C  
BRANCH  22  23
HETATM   23  C   UNL     1     -11.017   5.753  72.898  1.00  0.00    -0.312 C  
BRANCH  23  24
HETATM   24  C   UNL     1     -10.263   4.472  72.554  1.00  0.00    -0.246 C  
HETATM   25  C   UNL     1      -9.405   4.626  71.325  1.00  0.00    -0.146 C  
HETATM   26  O   UNL     1      -9.573   3.991  70.295  1.00  0.00    -0.173 OA 
HETATM   27  O   UNL     1      -8.394   5.509  71.473  1.00  0.00    -0.120 OA 
ENDBRANCH  23  24
ENDBRANCH  22  23
ENDBRANCH   6  22
TORSDOF 9
ENDMDL
MODEL       44
REMARK 921   NORMALIZED FREE ENERGY PREDICTED BY IDOCK:   -5.49 KCAL/MOL
REMARK 922        TOTAL FREE ENERGY PREDICTED BY IDOCK:   -9.53 KCAL/MOL
REMARK 923 INTER-LIGAND FREE ENERGY PREDICTED BY IDOCK:   -8.39 KCAL/MOL
REMARK 924 INTRA-LIGAND FREE ENERGY PREDICTED BY IDOCK:   -1.15 KCAL/MOL
REMARK 927      BINDING AFFINITY PREDICTED BY RF-SCORE:    0.00 PKD
ROOT
HETATM    1  C   UNL     1     -10.627  11.489  65.406  1.00  0.00    -0.282 C  
HETATM    2  C   UNL     1      -9.359  10.672  65.229  1.00  0.00    -0.256 C  
HETATM    3  C   UNL     1      -8.679  10.696  66.596  1.00  0.00    -0.140 C  
HETATM    4  O   UNL     1      -7.695  11.728  66.649  1.00  0.00    -0.293 OA 
HETATM    5  C   UNL     1      -9.780  10.993  67.635  1.00  0.00    -0.184 C  
HETATM    6  C   UNL     1     -11.419  14.810  66.232  1.00  0.00    -0.316 C  
HETATM    7  C   UNL     1     -11.080  11.230  66.831  1.00  0.00    -0.339 C  
HETATM    8  H   UNL     1      -7.271  11.743  67.499  1.00  0.00     0.000 HD 
HETATM    9  C   UNL     1     -11.806  12.512  67.188  1.00  0.00    -0.386 C  
HETATM   10  O   UNL     1     -10.366  12.891  65.296  1.00  0.00    -0.291 OA 
HETATM   11  C   UNL     1     -11.193  13.489  66.234  1.00  0.00    -0.297 C  
ENDROOT
BRANCH   5  12
HETATM   12  C   UNL     1      -9.983   9.846  68.602  1.00  0.00    -0.177 C  
HETATM   13  C   UNL     1     -10.416  10.007  69.864  1.00  0.00    -0.317 C  
BRANCH  13  14
HETATM   14  C   UNL     1     -10.756   8.878  70.794  1.00  0.00    -0.233 C  
HETATM   15  O   UNL     1      -9.801   8.882  71.848  1.00  0.00    -0.312 OA 
HETATM   16  H   UNL     1     -10.017   8.168  72.436  1.00  0.00     0.000 HD 
BRANCH  14  17
HETATM   17  C   UNL     1     -12.155   9.035  71.401  1.00  0.00    -0.392 C  
BRANCH  17  18
HETATM   18  C   UNL     1     -12.920  10.231  70.829  1.00  0.00    -0.408 C  
BRANCH  18  19
HETATM   19  C   UNL     1     -13.268  11.252  71.912  1.00  0.00    -0.491 C  
BRANCH  19  20
HETATM   20  C   UNL     1     -13.007  12.676  71.418  1.00  0.00    -0.353 C  
HETATM   21  C   UNL     1     -13.546  13.712  72.391  1.00  0.00    -0.703 C  
ENDBRANCH  19  20
ENDBRANCH  18  19
ENDBRANCH  17  18
ENDBRANCH  14  17
ENDBRANCH  13  14
ENDBRANCH   5  12
BRANCH   6  22
HETATM   22  C   UNL     1     -10.840  15.769  65.232  1.00  0.00    -0.409 C  
BRANCH  22  23
HETATM   23  C   UNL     1      -9.999  16.851  65.906  1.00  0.00    -0.274 C  
BRANCH  23  24
HETATM   24  C   UNL     1     -10.469  17.082  67.339  1.00  0.00    -0.322 C  
HETATM   25  C   UNL     1     -10.217  18.494  67.803  1.00  0.00    -0.382 C  
HETATM   26  O   UNL     1      -9.473  18.782  68.727  1.00  0.00    -0.344 OA 
HETATM   27  O   UNL     1     -10.925  19.424  67.126  1.00  0.00    -0.483 OA 
ENDBRANCH  23  24
ENDBRANCH  22  23
ENDBRANCH   6  22
TORSDOF 9
ENDMDL
MODEL       45
REMARK 921   NORMALIZED FREE ENERGY PREDICTED BY IDOCK:   -5.47 KCAL/MOL
REMARK 922        TOTAL FREE ENERGY PREDICTED BY IDOCK:   -9.49 KCAL/MOL
REMARK 923 INTER-LIGAND FREE ENERGY PREDICTED BY IDOCK:   -8.84 KCAL/MOL
REMARK 924 INTRA-LIGAND FREE ENERGY PREDICTED BY IDOCK:   -0.65 KCAL/MOL
REMARK 927      BINDING AFFINITY PREDICTED BY RF-SCORE:    0.00 PKD
ROOT
HETATM    1  C   UNL     1     -12.182  13.260  64.957  1.00  0.00    -0.432 C  
HETATM    2  C   UNL     1     -11.903  12.471  63.690  1.00  0.00    -0.610 C  
HETATM    3  C   UNL     1     -10.611  11.708  63.976  1.00  0.00    -0.373 C  
HETATM    4  O   UNL     1      -9.483  12.422  63.471  1.00  0.00    -0.668 OA 
HETATM    5  C   UNL     1     -10.492  11.596  65.511  1.00  0.00    -0.321 C  
HETATM    6  C   UNL     1     -10.574  15.790  66.788  1.00  0.00    -0.309 C  
HETATM    7  C   UNL     1     -11.686  12.388  66.095  1.00  0.00    -0.460 C  
HETATM    8  H   UNL     1      -8.680  11.947  63.648  1.00  0.00     0.000 HD 
HETATM    9  C   UNL     1     -11.299  13.404  67.150  1.00  0.00    -0.344 C  
HETATM   10  O   UNL     1     -11.428  14.473  64.997  1.00  0.00    -0.350 OA 
HETATM   11  C   UNL     1     -11.061  14.630  66.324  1.00  0.00    -0.336 C  
ENDROOT
BRANCH   5  12
HETATM   12  C   UNL     1     -10.551  10.161  65.989  1.00  0.00    -0.071 C  
HETATM   13  C   UNL     1      -9.562   9.273  65.792  1.00  0.00    -0.341 C  
BRANCH  13  14
HETATM   14  C   UNL     1      -9.538   7.888  66.375  1.00  0.00    -0.181 C  
HETATM   15  O   UNL     1      -8.290   7.717  67.033  1.00  0.00    -0.114 OA 
HETATM   16  H   UNL     1      -8.275   6.842  67.402  1.00  0.00     0.000 HD 
BRANCH  14  17
HETATM   17  C   UNL     1     -10.662   7.674  67.394  1.00  0.00    -0.318 C  
BRANCH  17  18
HETATM   18  C   UNL     1     -10.792   6.216  67.840  1.00  0.00    -0.406 C  
BRANCH  18  19
HETATM   19  C   UNL     1     -11.148   6.105  69.323  1.00  0.00    -0.463 C  
BRANCH  19  20
HETATM   20  C   UNL     1     -10.112   5.264  70.068  1.00  0.00    -0.336 C  
HETATM   21  C   UNL     1     -10.332   5.309  71.571  1.00  0.00    -0.287 C  
ENDBRANCH  19  20
ENDBRANCH  18  19
ENDBRANCH  17  18
ENDBRANCH  14  17
ENDBRANCH  13  14
ENDBRANCH   5  12
BRANCH   6  22
HETATM   22  C   UNL     1     -10.395  17.028  65.957  1.00  0.00    -0.324 C  
BRANCH  22  23
HETATM   23  C   UNL     1      -9.137  17.798  66.354  1.00  0.00    -0.254 C  
BRANCH  23  24
HETATM   24  C   UNL     1      -9.468  19.261  66.632  1.00  0.00    -0.398 C  
HETATM   25  C   UNL     1      -9.436  19.585  68.103  1.00  0.00    -0.359 C  
HETATM   26  O   UNL     1     -10.410  19.956  68.739  1.00  0.00    -0.433 OA 
HETATM   27  O   UNL     1      -8.210  19.469  68.660  1.00  0.00    -0.354 OA 
ENDBRANCH  23  24
ENDBRANCH  22  23
ENDBRANCH   6  22
TORSDOF 9
ENDMDL
MODEL       46
REMARK 921   NORMALIZED FREE ENERGY PREDICTED BY IDOCK:   -5.47 KCAL/MOL
REMARK 922        TOTAL FREE ENERGY PREDICTED BY IDOCK:   -9.49 KCAL/MOL
REMARK 923 INTER-LIGAND FREE ENERGY PREDICTED BY IDOCK:   -8.23 KCAL/MOL
REMARK 924 INTRA-LIGAND FREE ENERGY PREDICTED BY IDOCK:   -1.26 KCAL/MOL
REMARK 927      BINDING AFFINITY PREDICTED BY RF-SCORE:    0.00 PKD
ROOT
HETATM    1  C   UNL     1      -9.637   9.936  69.694  1.00  0.00    -0.227 C  
HETATM    2  C   UNL     1      -9.142   9.596  68.299  1.00  0.00    -0.123 C  
HETATM    3  C   UNL     1     -10.392   9.605  67.423  1.00  0.00    -0.247 C  
HETATM    4  O   UNL     1     -10.913   8.284  67.277  1.00  0.00    -0.474 OA 
HETATM    5  C   UNL     1     -11.435  10.483  68.145  1.00  0.00    -0.255 C  
HETATM    6  C   UNL     1     -11.826   8.501  72.037  1.00  0.00    -0.429 C  
HETATM    7  C   UNL     1     -10.793  10.897  69.491  1.00  0.00    -0.286 C  
HETATM    8  H   UNL     1     -11.691   8.290  66.731  1.00  0.00     0.000 HD 
HETATM    9  C   UNL     1     -11.664  10.631  70.702  1.00  0.00    -0.454 C  
HETATM   10  O   UNL     1     -10.160   8.784  70.360  1.00  0.00    -0.181 OA 
HETATM   11  C   UNL     1     -11.250   9.244  71.082  1.00  0.00    -0.343 C  
ENDROOT
BRANCH   5  12
HETATM   12  C   UNL     1     -11.795  11.721  67.351  1.00  0.00    -0.210 C  
HETATM   13  C   UNL     1     -11.543  12.971  67.774  1.00  0.00    -0.385 C  
BRANCH  13  14
HETATM   14  C   UNL     1     -11.763  14.206  66.946  1.00  0.00    -0.414 C  
HETATM   15  O   UNL     1     -12.062  15.275  67.834  1.00  0.00    -0.447 OA 
HETATM   16  H   UNL     1     -12.201  16.055  67.311  1.00  0.00     0.000 HD 
BRANCH  14  17
HETATM   17  C   UNL     1     -10.520  14.581  66.132  1.00  0.00    -0.303 C  
BRANCH  17  18
HETATM   18  C   UNL     1     -10.577  14.068  64.690  1.00  0.00    -0.416 C  
BRANCH  18  19
HETATM   19  C   UNL     1     -12.017  13.923  64.196  1.00  0.00    -0.464 C  
BRANCH  19  20
HETATM   20  C   UNL     1     -12.207  12.596  63.461  1.00  0.00    -0.638 C  
HETATM   21  C   UNL     1     -11.012  11.677  63.649  1.00  0.00    -0.507 C  
ENDBRANCH  19  20
ENDBRANCH  18  19
ENDBRANCH  17  18
ENDBRANCH  14  17
ENDBRANCH  13  14
ENDBRANCH   5  12
BRANCH   6  22
HETATM   22  C   UNL     1     -11.361   7.133  72.445  1.00  0.00    -0.312 C  
BRANCH  22  23
HETATM   23  C   UNL     1     -11.502   6.125  71.305  1.00  0.00    -0.311 C  
BRANCH  23  24
HETATM   24  C   UNL     1     -10.329   5.150  71.302  1.00  0.00    -0.276 C  
HETATM   25  C   UNL     1      -9.772   4.930  69.919  1.00  0.00    -0.206 C  
HETATM   26  O   UNL     1      -9.783   3.851  69.346  1.00  0.00    -0.192 OA 
HETATM   27  O   UNL     1      -9.214   6.034  69.375  1.00  0.00    -0.131 OA 
ENDBRANCH  23  24
ENDBRANCH  22  23
ENDBRANCH   6  22
TORSDOF 9
ENDMDL
MODEL       47
REMARK 921   NORMALIZED FREE ENERGY PREDICTED BY IDOCK:   -5.44 KCAL/MOL
REMARK 922        TOTAL FREE ENERGY PREDICTED BY IDOCK:   -9.45 KCAL/MOL
REMARK 923 INTER-LIGAND FREE ENERGY PREDICTED BY IDOCK:   -7.78 KCAL/MOL
REMARK 924 INTRA-LIGAND FREE ENERGY PREDICTED BY IDOCK:   -1.67 KCAL/MOL
REMARK 927      BINDING AFFINITY PREDICTED BY RF-SCORE:    0.00 PKD
ROOT
HETATM    1  C   UNL     1     -12.081  14.036  66.646  1.00  0.00    -0.456 C  
HETATM    2  C   UNL     1     -11.967  14.323  68.133  1.00  0.00    -0.343 C  
HETATM    3  C   UNL     1     -10.631  15.044  68.295  1.00  0.00    -0.247 C  
HETATM    4  O   UNL     1      -9.603  14.123  68.658  1.00  0.00    -0.216 OA 
HETATM    5  C   UNL     1     -10.292  15.664  66.923  1.00  0.00    -0.293 C  
HETATM    6  C   UNL     1     -10.286  12.176  64.267  1.00  0.00    -0.363 C  
HETATM    7  C   UNL     1     -11.408  15.206  65.955  1.00  0.00    -0.225 C  
HETATM    8  H   UNL     1      -8.772  14.571  68.759  1.00  0.00     0.000 HD 
HETATM    9  C   UNL     1     -10.898  14.586  64.669  1.00  0.00    -0.351 C  
HETATM   10  O   UNL     1     -11.356  12.859  66.282  1.00  0.00    -0.298 OA 
HETATM   11  C   UNL     1     -10.808  13.138  65.040  1.00  0.00    -0.315 C  
ENDROOT
BRANCH   5  12
HETATM   12  C   UNL     1     -10.249  17.177  66.971  1.00  0.00    -0.313 C  
HETATM   13  C   UNL     1     -10.418  17.888  68.098  1.00  0.00    -0.380 C  
BRANCH  13  14
HETATM   14  C   UNL     1     -10.243  19.378  68.194  1.00  0.00    -0.431 C  
HETATM   15  O   UNL     1     -10.383  19.742  69.561  1.00  0.00    -0.635 OA 
HETATM   16  H   UNL     1     -10.272  20.684  69.622  1.00  0.00     0.000 HD 
BRANCH  14  17
HETATM   17  C   UNL     1      -8.860  19.826  67.707  1.00  0.00    -0.386 C  
BRANCH  17  18
HETATM   18  C   UNL     1      -7.741  19.475  68.690  1.00  0.00    -0.390 C  
BRANCH  18  19
HETATM   19  C   UNL     1      -6.500  18.945  67.971  1.00  0.00    -0.234 C  
BRANCH  19  20
HETATM   20  C   UNL     1      -6.574  17.426  67.809  1.00  0.00    -0.164 C  
HETATM   21  C   UNL     1      -7.062  16.752  69.080  1.00  0.00    -0.222 C  
ENDBRANCH  19  20
ENDBRANCH  18  19
ENDBRANCH  17  18
ENDBRANCH  14  17
ENDBRANCH  13  14
ENDBRANCH   5  12
BRANCH   6  22
HETATM   22  C   UNL     1     -10.256  10.719  64.631  1.00  0.00    -0.419 C  
BRANCH  22  23
HETATM   23  C   UNL     1      -8.909  10.313  65.226  1.00  0.00    -0.200 C  
BRANCH  23  24
HETATM   24  C   UNL     1      -8.993  10.245  66.748  1.00  0.00    -0.147 C  
HETATM   25  C   UNL     1     -10.168   9.428  67.219  1.00  0.00    -0.246 C  
HETATM   26  O   UNL     1     -11.094   9.883  67.873  1.00  0.00    -0.262 OA 
HETATM   27  O   UNL     1     -10.090   8.120  66.888  1.00  0.00    -0.242 OA 
ENDBRANCH  23  24
ENDBRANCH  22  23
ENDBRANCH   6  22
TORSDOF 9
ENDMDL
MODEL       48
REMARK 921   NORMALIZED FREE ENERGY PREDICTED BY IDOCK:   -5.41 KCAL/MOL
REMARK 922        TOTAL FREE ENERGY PREDICTED BY IDOCK:   -9.40 KCAL/MOL
REMARK 923 INTER-LIGAND FREE ENERGY PREDICTED BY IDOCK:   -8.29 KCAL/MOL
REMARK 924 INTRA-LIGAND FREE ENERGY PREDICTED BY IDOCK:   -1.11 KCAL/MOL
REMARK 927      BINDING AFFINITY PREDICTED BY RF-SCORE:    0.00 PKD
ROOT
HETATM    1  C   UNL     1     -11.431  12.487  69.181  1.00  0.00    -0.305 C  
HETATM    2  C   UNL     1     -12.364  12.251  70.356  1.00  0.00    -0.309 C  
HETATM    3  C   UNL     1     -12.477  10.733  70.473  1.00  0.00    -0.360 C  
HETATM    4  O   UNL     1     -13.638  10.261  69.790  1.00  0.00    -0.203 OA 
HETATM    5  C   UNL     1     -11.220  10.141  69.801  1.00  0.00    -0.325 C  
HETATM    6  C   UNL     1     -11.440  11.781  65.740  1.00  0.00    -0.258 C  
HETATM    7  C   UNL     1     -10.437  11.341  69.217  1.00  0.00    -0.145 C  
HETATM    8  H   UNL     1     -13.709   9.316  69.863  1.00  0.00     0.000 HD 
HETATM    9  C   UNL     1     -10.057  11.184  67.759  1.00  0.00    -0.200 C  
HETATM   10  O   UNL     1     -12.125  12.403  67.934  1.00  0.00    -0.428 OA 
HETATM   11  C   UNL     1     -11.239  11.787  67.065  1.00  0.00    -0.322 C  
ENDROOT
BRANCH   5  12
HETATM   12  C   UNL     1     -10.344   9.390  70.781  1.00  0.00    -0.366 C  
HETATM   13  C   UNL     1      -9.048   9.115  70.556  1.00  0.00    -0.284 C  
BRANCH  13  14
HETATM   14  C   UNL     1      -8.125   8.496  71.568  1.00  0.00    -0.151 C  
HETATM   15  O   UNL     1      -8.609   8.836  72.860  1.00  0.00    -0.398 OA 
HETATM   16  H   UNL     1      -8.026   8.445  73.499  1.00  0.00     0.000 HD 
BRANCH  14  17
HETATM   17  C   UNL     1      -8.083   6.969  71.448  1.00  0.00    -0.108 C  
BRANCH  17  18
HETATM   18  C   UNL     1      -8.951   6.266  72.495  1.00  0.00    -0.137 C  
BRANCH  18  19
HETATM   19  C   UNL     1     -10.300   5.835  71.917  1.00  0.00    -0.263 C  
BRANCH  19  20
HETATM   20  C   UNL     1     -10.183   5.550  70.420  1.00  0.00    -0.321 C  
HETATM   21  C   UNL     1     -11.255   6.278  69.627  1.00  0.00    -0.506 C  
ENDBRANCH  19  20
ENDBRANCH  18  19
ENDBRANCH  17  18
ENDBRANCH  14  17
ENDBRANCH  13  14
ENDBRANCH   5  12
BRANCH   6  22
HETATM   22  C   UNL     1     -12.603  12.441  65.056  1.00  0.00    -0.305 C  
BRANCH  22  23
HETATM   23  C   UNL     1     -12.603  13.953  65.275  1.00  0.00    -0.508 C  
BRANCH  23  24
HETATM   24  C   UNL     1     -11.788  14.652  64.192  1.00  0.00    -0.263 C  
HETATM   25  C   UNL     1     -11.202  15.956  64.669  1.00  0.00    -0.351 C  
HETATM   26  O   UNL     1     -11.489  17.045  64.194  1.00  0.00    -1.135 OA 
HETATM   27  O   UNL     1     -10.289  15.815  65.655  1.00  0.00    -0.337 OA 
ENDBRANCH  23  24
ENDBRANCH  22  23
ENDBRANCH   6  22
TORSDOF 9
ENDMDL
MODEL       49
REMARK 921   NORMALIZED FREE ENERGY PREDICTED BY IDOCK:   -5.40 KCAL/MOL
REMARK 922        TOTAL FREE ENERGY PREDICTED BY IDOCK:   -9.39 KCAL/MOL
REMARK 923 INTER-LIGAND FREE ENERGY PREDICTED BY IDOCK:   -8.08 KCAL/MOL
REMARK 924 INTRA-LIGAND FREE ENERGY PREDICTED BY IDOCK:   -1.31 KCAL/MOL
REMARK 927      BINDING AFFINITY PREDICTED BY RF-SCORE:    0.00 PKD
ROOT
HETATM    1  C   UNL     1     -11.978   9.684  71.824  1.00  0.00    -0.347 C  
HETATM    2  C   UNL     1     -13.207   9.101  72.501  1.00  0.00    -0.464 C  
HETATM    3  C   UNL     1     -13.402   7.732  71.855  1.00  0.00    -0.266 C  
HETATM    4  O   UNL     1     -14.347   7.810  70.788  1.00  0.00    -0.558 OA 
HETATM    5  C   UNL     1     -12.031   7.309  71.286  1.00  0.00    -0.359 C  
HETATM    6  C   UNL     1     -11.067  10.605  68.559  1.00  0.00    -0.318 C  
HETATM    7  C   UNL     1     -11.075   8.500  71.535  1.00  0.00    -0.343 C  
HETATM    8  H   UNL     1     -14.469   6.957  70.386  1.00  0.00     0.000 HD 
HETATM    9  C   UNL     1     -10.314   8.953  70.306  1.00  0.00    -0.235 C  
HETATM   10  O   UNL     1     -12.305  10.280  70.567  1.00  0.00    -0.289 OA 
HETATM   11  C   UNL     1     -11.237   9.984  69.735  1.00  0.00    -0.258 C  
ENDROOT
BRANCH   5  12
HETATM   12  C   UNL     1     -11.486   6.069  71.961  1.00  0.00    -0.343 C  
HETATM   13  C   UNL     1     -10.955   6.070  73.195  1.00  0.00    -0.269 C  
BRANCH  13  14
HETATM   14  C   UNL     1     -10.535   4.833  73.938  1.00  0.00    -0.262 C  
HETATM   15  O   UNL     1     -11.329   3.753  73.465  1.00  0.00    -0.242 OA 
HETATM   16  H   UNL     1     -11.064   2.971  73.934  1.00  0.00     0.000 HD 
BRANCH  14  17
HETATM   17  C   UNL     1      -9.059   4.494  73.703  1.00  0.00    -0.105 C  
BRANCH  17  18
HETATM   18  C   UNL     1      -8.121   5.656  74.042  1.00  0.00    -0.109 C  
BRANCH  18  19
HETATM   19  C   UNL     1      -7.495   6.264  72.786  1.00  0.00    -0.096 C  
BRANCH  19  20
HETATM   20  C   UNL     1      -7.168   7.742  73.005  1.00  0.00    -0.105 C  
HETATM   21  C   UNL     1      -7.884   8.297  74.225  1.00  0.00    -0.290 C  
ENDBRANCH  19  20
ENDBRANCH  18  19
ENDBRANCH  17  18
ENDBRANCH  14  17
ENDBRANCH  13  14
ENDBRANCH   5  12
BRANCH   6  22
HETATM   22  C   UNL     1     -11.972  11.679  68.028  1.00  0.00    -0.187 C  
BRANCH  22  23
HETATM   23  C   UNL     1     -11.395  12.334  66.774  1.00  0.00    -0.395 C  
BRANCH  23  24
HETATM   24  C   UNL     1     -12.277  13.494  66.320  1.00  0.00    -0.468 C  
HETATM   25  C   UNL     1     -12.636  13.402  64.860  1.00  0.00    -0.360 C  
HETATM   26  O   UNL     1     -12.302  14.227  64.024  1.00  0.00    -0.641 OA 
HETATM   27  O   UNL     1     -13.405  12.334  64.554  1.00  0.00    -0.769 OA 
ENDBRANCH  23  24
ENDBRANCH  22  23
ENDBRANCH   6  22
TORSDOF 9
ENDMDL
MODEL       50
REMARK 921   NORMALIZED FREE ENERGY PREDICTED BY IDOCK:   -5.39 KCAL/MOL
REMARK 922        TOTAL FREE ENERGY PREDICTED BY IDOCK:   -9.38 KCAL/MOL
REMARK 923 INTER-LIGAND FREE ENERGY PREDICTED BY IDOCK:   -8.09 KCAL/MOL
REMARK 924 INTRA-LIGAND FREE ENERGY PREDICTED BY IDOCK:   -1.29 KCAL/MOL
REMARK 927      BINDING AFFINITY PREDICTED BY RF-SCORE:    0.00 PKD
ROOT
HETATM    1  C   UNL     1      -8.795  10.190  68.379  1.00  0.00    -0.123 C  
HETATM    2  C   UNL     1      -8.367   9.443  67.128  1.00  0.00    -0.124 C  
HETATM    3  C   UNL     1      -9.647   9.267  66.315  1.00  0.00    -0.248 C  
HETATM    4  O   UNL     1     -10.229   7.988  66.565  1.00  0.00    -0.416 OA 
HETATM    5  C   UNL     1     -10.624  10.366  66.781  1.00  0.00    -0.270 C  
HETATM    6  C   UNL     1     -10.955   9.596  71.085  1.00  0.00    -0.430 C  
HETATM    7  C   UNL     1      -9.915  11.112  67.937  1.00  0.00    -0.189 C  
HETATM    8  H   UNL     1     -11.026   7.878  66.059  1.00  0.00     0.000 HD 
HETATM    9  C   UNL     1     -10.752  11.247  69.193  1.00  0.00    -0.247 C  
HETATM   10  O   UNL     1      -9.341   9.303  69.358  1.00  0.00    -0.153 OA 
HETATM   11  C   UNL     1     -10.383  10.005  69.944  1.00  0.00    -0.272 C  
ENDROOT
BRANCH   5  12
HETATM   12  C   UNL     1     -10.959  11.345  65.675  1.00  0.00    -0.254 C  
HETATM   13  C   UNL     1     -11.840  12.349  65.815  1.00  0.00    -0.467 C  
BRANCH  13  14
HETATM   14  C   UNL     1     -12.085  13.412  64.782  1.00  0.00    -0.406 C  
HETATM   15  O   UNL     1     -13.169  14.213  65.233  1.00  0.00    -0.760 OA 
HETATM   16  H   UNL     1     -13.324  14.885  64.580  1.00  0.00     0.000 HD 
BRANCH  14  17
HETATM   17  C   UNL     1     -10.861  14.313  64.583  1.00  0.00    -0.384 C  
BRANCH  17  18
HETATM   18  C   UNL     1     -10.752  15.411  65.644  1.00  0.00    -0.381 C  
BRANCH  18  19
HETATM   19  C   UNL     1      -9.296  15.715  65.999  1.00  0.00    -0.384 C  
BRANCH  19  20
HETATM   20  C   UNL     1      -9.103  17.207  66.267  1.00  0.00    -0.260 C  
HETATM   21  C   UNL     1     -10.372  17.994  65.983  1.00  0.00    -0.333 C  
ENDBRANCH  19  20
ENDBRANCH  18  19
ENDBRANCH  17  18
ENDBRANCH  14  17
ENDBRANCH  13  14
ENDBRANCH   5  12
BRANCH   6  22
HETATM   22  C   UNL     1     -10.534   8.378  71.855  1.00  0.00    -0.366 C  
BRANCH  22  23
HETATM   23  C   UNL     1     -11.733   7.523  72.261  1.00  0.00    -0.348 C  
BRANCH  23  24
HETATM   24  C   UNL     1     -12.330   6.823  71.044  1.00  0.00    -0.370 C  
HETATM   25  C   UNL     1     -11.275   6.186  70.176  1.00  0.00    -0.382 C  
HETATM   26  O   UNL     1     -11.054   6.517  69.022  1.00  0.00    -0.302 OA 
HETATM   27  O   UNL     1     -10.612   5.175  70.779  1.00  0.00    -0.222 OA 
ENDBRANCH  23  24
ENDBRANCH  22  23
ENDBRANCH   6  22
TORSDOF 9
ENDMDL
MODEL       51
REMARK 921   NORMALIZED FREE ENERGY PREDICTED BY IDOCK:   -5.39 KCAL/MOL
REMARK 922        TOTAL FREE ENERGY PREDICTED BY IDOCK:   -9.37 KCAL/MOL
REMARK 923 INTER-LIGAND FREE ENERGY PREDICTED BY IDOCK:   -8.78 KCAL/MOL
REMARK 924 INTRA-LIGAND FREE ENERGY PREDICTED BY IDOCK:   -0.59 KCAL/MOL
REMARK 927      BINDING AFFINITY PREDICTED BY RF-SCORE:    0.00 PKD
ROOT
HETATM    1  C   UNL     1     -10.942  12.308  66.580  1.00  0.00    -0.279 C  
HETATM    2  C   UNL     1     -11.633  12.555  65.250  1.00  0.00    -0.406 C  
HETATM    3  C   UNL     1     -12.234  13.953  65.371  1.00  0.00    -0.444 C  
HETATM    4  O   UNL     1     -13.601  13.880  65.772  1.00  0.00    -0.515 OA 
HETATM    5  C   UNL     1     -11.427  14.691  66.459  1.00  0.00    -0.354 C  
HETATM    6  C   UNL     1     -11.910  12.081  69.949  1.00  0.00    -0.405 C  
HETATM    7  C   UNL     1     -10.419  13.662  67.022  1.00  0.00    -0.270 C  
HETATM    8  H   UNL     1     -13.976  14.750  65.846  1.00  0.00     0.000 HD 
HETATM    9  C   UNL     1     -10.428  13.546  68.533  1.00  0.00    -0.250 C  
HETATM   10  O   UNL     1     -11.866  11.868  67.577  1.00  0.00    -0.552 OA 
HETATM   11  C   UNL     1     -11.448  12.471  68.753  1.00  0.00    -0.310 C  
ENDROOT
BRANCH   5  12
HETATM   12  C   UNL     1     -10.678  15.887  65.909  1.00  0.00    -0.303 C  
HETATM   13  C   UNL     1     -10.121  16.833  66.683  1.00  0.00    -0.304 C  
BRANCH  13  14
HETATM   14  C   UNL     1      -9.259  17.950  66.167  1.00  0.00    -0.114 C  
HETATM   15  O   UNL     1     -10.118  18.988  65.715  1.00  0.00    -0.499 OA 
HETATM   16  H   UNL     1      -9.573  19.694  65.390  1.00  0.00     0.000 HD 
BRANCH  14  17
HETATM   17  C   UNL     1      -8.340  18.516  67.256  1.00  0.00    -0.259 C  
BRANCH  17  18
HETATM   18  C   UNL     1      -8.258  20.044  67.230  1.00  0.00    -0.368 C  
BRANCH  18  19
HETATM   19  C   UNL     1      -6.930  20.531  66.648  1.00  0.00    -0.310 C  
BRANCH  19  20
HETATM   20  C   UNL     1      -6.865  20.260  65.145  1.00  0.00    -0.300 C  
HETATM   21  C   UNL     1      -5.666  20.940  64.506  1.00  0.00    -0.283 C  
ENDBRANCH  19  20
ENDBRANCH  18  19
ENDBRANCH  17  18
ENDBRANCH  14  17
ENDBRANCH  13  14
ENDBRANCH   5  12
BRANCH   6  22
HETATM   22  C   UNL     1     -12.890  10.962  70.155  1.00  0.00    -0.144 C  
BRANCH  22  23
HETATM   23  C   UNL     1     -12.707  10.294  71.517  1.00  0.00    -0.557 C  
BRANCH  23  24
HETATM   24  C   UNL     1     -11.488   9.376  71.504  1.00  0.00    -0.467 C  
HETATM   25  C   UNL     1     -11.756   8.061  72.190  1.00  0.00    -0.344 C  
HETATM   26  O   UNL     1     -11.172   7.688  73.196  1.00  0.00    -0.391 OA 
HETATM   27  O   UNL     1     -12.682   7.299  71.567  1.00  0.00    -0.353 OA 
ENDBRANCH  23  24
ENDBRANCH  22  23
ENDBRANCH   6  22
TORSDOF 9
ENDMDL
MODEL       52
REMARK 921   NORMALIZED FREE ENERGY PREDICTED BY IDOCK:   -5.38 KCAL/MOL
REMARK 922        TOTAL FREE ENERGY PREDICTED BY IDOCK:   -9.37 KCAL/MOL
REMARK 923 INTER-LIGAND FREE ENERGY PREDICTED BY IDOCK:   -8.60 KCAL/MOL
REMARK 924 INTRA-LIGAND FREE ENERGY PREDICTED BY IDOCK:   -0.77 KCAL/MOL
REMARK 927      BINDING AFFINITY PREDICTED BY RF-SCORE:    0.00 PKD
ROOT
HETATM    1  C   UNL     1      -9.364  11.068  66.022  1.00  0.00    -0.201 C  
HETATM    2  C   UNL     1     -10.213  11.424  64.814  1.00  0.00    -0.338 C  
HETATM    3  C   UNL     1     -11.073  12.602  65.269  1.00  0.00    -0.295 C  
HETATM    4  O   UNL     1     -12.352  12.150  65.710  1.00  0.00    -0.564 OA 
HETATM    5  C   UNL     1     -10.333  13.260  66.452  1.00  0.00    -0.286 C  
HETATM    6  C   UNL     1      -9.942   9.950  69.301  1.00  0.00    -0.217 C  
HETATM    7  C   UNL     1      -9.088  12.384  66.725  1.00  0.00    -0.212 C  
HETATM    8  H   UNL     1     -12.887  12.882  65.992  1.00  0.00     0.000 HD 
HETATM    9  C   UNL     1      -8.931  11.962  68.172  1.00  0.00    -0.185 C  
HETATM   10  O   UNL     1     -10.080  10.242  66.942  1.00  0.00    -0.202 OA 
HETATM   11  C   UNL     1      -9.684  10.669  68.199  1.00  0.00    -0.156 C  
ENDROOT
BRANCH   5  12
HETATM   12  C   UNL     1      -9.899  14.678  66.143  1.00  0.00    -0.334 C  
HETATM   13  C   UNL     1     -10.760  15.676  65.882  1.00  0.00    -0.336 C  
BRANCH  13  14
HETATM   14  C   UNL     1     -10.362  17.115  65.709  1.00  0.00    -0.240 C  
HETATM   15  O   UNL     1     -11.151  17.659  64.660  1.00  0.00    -0.906 OA 
HETATM   16  H   UNL     1     -10.900  18.569  64.551  1.00  0.00     0.000 HD 
BRANCH  14  17
HETATM   17  C   UNL     1     -10.605  17.935  66.981  1.00  0.00    -0.287 C  
BRANCH  17  18
HETATM   18  C   UNL     1     -10.674  19.440  66.714  1.00  0.00    -0.550 C  
BRANCH  18  19
HETATM   19  C   UNL     1      -9.751  20.225  67.647  1.00  0.00    -0.555 C  
BRANCH  19  20
HETATM   20  C   UNL     1      -8.326  19.672  67.591  1.00  0.00    -0.343 C  
HETATM   21  C   UNL     1      -7.339  20.720  67.106  1.00  0.00    -0.385 C  
ENDBRANCH  19  20
ENDBRANCH  18  19
ENDBRANCH  17  18
ENDBRANCH  14  17
ENDBRANCH  13  14
ENDBRANCH   5  12
BRANCH   6  22
HETATM   22  C   UNL     1     -10.650   8.626  69.304  1.00  0.00    -0.204 C  
BRANCH  22  23
HETATM   23  C   UNL     1     -10.674   8.001  70.697  1.00  0.00    -0.235 C  
BRANCH  23  24
HETATM   24  C   UNL     1     -11.039   9.045  71.748  1.00  0.00    -0.444 C  
HETATM   25  C   UNL     1     -12.506   9.388  71.729  1.00  0.00    -0.391 C  
HETATM   26  O   UNL     1     -12.941  10.498  71.465  1.00  0.00    -0.396 OA 
HETATM   27  O   UNL     1     -13.311   8.358  72.072  1.00  0.00    -0.335 OA 
ENDBRANCH  23  24
ENDBRANCH  22  23
ENDBRANCH   6  22
TORSDOF 9
ENDMDL
MODEL       53
REMARK 921   NORMALIZED FREE ENERGY PREDICTED BY IDOCK:   -5.37 KCAL/MOL
REMARK 922        TOTAL FREE ENERGY PREDICTED BY IDOCK:   -9.35 KCAL/MOL
REMARK 923 INTER-LIGAND FREE ENERGY PREDICTED BY IDOCK:   -7.98 KCAL/MOL
REMARK 924 INTRA-LIGAND FREE ENERGY PREDICTED BY IDOCK:   -1.37 KCAL/MOL
REMARK 927      BINDING AFFINITY PREDICTED BY RF-SCORE:    0.00 PKD
ROOT
HETATM    1  C   UNL     1      -9.368   7.085  66.373  1.00  0.00    -0.138 C  
HETATM    2  C   UNL     1      -8.138   6.280  66.752  1.00  0.00    -0.109 C  
HETATM    3  C   UNL     1      -7.549   7.004  67.961  1.00  0.00    -0.111 C  
HETATM    4  O   UNL     1      -6.517   7.903  67.556  1.00  0.00    -0.053 OA 
HETATM    5  C   UNL     1      -8.700   7.810  68.599  1.00  0.00    -0.128 C  
HETATM    6  C   UNL     1     -10.035  10.360  65.292  1.00  0.00    -0.376 C  
HETATM    7  C   UNL     1      -9.928   7.609  67.682  1.00  0.00    -0.225 C  
HETATM    8  H   UNL     1      -6.150   8.353  68.308  1.00  0.00     0.000 HD 
HETATM    9  C   UNL     1     -10.607   8.898  67.262  1.00  0.00    -0.304 C  
HETATM   10  O   UNL     1      -9.027   8.222  65.576  1.00  0.00    -0.154 OA 
HETATM   11  C   UNL     1      -9.881   9.230  65.995  1.00  0.00    -0.293 C  
ENDROOT
BRANCH   5  12
HETATM   12  C   UNL     1      -9.027   7.335  69.999  1.00  0.00    -0.142 C  
HETATM   13  C   UNL     1     -10.012   6.464  70.275  1.00  0.00    -0.199 C  
BRANCH  13  14
HETATM   14  C   UNL     1     -10.266   5.874  71.633  1.00  0.00    -0.202 C  
HETATM   15  O   UNL     1      -9.175   6.230  72.471  1.00  0.00    -0.142 OA 
HETATM   16  H   UNL     1      -9.336   5.857  73.329  1.00  0.00     0.000 HD 
BRANCH  14  17
HETATM   17  C   UNL     1     -11.559   6.409  72.259  1.00  0.00    -0.341 C  
BRANCH  17  18
HETATM   18  C   UNL     1     -11.462   7.886  72.652  1.00  0.00    -0.454 C  
BRANCH  18  19
HETATM   19  C   UNL     1     -12.447   8.749  71.863  1.00  0.00    -0.434 C  
BRANCH  19  20
HETATM   20  C   UNL     1     -11.711   9.845  71.092  1.00  0.00    -0.478 C  
HETATM   21  C   UNL     1     -12.541  11.114  70.997  1.00  0.00    -0.503 C  
ENDBRANCH  19  20
ENDBRANCH  18  19
ENDBRANCH  17  18
ENDBRANCH  14  17
ENDBRANCH  13  14
ENDBRANCH   5  12
BRANCH   6  22
HETATM   22  C   UNL     1      -9.341  10.653  63.993  1.00  0.00    -0.303 C  
BRANCH  22  23
HETATM   23  C   UNL     1      -9.999  11.814  63.249  1.00  0.00    -0.435 C  
BRANCH  23  24
HETATM   24  C   UNL     1     -10.893  12.616  64.190  1.00  0.00    -0.431 C  
HETATM   25  C   UNL     1     -12.212  12.975  63.556  1.00  0.00    -0.501 C  
HETATM   26  O   UNL     1     -12.573  14.122  63.342  1.00  0.00    -0.818 OA 
HETATM   27  O   UNL     1     -12.992  11.907  63.278  1.00  0.00    -0.707 OA 
ENDBRANCH  23  24
ENDBRANCH  22  23
ENDBRANCH   6  22
TORSDOF 9
ENDMDL
MODEL       54
REMARK 921   NORMALIZED FREE ENERGY PREDICTED BY IDOCK:   -5.37 KCAL/MOL
REMARK 922        TOTAL FREE ENERGY PREDICTED BY IDOCK:   -9.34 KCAL/MOL
REMARK 923 INTER-LIGAND FREE ENERGY PREDICTED BY IDOCK:   -8.03 KCAL/MOL
REMARK 924 INTRA-LIGAND FREE ENERGY PREDICTED BY IDOCK:   -1.31 KCAL/MOL
REMARK 927      BINDING AFFINITY PREDICTED BY RF-SCORE:    0.00 PKD
ROOT
HETATM    1  C   UNL     1      -9.066   9.287  67.703  1.00  0.00    -0.125 C  
HETATM    2  C   UNL     1     -10.271   9.469  66.798  1.00  0.00    -0.313 C  
HETATM    3  C   UNL     1     -10.866  10.818  67.197  1.00  0.00    -0.277 C  
HETATM    4  O   UNL     1     -11.924  10.642  68.137  1.00  0.00    -0.791 OA 
HETATM    5  C   UNL     1      -9.729  11.625  67.859  1.00  0.00    -0.181 C  
HETATM    6  C   UNL     1      -8.495   9.013  71.158  1.00  0.00    -0.234 C  
HETATM    7  C   UNL     1      -8.506  10.680  67.916  1.00  0.00    -0.120 C  
HETATM    8  H   UNL     1     -12.294  11.481  68.385  1.00  0.00     0.000 HD 
HETATM    9  C   UNL     1      -7.865  10.576  69.285  1.00  0.00    -0.144 C  
HETATM   10  O   UNL     1      -9.445   8.785  68.986  1.00  0.00    -0.157 OA 
HETATM   11  C   UNL     1      -8.613   9.428  69.889  1.00  0.00    -0.191 C  
ENDROOT
BRANCH   5  12
HETATM   12  C   UNL     1      -9.375  12.870  67.074  1.00  0.00    -0.235 C  
HETATM   13  C   UNL     1     -10.289  13.677  66.511  1.00  0.00    -0.282 C  
BRANCH  13  14
HETATM   14  C   UNL     1      -9.970  14.987  65.848  1.00  0.00    -0.326 C  
HETATM   15  O   UNL     1     -10.559  14.972  64.555  1.00  0.00    -0.582 OA 
HETATM   16  H   UNL     1     -10.358  15.801  64.136  1.00  0.00     0.000 HD 
BRANCH  14  17
HETATM   17  C   UNL     1     -10.536  16.178  66.629  1.00  0.00    -0.300 C  
BRANCH  17  18
HETATM   18  C   UNL     1      -9.690  16.543  67.852  1.00  0.00    -0.236 C  
BRANCH  18  19
HETATM   19  C   UNL     1      -9.931  17.985  68.299  1.00  0.00    -0.374 C  
BRANCH  19  20
HETATM   20  C   UNL     1     -10.695  18.764  67.229  1.00  0.00    -0.490 C  
HETATM   21  C   UNL     1     -10.120  20.157  67.034  1.00  0.00    -0.599 C  
ENDBRANCH  19  20
ENDBRANCH  18  19
ENDBRANCH  17  18
ENDBRANCH  14  17
ENDBRANCH  13  14
ENDBRANCH   5  12
BRANCH   6  22
HETATM   22  C   UNL     1      -9.209   7.824  71.732  1.00  0.00    -0.177 C  
BRANCH  22  23
HETATM   23  C   UNL     1     -10.343   8.242  72.667  1.00  0.00    -0.374 C  
BRANCH  23  24
HETATM   24  C   UNL     1     -11.696   8.059  71.986  1.00  0.00    -0.375 C  
HETATM   25  C   UNL     1     -12.417   9.368  71.787  1.00  0.00    -0.391 C  
HETATM   26  O   UNL     1     -13.487   9.640  72.310  1.00  0.00    -0.441 OA 
HETATM   27  O   UNL     1     -11.792  10.211  70.936  1.00  0.00    -0.316 OA 
ENDBRANCH  23  24
ENDBRANCH  22  23
ENDBRANCH   6  22
TORSDOF 9
ENDMDL
MODEL       55
REMARK 921   NORMALIZED FREE ENERGY PREDICTED BY IDOCK:   -5.37 KCAL/MOL
REMARK 922        TOTAL FREE ENERGY PREDICTED BY IDOCK:   -9.34 KCAL/MOL
REMARK 923 INTER-LIGAND FREE ENERGY PREDICTED BY IDOCK:   -7.39 KCAL/MOL
REMARK 924 INTRA-LIGAND FREE ENERGY PREDICTED BY IDOCK:   -1.95 KCAL/MOL
REMARK 927      BINDING AFFINITY PREDICTED BY RF-SCORE:    0.00 PKD
ROOT
HETATM    1  C   UNL     1     -11.153  10.101  68.728  1.00  0.00    -0.203 C  
HETATM    2  C   UNL     1     -10.841  11.550  69.056  1.00  0.00    -0.258 C  
HETATM    3  C   UNL     1      -9.533  11.848  68.326  1.00  0.00    -0.197 C  
HETATM    4  O   UNL     1      -8.419  11.681  69.202  1.00  0.00    -0.369 OA 
HETATM    5  C   UNL     1      -9.426  10.828  67.172  1.00  0.00    -0.180 C  
HETATM    6  C   UNL     1      -9.627   6.983  69.269  1.00  0.00    -0.154 C  
HETATM    7  C   UNL     1     -10.646   9.887  67.315  1.00  0.00    -0.316 C  
HETATM    8  H   UNL     1      -7.605  11.867  68.747  1.00  0.00     0.000 HD 
HETATM    9  C   UNL     1     -10.295   8.412  67.306  1.00  0.00    -0.369 C  
HETATM   10  O   UNL     1     -10.429   9.204  69.575  1.00  0.00    -0.209 OA 
HETATM   11  C   UNL     1     -10.080   8.138  68.761  1.00  0.00    -0.199 C  
ENDROOT
BRANCH   5  12
HETATM   12  C   UNL     1      -9.454  11.494  65.812  1.00  0.00    -0.255 C  
HETATM   13  C   UNL     1     -10.409  11.266  64.895  1.00  0.00    -0.362 C  
BRANCH  13  14
HETATM   14  C   UNL     1     -10.534  12.014  63.598  1.00  0.00    -0.454 C  
HETATM   15  O   UNL     1     -10.398  11.074  62.541  1.00  0.00    -0.672 OA 
HETATM   16  H   UNL     1     -10.478  11.547  61.721  1.00  0.00     0.000 HD 
BRANCH  14  17
HETATM   17  C   UNL     1     -11.894  12.708  63.464  1.00  0.00    -0.619 C  
BRANCH  17  18
HETATM   18  C   UNL     1     -12.004  13.971  64.322  1.00  0.00    -0.463 C  
BRANCH  18  19
HETATM   19  C   UNL     1     -12.734  13.702  65.638  1.00  0.00    -0.505 C  
BRANCH  19  20
HETATM   20  C   UNL     1     -12.057  14.437  66.795  1.00  0.00    -0.393 C  
HETATM   21  C   UNL     1     -10.728  15.040  66.371  1.00  0.00    -0.322 C  
ENDBRANCH  19  20
ENDBRANCH  18  19
ENDBRANCH  17  18
ENDBRANCH  14  17
ENDBRANCH  13  14
ENDBRANCH   5  12
BRANCH   6  22
HETATM   22  C   UNL     1      -9.471   6.705  70.737  1.00  0.00    -0.173 C  
BRANCH  22  23
HETATM   23  C   UNL     1      -8.032   6.333  71.092  1.00  0.00    -0.116 C  
BRANCH  23  24
HETATM   24  C   UNL     1      -7.058   7.366  70.535  1.00  0.00    -0.057 C  
HETATM   25  C   UNL     1      -7.127   8.676  71.277  1.00  0.00    -0.085 C  
HETATM   26  O   UNL     1      -7.469   9.730  70.765  1.00  0.00    -0.295 OA 
HETATM   27  O   UNL     1      -6.733   8.592  72.567  1.00  0.00    -0.168 OA 
ENDBRANCH  23  24
ENDBRANCH  22  23
ENDBRANCH   6  22
TORSDOF 9
ENDMDL
MODEL       56
REMARK 921   NORMALIZED FREE ENERGY PREDICTED BY IDOCK:   -5.37 KCAL/MOL
REMARK 922        TOTAL FREE ENERGY PREDICTED BY IDOCK:   -9.34 KCAL/MOL
REMARK 923 INTER-LIGAND FREE ENERGY PREDICTED BY IDOCK:   -7.92 KCAL/MOL
REMARK 924 INTRA-LIGAND FREE ENERGY PREDICTED BY IDOCK:   -1.42 KCAL/MOL
REMARK 927      BINDING AFFINITY PREDICTED BY RF-SCORE:    0.00 PKD
ROOT
HETATM    1  C   UNL     1     -11.891  11.922  67.916  1.00  0.00    -0.238 C  
HETATM    2  C   UNL     1     -11.055  10.720  67.516  1.00  0.00    -0.374 C  
HETATM    3  C   UNL     1     -10.169  10.434  68.727  1.00  0.00    -0.187 C  
HETATM    4  O   UNL     1      -8.890  11.048  68.570  1.00  0.00    -0.147 OA 
HETATM    5  C   UNL     1     -10.878  11.048  69.951  1.00  0.00    -0.142 C  
HETATM    6  C   UNL     1     -11.280  15.263  68.812  1.00  0.00    -0.293 C  
HETATM    7  C   UNL     1     -12.133  11.769  69.406  1.00  0.00    -0.301 C  
HETATM    8  H   UNL     1      -8.338  10.870  69.323  1.00  0.00     0.000 HD 
HETATM    9  C   UNL     1     -12.275  13.205  69.870  1.00  0.00    -0.293 C  
HETATM   10  O   UNL     1     -11.174  13.145  67.730  1.00  0.00    -0.254 OA 
HETATM   11  C   UNL     1     -11.544  13.949  68.796  1.00  0.00    -0.335 C  
ENDROOT
BRANCH   5  12
HETATM   12  C   UNL     1     -11.293  10.000  70.962  1.00  0.00    -0.434 C  
HETATM   13  C   UNL     1     -12.555   9.848  71.397  1.00  0.00    -0.497 C  
BRANCH  13  14
HETATM   14  C   UNL     1     -13.014   8.731  72.290  1.00  0.00    -0.408 C  
HETATM   15  O   UNL     1     -14.228   9.140  72.906  1.00  0.00    -1.016 OA 
HETATM   16  H   UNL     1     -14.519   8.434  73.471  1.00  0.00     0.000 HD 
BRANCH  14  17
HETATM   17  C   UNL     1     -13.274   7.439  71.508  1.00  0.00    -0.426 C  
BRANCH  17  18
HETATM   18  C   UNL     1     -12.039   6.540  71.417  1.00  0.00    -0.344 C  
BRANCH  18  19
HETATM   19  C   UNL     1     -11.431   6.550  70.013  1.00  0.00    -0.476 C  
BRANCH  19  20
HETATM   20  C   UNL     1     -10.485   5.364  69.823  1.00  0.00    -0.378 C  
HETATM   21  C   UNL     1      -9.503   5.243  70.976  1.00  0.00    -0.211 C  
ENDBRANCH  19  20
ENDBRANCH  18  19
ENDBRANCH  17  18
ENDBRANCH  14  17
ENDBRANCH  13  14
ENDBRANCH   5  12
BRANCH   6  22
HETATM   22  C   UNL     1     -10.595  16.005  67.700  1.00  0.00    -0.309 C  
BRANCH  22  23
HETATM   23  C   UNL     1      -9.388  16.792  68.205  1.00  0.00    -0.230 C  
BRANCH  23  24
HETATM   24  C   UNL     1      -8.589  15.965  69.209  1.00  0.00    -0.247 C  
HETATM   25  C   UNL     1      -7.747  14.910  68.539  1.00  0.00    -0.123 C  
HETATM   26  O   UNL     1      -7.899  13.710  68.708  1.00  0.00    -0.123 OA 
HETATM   27  O   UNL     1      -6.768  15.412  67.754  1.00  0.00    -0.135 OA 
ENDBRANCH  23  24
ENDBRANCH  22  23
ENDBRANCH   6  22
TORSDOF 9
ENDMDL
MODEL       57
REMARK 921   NORMALIZED FREE ENERGY PREDICTED BY IDOCK:   -5.36 KCAL/MOL
REMARK 922        TOTAL FREE ENERGY PREDICTED BY IDOCK:   -9.34 KCAL/MOL
REMARK 923 INTER-LIGAND FREE ENERGY PREDICTED BY IDOCK:   -8.33 KCAL/MOL
REMARK 924 INTRA-LIGAND FREE ENERGY PREDICTED BY IDOCK:   -1.00 KCAL/MOL
REMARK 927      BINDING AFFINITY PREDICTED BY RF-SCORE:    0.00 PKD
ROOT
HETATM    1  C   UNL     1     -12.222  13.925  66.186  1.00  0.00    -0.464 C  
HETATM    2  C   UNL     1     -12.105  12.597  65.460  1.00  0.00    -0.515 C  
HETATM    3  C   UNL     1     -11.229  11.730  66.361  1.00  0.00    -0.323 C  
HETATM    4  O   UNL     1      -9.866  11.784  65.940  1.00  0.00    -0.226 OA 
HETATM    5  C   UNL     1     -11.341  12.314  67.785  1.00  0.00    -0.362 C  
HETATM    6  C   UNL     1     -10.024  16.459  67.229  1.00  0.00    -0.258 C  
HETATM    7  C   UNL     1     -12.220  13.581  67.663  1.00  0.00    -0.215 C  
HETATM    8  H   UNL     1      -9.321  11.245  66.500  1.00  0.00     0.000 HD 
HETATM    9  C   UNL     1     -11.613  14.819  68.293  1.00  0.00    -0.348 C  
HETATM   10  O   UNL     1     -11.085  14.757  65.945  1.00  0.00    -0.329 OA 
HETATM   11  C   UNL     1     -10.845  15.402  67.148  1.00  0.00    -0.321 C  
ENDROOT
BRANCH   5  12
HETATM   12  C   UNL     1     -11.980  11.343  68.756  1.00  0.00    -0.353 C  
HETATM   13  C   UNL     1     -11.654  11.274  70.057  1.00  0.00    -0.404 C  
BRANCH  13  14
HETATM   14  C   UNL     1     -12.369  10.419  71.065  1.00  0.00    -0.387 C  
HETATM   15  O   UNL     1     -13.534   9.896  70.442  1.00  0.00    -0.586 OA 
HETATM   16  H   UNL     1     -13.986   9.356  71.079  1.00  0.00     0.000 HD 
BRANCH  14  17
HETATM   17  C   UNL     1     -11.502   9.248  71.542  1.00  0.00    -0.454 C  
BRANCH  17  18
HETATM   18  C   UNL     1     -12.327   8.096  72.123  1.00  0.00    -0.383 C  
BRANCH  18  19
HETATM   19  C   UNL     1     -12.068   6.784  71.382  1.00  0.00    -0.415 C  
BRANCH  19  20
HETATM   20  C   UNL     1     -10.815   6.889  70.513  1.00  0.00    -0.289 C  
HETATM   21  C   UNL     1     -11.043   6.302  69.130  1.00  0.00    -0.457 C  
ENDBRANCH  19  20
ENDBRANCH  18  19
ENDBRANCH  17  18
ENDBRANCH  14  17
ENDBRANCH  13  14
ENDBRANCH   5  12
BRANCH   6  22
HETATM   22  C   UNL     1      -9.305  17.066  66.059  1.00  0.00    -0.187 C  
BRANCH  22  23
HETATM   23  C   UNL     1      -7.834  17.330  66.375  1.00  0.00    -0.345 C  
BRANCH  23  24
HETATM   24  C   UNL     1      -7.188  16.094  66.995  1.00  0.00    -0.256 C  
HETATM   25  C   UNL     1      -6.358  16.431  68.207  1.00  0.00    -0.127 C  
HETATM   26  O   UNL     1      -5.151  16.252  68.275  1.00  0.00    -0.094 OA 
HETATM   27  O   UNL     1      -7.077  16.916  69.242  1.00  0.00    -0.237 OA 
ENDBRANCH  23  24
ENDBRANCH  22  23
ENDBRANCH   6  22
TORSDOF 9
ENDMDL
MODEL       58
REMARK 921   NORMALIZED FREE ENERGY PREDICTED BY IDOCK:   -5.36 KCAL/MOL
REMARK 922        TOTAL FREE ENERGY PREDICTED BY IDOCK:   -9.33 KCAL/MOL
REMARK 923 INTER-LIGAND FREE ENERGY PREDICTED BY IDOCK:   -8.41 KCAL/MOL
REMARK 924 INTRA-LIGAND FREE ENERGY PREDICTED BY IDOCK:   -0.92 KCAL/MOL
REMARK 927      BINDING AFFINITY PREDICTED BY RF-SCORE:    0.00 PKD
ROOT
HETATM    1  C   UNL     1     -10.216   9.603  70.381  1.00  0.00    -0.288 C  
HETATM    2  C   UNL     1     -10.239  10.840  69.501  1.00  0.00    -0.146 C  
HETATM    3  C   UNL     1     -11.716  11.204  69.368  1.00  0.00    -0.332 C  
HETATM    4  O   UNL     1     -12.261  10.659  68.167  1.00  0.00    -0.719 OA 
HETATM    5  C   UNL     1     -12.438  10.580  70.581  1.00  0.00    -0.456 C  
HETATM    6  C   UNL     1     -11.460   6.323  70.193  1.00  0.00    -0.452 C  
HETATM    7  C   UNL     1     -11.365   9.777  71.355  1.00  0.00    -0.407 C  
HETATM    8  H   UNL     1     -13.180  10.885  68.084  1.00  0.00     0.000 HD 
HETATM    9  C   UNL     1     -11.762   8.347  71.662  1.00  0.00    -0.354 C  
HETATM   10  O   UNL     1     -10.480   8.418  69.626  1.00  0.00    -0.216 OA 
HETATM   11  C   UNL     1     -11.248   7.620  70.459  1.00  0.00    -0.261 C  
ENDROOT
BRANCH   5  12
HETATM   12  C   UNL     1     -13.044  11.627  71.491  1.00  0.00    -0.405 C  
HETATM   13  C   UNL     1     -12.826  12.945  71.352  1.00  0.00    -0.377 C  
BRANCH  13  14
HETATM   14  C   UNL     1     -13.523  14.009  72.153  1.00  0.00    -0.475 C  
HETATM   15  O   UNL     1     -12.955  14.012  73.456  1.00  0.00    -0.398 OA 
HETATM   16  H   UNL     1     -13.396  14.684  73.962  1.00  0.00     0.000 HD 
BRANCH  14  17
HETATM   17  C   UNL     1     -13.344  15.401  71.538  1.00  0.00    -0.586 C  
BRANCH  17  18
HETATM   18  C   UNL     1     -12.489  15.385  70.268  1.00  0.00    -0.413 C  
BRANCH  18  19
HETATM   19  C   UNL     1     -11.289  16.327  70.380  1.00  0.00    -0.313 C  
BRANCH  19  20
HETATM   20  C   UNL     1     -10.653  16.560  69.010  1.00  0.00    -0.324 C  
HETATM   21  C   UNL     1     -10.143  17.984  68.865  1.00  0.00    -0.352 C  
ENDBRANCH  19  20
ENDBRANCH  18  19
ENDBRANCH  17  18
ENDBRANCH  14  17
ENDBRANCH  13  14
ENDBRANCH   5  12
BRANCH   6  22
HETATM   22  C   UNL     1     -10.889   5.595  69.010  1.00  0.00    -0.251 C  
BRANCH  22  23
HETATM   23  C   UNL     1      -9.619   4.829  69.377  1.00  0.00    -0.249 C  
BRANCH  23  24
HETATM   24  C   UNL     1      -9.424   3.636  68.447  1.00  0.00    -0.214 C  
HETATM   25  C   UNL     1      -9.016   4.055  67.058  1.00  0.00    -0.132 C  
HETATM   26  O   UNL     1      -9.691   3.850  66.060  1.00  0.00    -0.191 OA 
HETATM   27  O   UNL     1      -7.804   4.650  67.002  1.00  0.00    -0.096 OA 
ENDBRANCH  23  24
ENDBRANCH  22  23
ENDBRANCH   6  22
TORSDOF 9
ENDMDL
MODEL       59
REMARK 921   NORMALIZED FREE ENERGY PREDICTED BY IDOCK:   -5.35 KCAL/MOL
REMARK 922        TOTAL FREE ENERGY PREDICTED BY IDOCK:   -9.32 KCAL/MOL
REMARK 923 INTER-LIGAND FREE ENERGY PREDICTED BY IDOCK:   -8.03 KCAL/MOL
REMARK 924 INTRA-LIGAND FREE ENERGY PREDICTED BY IDOCK:   -1.29 KCAL/MOL
REMARK 927      BINDING AFFINITY PREDICTED BY RF-SCORE:    0.00 PKD
ROOT
HETATM    1  C   UNL     1     -11.571  11.626  70.325  1.00  0.00    -0.163 C  
HETATM    2  C   UNL     1     -12.710  11.375  71.298  1.00  0.00    -0.498 C  
HETATM    3  C   UNL     1     -13.044   9.893  71.142  1.00  0.00    -0.370 C  
HETATM    4  O   UNL     1     -14.128   9.714  70.231  1.00  0.00    -0.071 OA 
HETATM    5  C   UNL     1     -11.784   9.212  70.569  1.00  0.00    -0.193 C  
HETATM    6  C   UNL     1     -11.102  11.432  66.849  1.00  0.00    -0.356 C  
HETATM    7  C   UNL     1     -10.761  10.343  70.312  1.00  0.00    -0.249 C  
HETATM    8  H   UNL     1     -14.336   8.792  70.135  1.00  0.00     0.000 HD 
HETATM    9  C   UNL     1     -10.167  10.339  68.917  1.00  0.00    -0.220 C  
HETATM   10  O   UNL     1     -12.053  11.833  68.995  1.00  0.00    -0.305 OA 
HETATM   11  C   UNL     1     -11.125  11.215  68.172  1.00  0.00    -0.264 C  
ENDROOT
BRANCH   5  12
HETATM   12  C   UNL     1     -11.191   8.198  71.525  1.00  0.00    -0.307 C  
HETATM   13  C   UNL     1     -11.925   7.295  72.195  1.00  0.00    -0.307 C  
BRANCH  13  14
HETATM   14  C   UNL     1     -11.349   6.194  73.040  1.00  0.00    -0.112 C  
HETATM   15  O   UNL     1     -12.239   5.087  72.974  1.00  0.00    -0.411 OA 
HETATM   16  H   UNL     1     -11.874   4.391  73.508  1.00  0.00     0.000 HD 
BRANCH  14  17
HETATM   17  C   UNL     1      -9.972   5.745  72.538  1.00  0.00    -0.194 C  
BRANCH  17  18
HETATM   18  C   UNL     1     -10.057   4.783  71.350  1.00  0.00    -0.259 C  
BRANCH  18  19
HETATM   19  C   UNL     1      -9.287   5.309  70.138  1.00  0.00    -0.202 C  
BRANCH  19  20
HETATM   20  C   UNL     1     -10.023   4.974  68.841  1.00  0.00    -0.236 C  
HETATM   21  C   UNL     1     -10.840   6.154  68.341  1.00  0.00    -0.382 C  
ENDBRANCH  19  20
ENDBRANCH  18  19
ENDBRANCH  17  18
ENDBRANCH  14  17
ENDBRANCH  13  14
ENDBRANCH   5  12
BRANCH   6  22
HETATM   22  C   UNL     1     -12.035  12.359  66.125  1.00  0.00    -0.397 C  
BRANCH  22  23
HETATM   23  C   UNL     1     -11.523  13.798  66.136  1.00  0.00    -0.350 C  
BRANCH  23  24
HETATM   24  C   UNL     1     -11.181  14.257  64.722  1.00  0.00    -0.387 C  
HETATM   25  C   UNL     1     -11.420  15.732  64.526  1.00  0.00    -0.289 C  
HETATM   26  O   UNL     1     -12.236  16.190  63.741  1.00  0.00    -0.934 OA 
HETATM   27  O   UNL     1     -10.614  16.519  65.274  1.00  0.00    -0.575 OA 
ENDBRANCH  23  24
ENDBRANCH  22  23
ENDBRANCH   6  22
TORSDOF 9
ENDMDL
MODEL       60
REMARK 921   NORMALIZED FREE ENERGY PREDICTED BY IDOCK:   -5.33 KCAL/MOL
REMARK 922        TOTAL FREE ENERGY PREDICTED BY IDOCK:   -9.29 KCAL/MOL
REMARK 923 INTER-LIGAND FREE ENERGY PREDICTED BY IDOCK:   -8.23 KCAL/MOL
REMARK 924 INTRA-LIGAND FREE ENERGY PREDICTED BY IDOCK:   -1.06 KCAL/MOL
REMARK 927      BINDING AFFINITY PREDICTED BY RF-SCORE:    0.00 PKD
ROOT
HETATM    1  C   UNL     1     -11.159   9.671  69.360  1.00  0.00    -0.139 C  
HETATM    2  C   UNL     1      -9.800   9.038  69.119  1.00  0.00    -0.175 C  
HETATM    3  C   UNL     1      -9.118   9.034  70.485  1.00  0.00    -0.221 C  
HETATM    4  O   UNL     1      -8.272  10.174  70.627  1.00  0.00    -0.369 OA 
HETATM    5  C   UNL     1     -10.240   9.101  71.542  1.00  0.00    -0.403 C  
HETATM    6  C   UNL     1     -12.358  12.785  70.459  1.00  0.00    -0.355 C  
HETATM    7  C   UNL     1     -11.565   9.239  70.756  1.00  0.00    -0.345 C  
HETATM    8  H   UNL     1      -7.847  10.172  71.477  1.00  0.00     0.000 HD 
HETATM    9  C   UNL     1     -12.444  10.384  71.217  1.00  0.00    -0.521 C  
HETATM   10  O   UNL     1     -11.079  11.098  69.368  1.00  0.00    -0.229 OA 
HETATM   11  C   UNL     1     -11.967  11.507  70.350  1.00  0.00    -0.368 C  
ENDROOT
BRANCH   5  12
HETATM   12  C   UNL     1     -10.289   7.861  72.409  1.00  0.00    -0.333 C  
HETATM   13  C   UNL     1     -11.129   6.836  72.189  1.00  0.00    -0.284 C  
BRANCH  13  14
HETATM   14  C   UNL     1     -11.102   5.540  72.948  1.00  0.00    -0.299 C  
HETATM   15  O   UNL     1     -12.434   5.047  73.013  1.00  0.00    -0.342 OA 
HETATM   16  H   UNL     1     -12.416   4.228  73.493  1.00  0.00     0.000 HD 
BRANCH  14  17
HETATM   17  C   UNL     1     -10.225   4.489  72.259  1.00  0.00    -0.257 C  
BRANCH  17  18
HETATM   18  C   UNL     1     -10.031   4.762  70.766  1.00  0.00    -0.291 C  
BRANCH  18  19
HETATM   19  C   UNL     1      -9.539   3.521  70.020  1.00  0.00    -0.226 C  
BRANCH  19  20
HETATM   20  C   UNL     1      -8.924   3.905  68.674  1.00  0.00    -0.170 C  
HETATM   21  C   UNL     1      -9.057   5.395  68.404  1.00  0.00    -0.119 C  
ENDBRANCH  19  20
ENDBRANCH  18  19
ENDBRANCH  17  18
ENDBRANCH  14  17
ENDBRANCH  13  14
ENDBRANCH   5  12
BRANCH   6  22
HETATM   22  C   UNL     1     -11.913  13.889  69.544  1.00  0.00    -0.396 C  
BRANCH  22  23
HETATM   23  C   UNL     1     -11.758  15.213  70.289  1.00  0.00    -0.338 C  
BRANCH  23  24
HETATM   24  C   UNL     1     -13.047  15.572  71.021  1.00  0.00    -0.551 C  
HETATM   25  C   UNL     1     -12.886  15.529  72.519  1.00  0.00    -0.420 C  
HETATM   26  O   UNL     1     -13.494  14.759  73.246  1.00  0.00    -0.561 OA 
HETATM   27  O   UNL     1     -12.028  16.455  73.001  1.00  0.00    -0.523 OA 
ENDBRANCH  23  24
ENDBRANCH  22  23
ENDBRANCH   6  22
TORSDOF 9
ENDMDL
MODEL       61
REMARK 921   NORMALIZED FREE ENERGY PREDICTED BY IDOCK:   -5.33 KCAL/MOL
REMARK 922        TOTAL FREE ENERGY PREDICTED BY IDOCK:   -9.29 KCAL/MOL
REMARK 923 INTER-LIGAND FREE ENERGY PREDICTED BY IDOCK:   -8.02 KCAL/MOL
REMARK 924 INTRA-LIGAND FREE ENERGY PREDICTED BY IDOCK:   -1.27 KCAL/MOL
REMARK 927      BINDING AFFINITY PREDICTED BY RF-SCORE:    0.00 PKD
ROOT
HETATM    1  C   UNL     1     -10.424   8.181  67.252  1.00  0.00    -0.309 C  
HETATM    2  C   UNL     1      -9.192   7.333  66.992  1.00  0.00    -0.170 C  
HETATM    3  C   UNL     1      -8.133   7.868  67.952  1.00  0.00    -0.129 C  
HETATM    4  O   UNL     1      -7.296   8.821  67.297  1.00  0.00    -0.080 OA 
HETATM    5  C   UNL     1      -8.889   8.565  69.103  1.00  0.00    -0.142 C  
HETATM    6  C   UNL     1     -11.277  11.579  66.996  1.00  0.00    -0.365 C  
HETATM    7  C   UNL     1     -10.390   8.500  68.735  1.00  0.00    -0.233 C  
HETATM    8  H   UNL     1      -6.637   9.154  67.895  1.00  0.00     0.000 HD 
HETATM    9  C   UNL     1     -11.104   9.835  68.805  1.00  0.00    -0.140 C  
HETATM   10  O   UNL     1     -10.362   9.426  66.552  1.00  0.00    -0.251 OA 
HETATM   11  C   UNL     1     -10.921  10.356  67.414  1.00  0.00    -0.270 C  
ENDROOT
BRANCH   5  12
HETATM   12  C   UNL     1      -8.662   7.884  70.436  1.00  0.00    -0.137 C  
HETATM   13  C   UNL     1      -8.951   8.453  71.618  1.00  0.00    -0.261 C  
BRANCH  13  14
HETATM   14  C   UNL     1      -8.865   7.748  72.942  1.00  0.00    -0.178 C  
HETATM   15  O   UNL     1      -8.291   8.651  73.877  1.00  0.00    -0.349 OA 
HETATM   16  H   UNL     1      -8.237   8.205  74.714  1.00  0.00     0.000 HD 
BRANCH  14  17
HETATM   17  C   UNL     1     -10.245   7.322  73.456  1.00  0.00    -0.404 C  
BRANCH  17  18
HETATM   18  C   UNL     1     -11.395   7.981  72.690  1.00  0.00    -0.469 C  
BRANCH  18  19
HETATM   19  C   UNL     1     -12.113   6.987  71.779  1.00  0.00    -0.371 C  
BRANCH  19  20
HETATM   20  C   UNL     1     -13.556   7.425  71.527  1.00  0.00    -0.454 C  
HETATM   21  C   UNL     1     -13.718   8.928  71.686  1.00  0.00    -0.444 C  
ENDBRANCH  19  20
ENDBRANCH  18  19
ENDBRANCH  17  18
ENDBRANCH  14  17
ENDBRANCH  13  14
ENDBRANCH   5  12
BRANCH   6  22
HETATM   22  C   UNL     1     -11.138  12.066  65.582  1.00  0.00    -0.361 C  
BRANCH  22  23
HETATM   23  C   UNL     1     -12.249  13.047  65.210  1.00  0.00    -0.513 C  
BRANCH  23  24
HETATM   24  C   UNL     1     -11.989  14.414  65.836  1.00  0.00    -0.367 C  
HETATM   25  C   UNL     1     -11.510  15.424  64.825  1.00  0.00    -0.336 C  
HETATM   26  O   UNL     1     -10.413  15.958  64.866  1.00  0.00    -0.542 OA 
HETATM   27  O   UNL     1     -12.426  15.723  63.878  1.00  0.00    -0.744 OA 
ENDBRANCH  23  24
ENDBRANCH  22  23
ENDBRANCH   6  22
TORSDOF 9
ENDMDL
MODEL       62
REMARK 921   NORMALIZED FREE ENERGY PREDICTED BY IDOCK:   -5.33 KCAL/MOL
REMARK 922        TOTAL FREE ENERGY PREDICTED BY IDOCK:   -9.28 KCAL/MOL
REMARK 923 INTER-LIGAND FREE ENERGY PREDICTED BY IDOCK:   -7.99 KCAL/MOL
REMARK 924 INTRA-LIGAND FREE ENERGY PREDICTED BY IDOCK:   -1.29 KCAL/MOL
REMARK 927      BINDING AFFINITY PREDICTED BY RF-SCORE:    0.00 PKD
ROOT
HETATM    1  C   UNL     1      -9.173  14.986  68.897  1.00  0.00    -0.206 C  
HETATM    2  C   UNL     1      -7.661  14.914  69.008  1.00  0.00    -0.151 C  
HETATM    3  C   UNL     1      -7.152  15.067  67.576  1.00  0.00    -0.197 C  
HETATM    4  O   UNL     1      -6.909  13.789  66.989  1.00  0.00    -0.400 OA 
HETATM    5  C   UNL     1      -8.265  15.784  66.784  1.00  0.00    -0.302 C  
HETATM    6  C   UNL     1     -11.703  13.118  67.330  1.00  0.00    -0.419 C  
HETATM    7  C   UNL     1      -9.451  15.953  67.762  1.00  0.00    -0.216 C  
HETATM    8  H   UNL     1      -6.592  13.884  66.099  1.00  0.00     0.000 HD 
HETATM    9  C   UNL     1     -10.777  15.458  67.220  1.00  0.00    -0.307 C  
HETATM   10  O   UNL     1      -9.732  13.724  68.522  1.00  0.00    -0.225 OA 
HETATM   11  C   UNL     1     -10.781  14.030  67.669  1.00  0.00    -0.257 C  
ENDROOT
BRANCH   5  12
HETATM   12  C   UNL     1      -7.827  17.142  66.277  1.00  0.00    -0.351 C  
HETATM   13  C   UNL     1      -7.152  18.030  67.026  1.00  0.00    -0.218 C  
BRANCH  13  14
HETATM   14  C   UNL     1      -6.588  19.322  66.506  1.00  0.00    -0.188 C  
HETATM   15  O   UNL     1      -6.871  19.389  65.115  1.00  0.00    -0.409 OA 
HETATM   16  H   UNL     1      -6.514  20.206  64.786  1.00  0.00     0.000 HD 
BRANCH  14  17
HETATM   17  C   UNL     1      -7.216  20.541  67.192  1.00  0.00    -0.364 C  
BRANCH  17  18
HETATM   18  C   UNL     1      -8.699  20.714  66.855  1.00  0.00    -0.217 C  
BRANCH  18  19
HETATM   19  C   UNL     1      -9.600  20.147  67.952  1.00  0.00    -0.468 C  
BRANCH  19  20
HETATM   20  C   UNL     1     -10.692  19.261  67.353  1.00  0.00    -0.594 C  
HETATM   21  C   UNL     1     -10.769  19.411  65.843  1.00  0.00    -0.501 C  
ENDBRANCH  19  20
ENDBRANCH  18  19
ENDBRANCH  17  18
ENDBRANCH  14  17
ENDBRANCH  13  14
ENDBRANCH   5  12
BRANCH   6  22
HETATM   22  C   UNL     1     -11.723  11.704  67.836  1.00  0.00    -0.329 C  
BRANCH  22  23
HETATM   23  C   UNL     1     -11.881  11.649  69.355  1.00  0.00    -0.408 C  
BRANCH  23  24
HETATM   24  C   UNL     1     -12.315  10.256  69.800  1.00  0.00    -0.030 C  
HETATM   25  C   UNL     1     -12.306  10.106  71.299  1.00  0.00    -0.400 C  
HETATM   26  O   UNL     1     -11.584   9.325  71.900  1.00  0.00    -0.372 OA 
HETATM   27  O   UNL     1     -13.206  10.891  71.931  1.00  0.00    -0.467 OA 
ENDBRANCH  23  24
ENDBRANCH  22  23
ENDBRANCH   6  22
TORSDOF 9
ENDMDL
MODEL       63
REMARK 921   NORMALIZED FREE ENERGY PREDICTED BY IDOCK:   -5.31 KCAL/MOL
REMARK 922        TOTAL FREE ENERGY PREDICTED BY IDOCK:   -9.25 KCAL/MOL
REMARK 923 INTER-LIGAND FREE ENERGY PREDICTED BY IDOCK:   -8.00 KCAL/MOL
REMARK 924 INTRA-LIGAND FREE ENERGY PREDICTED BY IDOCK:   -1.25 KCAL/MOL
REMARK 927      BINDING AFFINITY PREDICTED BY RF-SCORE:    0.00 PKD
ROOT
HETATM    1  C   UNL     1     -12.062  13.850  67.169  1.00  0.00    -0.387 C  
HETATM    2  C   UNL     1     -12.574  13.674  65.750  1.00  0.00    -0.511 C  
HETATM    3  C   UNL     1     -11.335  13.350  64.919  1.00  0.00    -0.328 C  
HETATM    4  O   UNL     1     -10.816  14.531  64.309  1.00  0.00    -0.599 OA 
HETATM    5  C   UNL     1     -10.283  12.782  65.895  1.00  0.00    -0.300 C  
HETATM    6  C   UNL     1      -9.846  16.014  68.825  1.00  0.00    -0.223 C  
HETATM    7  C   UNL     1     -10.909  12.875  67.306  1.00  0.00    -0.277 C  
HETATM    8  H   UNL     1     -10.045  14.329  63.791  1.00  0.00     0.000 HD 
HETATM    9  C   UNL     1     -10.023  13.549  68.335  1.00  0.00    -0.232 C  
HETATM   10  O   UNL     1     -11.532  15.161  67.376  1.00  0.00    -0.332 OA 
HETATM   11  C   UNL     1     -10.433  14.983  68.202  1.00  0.00    -0.245 C  
ENDROOT
BRANCH   5  12
HETATM   12  C   UNL     1      -9.933  11.341  65.588  1.00  0.00    -0.292 C  
HETATM   13  C   UNL     1     -10.365  10.301  66.321  1.00  0.00    -0.256 C  
BRANCH  13  14
HETATM   14  C   UNL     1     -10.147   8.859  65.958  1.00  0.00    -0.028 C  
HETATM   15  O   UNL     1      -9.054   8.802  65.050  1.00  0.00    -0.403 OA 
HETATM   16  H   UNL     1      -8.916   7.891  64.820  1.00  0.00     0.000 HD 
BRANCH  14  17
HETATM   17  C   UNL     1      -9.809   8.003  67.183  1.00  0.00    -0.274 C  
BRANCH  17  18
HETATM   18  C   UNL     1      -9.991   8.756  68.503  1.00  0.00    -0.200 C  
BRANCH  18  19
HETATM   19  C   UNL     1      -9.952   7.812  69.705  1.00  0.00    -0.189 C  
BRANCH  19  20
HETATM   20  C   UNL     1     -10.850   6.598  69.470  1.00  0.00    -0.339 C  
HETATM   21  C   UNL     1     -11.935   6.492  70.529  1.00  0.00    -0.322 C  
ENDBRANCH  19  20
ENDBRANCH  18  19
ENDBRANCH  17  18
ENDBRANCH  14  17
ENDBRANCH  13  14
ENDBRANCH   5  12
BRANCH   6  22
HETATM   22  C   UNL     1     -10.307  17.439  68.726  1.00  0.00    -0.357 C  
BRANCH  22  23
HETATM   23  C   UNL     1      -9.168  18.375  68.323  1.00  0.00    -0.333 C  
BRANCH  23  24
HETATM   24  C   UNL     1      -9.014  18.411  66.806  1.00  0.00    -0.291 C  
HETATM   25  C   UNL     1     -10.343  18.414  66.096  1.00  0.00    -0.407 C  
HETATM   26  O   UNL     1     -10.718  17.522  65.351  1.00  0.00    -0.612 OA 
HETATM   27  O   UNL     1     -11.081  19.523  66.325  1.00  0.00    -0.265 OA 
ENDBRANCH  23  24
ENDBRANCH  22  23
ENDBRANCH   6  22
TORSDOF 9
ENDMDL
MODEL       64
REMARK 921   NORMALIZED FREE ENERGY PREDICTED BY IDOCK:   -5.31 KCAL/MOL
REMARK 922        TOTAL FREE ENERGY PREDICTED BY IDOCK:   -9.25 KCAL/MOL
REMARK 923 INTER-LIGAND FREE ENERGY PREDICTED BY IDOCK:   -8.01 KCAL/MOL
REMARK 924 INTRA-LIGAND FREE ENERGY PREDICTED BY IDOCK:   -1.24 KCAL/MOL
REMARK 927      BINDING AFFINITY PREDICTED BY RF-SCORE:    0.00 PKD
ROOT
HETATM    1  C   UNL     1     -12.225  13.233  66.657  1.00  0.00    -0.298 C  
HETATM    2  C   UNL     1     -12.254  12.894  65.178  1.00  0.00    -0.519 C  
HETATM    3  C   UNL     1     -10.815  12.517  64.830  1.00  0.00    -0.293 C  
HETATM    4  O   UNL     1     -10.117  13.640  64.294  1.00  0.00    -0.738 OA 
HETATM    5  C   UNL     1     -10.139  12.084  66.148  1.00  0.00    -0.252 C  
HETATM    6  C   UNL     1     -10.642  15.619  68.692  1.00  0.00    -0.243 C  
HETATM    7  C   UNL     1     -11.186  12.309  67.264  1.00  0.00    -0.358 C  
HETATM    8  H   UNL     1      -9.222  13.405  64.077  1.00  0.00     0.000 HD 
HETATM    9  C   UNL     1     -10.673  13.113  68.443  1.00  0.00    -0.270 C  
HETATM   10  O   UNL     1     -11.778  14.572  66.880  1.00  0.00    -0.372 OA 
HETATM   11  C   UNL     1     -11.006  14.513  68.029  1.00  0.00    -0.260 C  
ENDROOT
BRANCH   5  12
HETATM   12  C   UNL     1      -9.722  10.628  66.129  1.00  0.00    -0.253 C  
HETATM   13  C   UNL     1     -10.267   9.691  66.922  1.00  0.00    -0.304 C  
BRANCH  13  14
HETATM   14  C   UNL     1      -9.968   8.221  66.825  1.00  0.00    -0.285 C  
HETATM   15  O   UNL     1      -8.581   8.078  66.547  1.00  0.00    -0.128 OA 
HETATM   16  H   UNL     1      -8.393   7.149  66.486  1.00  0.00     0.000 HD 
BRANCH  14  17
HETATM   17  C   UNL     1     -10.284   7.483  68.131  1.00  0.00    -0.228 C  
BRANCH  17  18
HETATM   18  C   UNL     1     -10.979   6.139  67.901  1.00  0.00    -0.399 C  
BRANCH  18  19
HETATM   19  C   UNL     1     -10.707   5.592  66.500  1.00  0.00    -0.309 C  
BRANCH  19  20
HETATM   20  C   UNL     1      -9.897   4.297  66.571  1.00  0.00    -0.238 C  
HETATM   21  C   UNL     1      -8.405   4.566  66.483  1.00  0.00    -0.106 C  
ENDBRANCH  19  20
ENDBRANCH  18  19
ENDBRANCH  17  18
ENDBRANCH  14  17
ENDBRANCH  13  14
ENDBRANCH   5  12
BRANCH   6  22
HETATM   22  C   UNL     1     -11.034  17.013  68.295  1.00  0.00    -0.269 C  
BRANCH  22  23
HETATM   23  C   UNL     1      -9.816  17.859  67.924  1.00  0.00    -0.309 C  
BRANCH  23  24
HETATM   24  C   UNL     1      -9.295  17.473  66.543  1.00  0.00    -0.281 C  
HETATM   25  C   UNL     1     -10.368  17.540  65.488  1.00  0.00    -0.019 C  
HETATM   26  O   UNL     1     -10.762  16.572  64.856  1.00  0.00    -0.702 OA 
HETATM   27  O   UNL     1     -10.838  18.788  65.267  1.00  0.00    -0.576 OA 
ENDBRANCH  23  24
ENDBRANCH  22  23
ENDBRANCH   6  22
TORSDOF 9
ENDMDL
MODEL       65
REMARK 921   NORMALIZED FREE ENERGY PREDICTED BY IDOCK:   -5.29 KCAL/MOL
REMARK 922        TOTAL FREE ENERGY PREDICTED BY IDOCK:   -9.22 KCAL/MOL
REMARK 923 INTER-LIGAND FREE ENERGY PREDICTED BY IDOCK:   -8.29 KCAL/MOL
REMARK 924 INTRA-LIGAND FREE ENERGY PREDICTED BY IDOCK:   -0.93 KCAL/MOL
REMARK 927      BINDING AFFINITY PREDICTED BY RF-SCORE:    0.00 PKD
ROOT
HETATM    1  C   UNL     1     -10.800  14.507  67.407  1.00  0.00    -0.291 C  
HETATM    2  C   UNL     1     -12.039  13.630  67.445  1.00  0.00    -0.375 C  
HETATM    3  C   UNL     1     -12.477  13.500  65.988  1.00  0.00    -0.399 C  
HETATM    4  O   UNL     1     -13.485  14.461  65.679  1.00  0.00    -0.612 OA 
HETATM    5  C   UNL     1     -11.230  13.779  65.123  1.00  0.00    -0.320 C  
HETATM    6  C   UNL     1     -10.038  17.793  66.426  1.00  0.00    -0.357 C  
HETATM    7  C   UNL     1     -10.099  14.162  66.107  1.00  0.00    -0.324 C  
HETATM    8  H   UNL     1     -13.758  14.381  64.772  1.00  0.00     0.000 HD 
HETATM    9  C   UNL     1      -9.385  15.453  65.760  1.00  0.00    -0.265 C  
HETATM   10  O   UNL     1     -11.142  15.894  67.345  1.00  0.00    -0.301 OA 
HETATM   11  C   UNL     1     -10.197  16.465  66.507  1.00  0.00    -0.304 C  
ENDROOT
BRANCH   5  12
HETATM   12  C   UNL     1     -10.811  12.572  64.311  1.00  0.00    -0.400 C  
HETATM   13  C   UNL     1      -9.931  11.655  64.746  1.00  0.00    -0.292 C  
BRANCH  13  14
HETATM   14  C   UNL     1      -9.605  10.381  64.020  1.00  0.00    -0.317 C  
HETATM   15  O   UNL     1      -8.806  10.717  62.893  1.00  0.00    -0.207 OA 
HETATM   16  H   UNL     1      -8.600   9.912  62.434  1.00  0.00     0.000 HD 
BRANCH  14  17
HETATM   17  C   UNL     1      -8.820   9.402  64.900  1.00  0.00    -0.240 C  
BRANCH  17  18
HETATM   18  C   UNL     1      -9.607   8.952  66.134  1.00  0.00    -0.335 C  
BRANCH  18  19
HETATM   19  C   UNL     1      -9.090   7.620  66.681  1.00  0.00    -0.198 C  
BRANCH  19  20
HETATM   20  C   UNL     1      -7.678   7.335  66.168  1.00  0.00    -0.101 C  
HETATM   21  C   UNL     1      -7.525   5.887  65.733  1.00  0.00    -0.081 C  
ENDBRANCH  19  20
ENDBRANCH  18  19
ENDBRANCH  17  18
ENDBRANCH  14  17
ENDBRANCH  13  14
ENDBRANCH   5  12
BRANCH   6  22
HETATM   22  C   UNL     1     -10.824  18.792  67.226  1.00  0.00    -0.408 C  
BRANCH  22  23
HETATM   23  C   UNL     1     -10.029  20.075  67.465  1.00  0.00    -0.565 C  
BRANCH  23  24
HETATM   24  C   UNL     1      -8.702  20.032  66.714  1.00  0.00    -0.408 C  
HETATM   25  C   UNL     1      -7.532  20.375  67.601  1.00  0.00    -0.299 C  
HETATM   26  O   UNL     1      -6.813  21.347  67.431  1.00  0.00    -0.573 OA 
HETATM   27  O   UNL     1      -7.318  19.481  68.590  1.00  0.00    -0.321 OA 
ENDBRANCH  23  24
ENDBRANCH  22  23
ENDBRANCH   6  22
TORSDOF 9
ENDMDL
MODEL       66
REMARK 921   NORMALIZED FREE ENERGY PREDICTED BY IDOCK:   -5.29 KCAL/MOL
REMARK 922        TOTAL FREE ENERGY PREDICTED BY IDOCK:   -9.22 KCAL/MOL
REMARK 923 INTER-LIGAND FREE ENERGY PREDICTED BY IDOCK:   -7.32 KCAL/MOL
REMARK 924 INTRA-LIGAND FREE ENERGY PREDICTED BY IDOCK:   -1.90 KCAL/MOL
REMARK 927      BINDING AFFINITY PREDICTED BY RF-SCORE:    0.00 PKD
ROOT
HETATM    1  C   UNL     1      -8.891  15.566  69.133  1.00  0.00    -0.253 C  
HETATM    2  C   UNL     1      -7.397  15.329  69.013  1.00  0.00    -0.157 C  
HETATM    3  C   UNL     1      -7.124  15.277  67.511  1.00  0.00    -0.196 C  
HETATM    4  O   UNL     1      -7.112  13.927  67.048  1.00  0.00    -0.378 OA 
HETATM    5  C   UNL     1      -8.278  16.037  66.824  1.00  0.00    -0.307 C  
HETATM    6  C   UNL     1     -11.822  13.861  68.213  1.00  0.00    -0.412 C  
HETATM    7  C   UNL     1      -9.259  16.441  67.950  1.00  0.00    -0.202 C  
HETATM    8  H   UNL     1      -6.942  13.895  66.114  1.00  0.00     0.000 HD 
HETATM    9  C   UNL     1     -10.701  16.054  67.684  1.00  0.00    -0.320 C  
HETATM   10  O   UNL     1      -9.628  14.348  69.001  1.00  0.00    -0.164 OA 
HETATM   11  C   UNL     1     -10.770  14.688  68.293  1.00  0.00    -0.239 C  
ENDROOT
BRANCH   5  12
HETATM   12  C   UNL     1      -7.799  17.277  66.099  1.00  0.00    -0.305 C  
HETATM   13  C   UNL     1      -7.039  18.225  66.674  1.00  0.00    -0.241 C  
BRANCH  13  14
HETATM   14  C   UNL     1      -6.439  19.390  65.939  1.00  0.00    -0.218 C  
HETATM   15  O   UNL     1      -6.538  19.122  64.547  1.00  0.00    -0.410 OA 
HETATM   16  H   UNL     1      -6.158  19.859  64.083  1.00  0.00     0.000 HD 
BRANCH  14  17
HETATM   17  C   UNL     1      -7.176  20.700  66.239  1.00  0.00    -0.166 C  
BRANCH  17  18
HETATM   18  C   UNL     1      -8.297  20.529  67.268  1.00  0.00    -0.355 C  
BRANCH  18  19
HETATM   19  C   UNL     1      -9.658  20.336  66.598  1.00  0.00    -0.522 C  
BRANCH  19  20
HETATM   20  C   UNL     1     -10.652  19.692  67.565  1.00  0.00    -0.577 C  
HETATM   21  C   UNL     1     -10.135  19.715  68.994  1.00  0.00    -0.443 C  
ENDBRANCH  19  20
ENDBRANCH  18  19
ENDBRANCH  17  18
ENDBRANCH  14  17
ENDBRANCH  13  14
ENDBRANCH   5  12
BRANCH   6  22
HETATM   22  C   UNL     1     -11.897  12.517  68.878  1.00  0.00    -0.346 C  
BRANCH  22  23
HETATM   23  C   UNL     1     -11.598  11.383  67.898  1.00  0.00    -0.337 C  
BRANCH  23  24
HETATM   24  C   UNL     1     -10.116  11.023  67.930  1.00  0.00    -0.199 C  
HETATM   25  C   UNL     1      -9.472  11.135  66.572  1.00  0.00    -0.193 C  
HETATM   26  O   UNL     1      -8.987  10.189  65.970  1.00  0.00    -0.145 OA 
HETATM   27  O   UNL     1      -9.439  12.395  66.087  1.00  0.00    -0.238 OA 
ENDBRANCH  23  24
ENDBRANCH  22  23
ENDBRANCH   6  22
TORSDOF 9
ENDMDL
MODEL       67
REMARK 921   NORMALIZED FREE ENERGY PREDICTED BY IDOCK:   -5.28 KCAL/MOL
REMARK 922        TOTAL FREE ENERGY PREDICTED BY IDOCK:   -9.21 KCAL/MOL
REMARK 923 INTER-LIGAND FREE ENERGY PREDICTED BY IDOCK:   -8.44 KCAL/MOL
REMARK 924 INTRA-LIGAND FREE ENERGY PREDICTED BY IDOCK:   -0.78 KCAL/MOL
REMARK 927      BINDING AFFINITY PREDICTED BY RF-SCORE:    0.00 PKD
ROOT
HETATM    1  C   UNL     1     -12.282  13.052  65.638  1.00  0.00    -0.466 C  
HETATM    2  C   UNL     1     -12.250  12.554  64.203  1.00  0.00    -0.552 C  
HETATM    3  C   UNL     1     -10.902  11.850  64.059  1.00  0.00    -0.379 C  
HETATM    4  O   UNL     1      -9.931  12.734  63.499  1.00  0.00    -0.673 OA 
HETATM    5  C   UNL     1     -10.458  11.446  65.480  1.00  0.00    -0.322 C  
HETATM    6  C   UNL     1     -10.409  15.284  67.599  1.00  0.00    -0.250 C  
HETATM    7  C   UNL     1     -11.527  12.012  66.444  1.00  0.00    -0.417 C  
HETATM    8  H   UNL     1      -9.093  12.297  63.409  1.00  0.00     0.000 HD 
HETATM    9  C   UNL     1     -10.960  12.826  67.590  1.00  0.00    -0.274 C  
HETATM   10  O   UNL     1     -11.577  14.287  65.779  1.00  0.00    -0.333 OA 
HETATM   11  C   UNL     1     -10.943  14.206  67.009  1.00  0.00    -0.300 C  
ENDROOT
BRANCH   5  12
HETATM   12  C   UNL     1     -10.366   9.944  65.649  1.00  0.00    -0.115 C  
HETATM   13  C   UNL     1     -10.460   9.324  66.837  1.00  0.00    -0.284 C  
BRANCH  13  14
HETATM   14  C   UNL     1     -10.511   7.833  67.013  1.00  0.00    -0.349 C  
HETATM   15  O   UNL     1      -9.675   7.251  66.022  1.00  0.00    -0.415 OA 
HETATM   16  H   UNL     1      -9.707   6.308  66.133  1.00  0.00     0.000 HD 
BRANCH  14  17
HETATM   17  C   UNL     1     -10.006   7.400  68.394  1.00  0.00    -0.177 C  
BRANCH  17  18
HETATM   18  C   UNL     1      -9.915   8.563  69.385  1.00  0.00    -0.194 C  
BRANCH  18  19
HETATM   19  C   UNL     1      -9.916   8.076  70.834  1.00  0.00    -0.207 C  
BRANCH  19  20
HETATM   20  C   UNL     1     -11.030   8.752  71.633  1.00  0.00    -0.391 C  
HETATM   21  C   UNL     1     -11.314   8.013  72.930  1.00  0.00    -0.364 C  
ENDBRANCH  19  20
ENDBRANCH  18  19
ENDBRANCH  17  18
ENDBRANCH  14  17
ENDBRANCH  13  14
ENDBRANCH   5  12
BRANCH   6  22
HETATM   22  C   UNL     1     -10.451  16.672  67.028  1.00  0.00    -0.283 C  
BRANCH  22  23
HETATM   23  C   UNL     1      -9.355  17.559  67.616  1.00  0.00    -0.244 C  
BRANCH  23  24
HETATM   24  C   UNL     1      -9.642  19.030  67.328  1.00  0.00    -0.363 C  
HETATM   25  C   UNL     1      -8.427  19.759  66.815  1.00  0.00    -0.321 C  
HETATM   26  O   UNL     1      -7.893  20.687  67.404  1.00  0.00    -0.331 OA 
HETATM   27  O   UNL     1      -7.996  19.321  65.612  1.00  0.00    -0.431 OA 
ENDBRANCH  23  24
ENDBRANCH  22  23
ENDBRANCH   6  22
TORSDOF 9
ENDMDL
MODEL       68
REMARK 921   NORMALIZED FREE ENERGY PREDICTED BY IDOCK:   -5.26 KCAL/MOL
REMARK 922        TOTAL FREE ENERGY PREDICTED BY IDOCK:   -9.18 KCAL/MOL
REMARK 923 INTER-LIGAND FREE ENERGY PREDICTED BY IDOCK:   -7.72 KCAL/MOL
REMARK 924 INTRA-LIGAND FREE ENERGY PREDICTED BY IDOCK:   -1.46 KCAL/MOL
REMARK 927      BINDING AFFINITY PREDICTED BY RF-SCORE:    0.00 PKD
ROOT
HETATM    1  C   UNL     1      -9.466   9.430  67.863  1.00  0.00    -0.132 C  
HETATM    2  C   UNL     1     -10.542   9.936  66.919  1.00  0.00    -0.248 C  
HETATM    3  C   UNL     1     -11.217  11.084  67.667  1.00  0.00    -0.305 C  
HETATM    4  O   UNL     1     -12.388  10.625  68.341  1.00  0.00    -0.776 OA 
HETATM    5  C   UNL     1     -10.200  11.591  68.711  1.00  0.00    -0.204 C  
HETATM    6  C   UNL     1      -9.359   7.989  71.064  1.00  0.00    -0.170 C  
HETATM    7  C   UNL     1      -8.973  10.655  68.608  1.00  0.00    -0.170 C  
HETATM    8  H   UNL     1     -12.808  11.339  68.806  1.00  0.00     0.000 HD 
HETATM    9  C   UNL     1      -8.520  10.078  69.935  1.00  0.00    -0.171 C  
HETATM   10  O   UNL     1     -10.002   8.532  68.837  1.00  0.00    -0.179 OA 
HETATM   11  C   UNL     1      -9.315   8.812  70.007  1.00  0.00    -0.168 C  
ENDROOT
BRANCH   5  12
HETATM   12  C   UNL     1      -9.772  13.020  68.449  1.00  0.00    -0.192 C  
HETATM   13  C   UNL     1      -9.497  13.499  67.225  1.00  0.00    -0.230 C  
BRANCH  13  14
HETATM   14  C   UNL     1      -9.206  14.943  66.925  1.00  0.00    -0.246 C  
HETATM   15  O   UNL     1      -7.813  15.060  66.670  1.00  0.00    -0.303 OA 
HETATM   16  H   UNL     1      -7.629  15.972  66.480  1.00  0.00     0.000 HD 
BRANCH  14  17
HETATM   17  C   UNL     1      -9.972  15.439  65.693  1.00  0.00    -0.396 C  
BRANCH  17  18
HETATM   18  C   UNL     1     -10.420  14.300  64.773  1.00  0.00    -0.421 C  
BRANCH  18  19
HETATM   19  C   UNL     1     -11.925  14.342  64.509  1.00  0.00    -0.487 C  
BRANCH  19  20
HETATM   20  C   UNL     1     -12.317  13.324  63.439  1.00  0.00    -0.402 C  
HETATM   21  C   UNL     1     -11.819  11.930  63.785  1.00  0.00    -0.558 C  
ENDBRANCH  19  20
ENDBRANCH  18  19
ENDBRANCH  17  18
ENDBRANCH  14  17
ENDBRANCH  13  14
ENDBRANCH   5  12
BRANCH   6  22
HETATM   22  C   UNL     1     -10.117   6.692  71.099  1.00  0.00    -0.202 C  
BRANCH  22  23
HETATM   23  C   UNL     1     -11.231   6.717  72.144  1.00  0.00    -0.299 C  
BRANCH  23  24
HETATM   24  C   UNL     1     -11.594   8.153  72.509  1.00  0.00    -0.468 C  
HETATM   25  C   UNL     1     -12.773   8.663  71.721  1.00  0.00    -0.359 C  
HETATM   26  O   UNL     1     -12.715   9.601  70.941  1.00  0.00    -0.283 OA 
HETATM   27  O   UNL     1     -13.927   8.011  71.985  1.00  0.00    -0.344 OA 
ENDBRANCH  23  24
ENDBRANCH  22  23
ENDBRANCH   6  22
TORSDOF 9
ENDMDL
MODEL       69
REMARK 921   NORMALIZED FREE ENERGY PREDICTED BY IDOCK:   -5.26 KCAL/MOL
REMARK 922        TOTAL FREE ENERGY PREDICTED BY IDOCK:   -9.17 KCAL/MOL
REMARK 923 INTER-LIGAND FREE ENERGY PREDICTED BY IDOCK:   -8.18 KCAL/MOL
REMARK 924 INTRA-LIGAND FREE ENERGY PREDICTED BY IDOCK:   -1.00 KCAL/MOL
REMARK 927      BINDING AFFINITY PREDICTED BY RF-SCORE:    0.00 PKD
ROOT
HETATM    1  C   UNL     1     -11.417  13.179  67.121  1.00  0.00    -0.334 C  
HETATM    2  C   UNL     1     -10.294  13.177  68.143  1.00  0.00    -0.247 C  
HETATM    3  C   UNL     1      -9.382  14.330  67.731  1.00  0.00    -0.198 C  
HETATM    4  O   UNL     1      -8.301  13.853  66.929  1.00  0.00    -0.378 OA 
HETATM    5  C   UNL     1     -10.242  15.300  66.895  1.00  0.00    -0.268 C  
HETATM    6  C   UNL     1     -11.697  12.739  63.647  1.00  0.00    -0.587 C  
HETATM    7  C   UNL     1     -11.633  14.636  66.760  1.00  0.00    -0.370 C  
HETATM    8  H   UNL     1      -7.733  14.570  66.672  1.00  0.00     0.000 HD 
HETATM    9  C   UNL     1     -12.145  14.554  65.336  1.00  0.00    -0.317 C  
HETATM   10  O   UNL     1     -11.036  12.500  65.922  1.00  0.00    -0.265 OA 
HETATM   11  C   UNL     1     -11.614  13.226  64.893  1.00  0.00    -0.325 C  
ENDROOT
BRANCH   5  12
HETATM   12  C   UNL     1     -10.388  16.655  67.556  1.00  0.00    -0.294 C  
HETATM   13  C   UNL     1     -10.370  17.815  66.880  1.00  0.00    -0.344 C  
BRANCH  13  14
HETATM   14  C   UNL     1     -10.651  19.158  67.493  1.00  0.00    -0.471 C  
HETATM   15  O   UNL     1     -10.279  19.094  68.864  1.00  0.00    -0.503 OA 
HETATM   16  H   UNL     1     -10.456  19.943  69.251  1.00  0.00     0.000 HD 
BRANCH  14  17
HETATM   17  C   UNL     1      -9.846  20.276  66.820  1.00  0.00    -0.586 C  
BRANCH  17  18
HETATM   18  C   UNL     1      -8.417  19.853  66.473  1.00  0.00    -0.379 C  
BRANCH  18  19
HETATM   19  C   UNL     1      -7.380  20.675  67.239  1.00  0.00    -0.394 C  
BRANCH  19  20
HETATM   20  C   UNL     1      -6.439  19.763  68.027  1.00  0.00    -0.276 C  
HETATM   21  C   UNL     1      -6.880  19.624  69.475  1.00  0.00    -0.350 C  
ENDBRANCH  19  20
ENDBRANCH  18  19
ENDBRANCH  17  18
ENDBRANCH  14  17
ENDBRANCH  13  14
ENDBRANCH   5  12
BRANCH   6  22
HETATM   22  C   UNL     1     -11.210  11.380  63.233  1.00  0.00    -0.152 C  
BRANCH  22  23
HETATM   23  C   UNL     1      -9.688  11.342  63.101  1.00  0.00    -0.408 C  
BRANCH  23  24
HETATM   24  C   UNL     1      -9.113  10.156  63.869  1.00  0.00    -0.293 C  
HETATM   25  C   UNL     1      -8.046   9.433  63.088  1.00  0.00    -0.153 C  
HETATM   26  O   UNL     1      -8.141   8.271  62.722  1.00  0.00    -0.160 OA 
HETATM   27  O   UNL     1      -6.941  10.176  62.858  1.00  0.00    -0.126 OA 
ENDBRANCH  23  24
ENDBRANCH  22  23
ENDBRANCH   6  22
TORSDOF 9
ENDMDL
MODEL       70
REMARK 921   NORMALIZED FREE ENERGY PREDICTED BY IDOCK:   -5.24 KCAL/MOL
REMARK 922        TOTAL FREE ENERGY PREDICTED BY IDOCK:   -9.15 KCAL/MOL
REMARK 923 INTER-LIGAND FREE ENERGY PREDICTED BY IDOCK:   -7.87 KCAL/MOL
REMARK 924 INTRA-LIGAND FREE ENERGY PREDICTED BY IDOCK:   -1.28 KCAL/MOL
REMARK 927      BINDING AFFINITY PREDICTED BY RF-SCORE:    0.00 PKD
ROOT
HETATM    1  C   UNL     1     -10.448   9.424  68.866  1.00  0.00    -0.216 C  
HETATM    2  C   UNL     1      -9.083   8.762  68.930  1.00  0.00    -0.141 C  
HETATM    3  C   UNL     1      -8.572   9.043  70.340  1.00  0.00    -0.193 C  
HETATM    4  O   UNL     1      -7.726  10.193  70.348  1.00  0.00    -0.377 OA 
HETATM    5  C   UNL     1      -9.812   9.322  71.215  1.00  0.00    -0.318 C  
HETATM    6  C   UNL     1     -11.707  12.692  69.146  1.00  0.00    -0.375 C  
HETATM    7  C   UNL     1     -11.029   9.288  70.261  1.00  0.00    -0.286 C  
HETATM    8  H   UNL     1      -7.407  10.368  71.226  1.00  0.00     0.000 HD 
HETATM    9  C   UNL     1     -11.934  10.499  70.365  1.00  0.00    -0.425 C  
HETATM   10  O   UNL     1     -10.340  10.823  68.590  1.00  0.00    -0.174 OA 
HETATM   11  C   UNL     1     -11.332  11.421  69.351  1.00  0.00    -0.297 C  
ENDROOT
BRANCH   5  12
HETATM   12  C   UNL     1      -9.992   8.288  72.306  1.00  0.00    -0.366 C  
HETATM   13  C   UNL     1     -10.681   7.147  72.139  1.00  0.00    -0.245 C  
BRANCH  13  14
HETATM   14  C   UNL     1     -10.756   6.045  73.158  1.00  0.00    -0.260 C  
HETATM   15  O   UNL     1     -11.998   5.377  72.983  1.00  0.00    -0.548 OA 
HETATM   16  H   UNL     1     -12.045   4.680  73.627  1.00  0.00     0.000 HD 
BRANCH  14  17
HETATM   17  C   UNL     1      -9.623   5.026  72.987  1.00  0.00    -0.160 C  
BRANCH  17  18
HETATM   18  C   UNL     1     -10.062   3.772  72.227  1.00  0.00    -0.228 C  
BRANCH  18  19
HETATM   19  C   UNL     1      -9.066   3.397  71.129  1.00  0.00    -0.179 C  
BRANCH  19  20
HETATM   20  C   UNL     1      -9.466   4.030  69.795  1.00  0.00    -0.265 C  
HETATM   21  C   UNL     1      -8.497   5.126  69.385  1.00  0.00    -0.090 C  
ENDBRANCH  19  20
ENDBRANCH  18  19
ENDBRANCH  17  18
ENDBRANCH  14  17
ENDBRANCH  13  14
ENDBRANCH   5  12
BRANCH   6  22
HETATM   22  C   UNL     1     -11.132  13.585  68.085  1.00  0.00    -0.283 C  
BRANCH  22  23
HETATM   23  C   UNL     1     -12.062  13.701  66.878  1.00  0.00    -0.431 C  
BRANCH  23  24
HETATM   24  C   UNL     1     -11.861  12.523  65.930  1.00  0.00    -0.489 C  
HETATM   25  C   UNL     1     -12.322  12.832  64.529  1.00  0.00    -0.445 C  
HETATM   26  O   UNL     1     -13.234  12.244  63.968  1.00  0.00    -0.757 OA 
HETATM   27  O   UNL     1     -11.604  13.802  63.920  1.00  0.00    -0.327 OA 
ENDBRANCH  23  24
ENDBRANCH  22  23
ENDBRANCH   6  22
TORSDOF 9
ENDMDL
MODEL       71
REMARK 921   NORMALIZED FREE ENERGY PREDICTED BY IDOCK:   -5.23 KCAL/MOL
REMARK 922        TOTAL FREE ENERGY PREDICTED BY IDOCK:   -9.13 KCAL/MOL
REMARK 923 INTER-LIGAND FREE ENERGY PREDICTED BY IDOCK:   -8.39 KCAL/MOL
REMARK 924 INTRA-LIGAND FREE ENERGY PREDICTED BY IDOCK:   -0.75 KCAL/MOL
REMARK 927      BINDING AFFINITY PREDICTED BY RF-SCORE:    0.00 PKD
ROOT
HETATM    1  C   UNL     1     -11.953  12.727  68.000  1.00  0.00    -0.264 C  
HETATM    2  C   UNL     1     -11.575  13.781  69.026  1.00  0.00    -0.356 C  
HETATM    3  C   UNL     1     -10.299  14.421  68.484  1.00  0.00    -0.248 C  
HETATM    4  O   UNL     1      -9.146  13.814  69.066  1.00  0.00    -0.383 OA 
HETATM    5  C   UNL     1     -10.288  14.170  66.961  1.00  0.00    -0.267 C  
HETATM    6  C   UNL     1     -10.506   9.798  66.708  1.00  0.00    -0.259 C  
HETATM    7  C   UNL     1     -11.529  13.297  66.659  1.00  0.00    -0.384 C  
HETATM    8  H   UNL     1      -8.352  14.213  68.730  1.00  0.00     0.000 HD 
HETATM    9  C   UNL     1     -11.229  12.052  65.848  1.00  0.00    -0.385 C  
HETATM   10  O   UNL     1     -11.216  11.517  68.195  1.00  0.00    -0.229 OA 
HETATM   11  C   UNL     1     -10.946  11.046  66.920  1.00  0.00    -0.249 C  
ENDROOT
BRANCH   5  12
HETATM   12  C   UNL     1     -10.365  15.456  66.166  1.00  0.00    -0.325 C  
HETATM   13  C   UNL     1     -10.366  16.676  66.727  1.00  0.00    -0.295 C  
BRANCH  13  14
HETATM   14  C   UNL     1     -10.303  17.964  65.956  1.00  0.00    -0.318 C  
HETATM   15  O   UNL     1     -11.112  17.815  64.797  1.00  0.00    -0.852 OA 
HETATM   16  H   UNL     1     -11.072  18.629  64.310  1.00  0.00     0.000 HD 
BRANCH  14  17
HETATM   17  C   UNL     1     -10.830  19.149  66.773  1.00  0.00    -0.404 C  
BRANCH  17  18
HETATM   18  C   UNL     1      -9.816  20.289  66.890  1.00  0.00    -0.597 C  
BRANCH  18  19
HETATM   19  C   UNL     1      -8.536  19.840  67.595  1.00  0.00    -0.361 C  
BRANCH  19  20
HETATM   20  C   UNL     1      -7.308  20.492  66.958  1.00  0.00    -0.372 C  
HETATM   21  C   UNL     1      -7.054  19.956  65.559  1.00  0.00    -0.327 C  
ENDBRANCH  19  20
ENDBRANCH  18  19
ENDBRANCH  17  18
ENDBRANCH  14  17
ENDBRANCH  13  14
ENDBRANCH   5  12
BRANCH   6  22
HETATM   22  C   UNL     1     -10.282   8.783  67.792  1.00  0.00    -0.285 C  
BRANCH  22  23
HETATM   23  C   UNL     1     -10.385   7.355  67.259  1.00  0.00    -0.356 C  
BRANCH  23  24
HETATM   24  C   UNL     1     -10.951   6.423  68.326  1.00  0.00    -0.396 C  
HETATM   25  C   UNL     1      -9.875   5.628  69.020  1.00  0.00    -0.158 C  
HETATM   26  O   UNL     1      -9.793   4.410  68.975  1.00  0.00    -0.173 OA 
HETATM   27  O   UNL     1      -9.018   6.384  69.740  1.00  0.00    -0.140 OA 
ENDBRANCH  23  24
ENDBRANCH  22  23
ENDBRANCH   6  22
TORSDOF 9
ENDMDL
MODEL       72
REMARK 921   NORMALIZED FREE ENERGY PREDICTED BY IDOCK:   -5.22 KCAL/MOL
REMARK 922        TOTAL FREE ENERGY PREDICTED BY IDOCK:   -9.12 KCAL/MOL
REMARK 923 INTER-LIGAND FREE ENERGY PREDICTED BY IDOCK:   -7.83 KCAL/MOL
REMARK 924 INTRA-LIGAND FREE ENERGY PREDICTED BY IDOCK:   -1.29 KCAL/MOL
REMARK 927      BINDING AFFINITY PREDICTED BY RF-SCORE:    0.00 PKD
ROOT
HETATM    1  C   UNL     1     -10.626  13.870  68.735  1.00  0.00    -0.246 C  
HETATM    2  C   UNL     1     -11.665  12.912  69.290  1.00  0.00    -0.378 C  
HETATM    3  C   UNL     1     -11.335  11.561  68.660  1.00  0.00    -0.269 C  
HETATM    4  O   UNL     1     -12.132  11.341  67.497  1.00  0.00    -0.530 OA 
HETATM    5  C   UNL     1      -9.848  11.614  68.251  1.00  0.00    -0.199 C  
HETATM    6  C   UNL     1      -9.712  15.077  65.565  1.00  0.00    -0.294 C  
HETATM    7  C   UNL     1      -9.362  13.047  68.573  1.00  0.00    -0.078 C  
HETATM    8  H   UNL     1     -11.927  10.501  67.104  1.00  0.00     0.000 HD 
HETATM    9  C   UNL     1      -8.660  13.738  67.421  1.00  0.00    -0.208 C  
HETATM   10  O   UNL     1     -10.989  14.343  67.436  1.00  0.00    -0.286 OA 
HETATM   11  C   UNL     1      -9.799  14.420  66.731  1.00  0.00    -0.264 C  
ENDROOT
BRANCH   5  12
HETATM   12  C   UNL     1      -9.007  10.610  69.011  1.00  0.00    -0.165 C  
HETATM   13  C   UNL     1      -9.499   9.800  69.963  1.00  0.00    -0.278 C  
BRANCH  13  14
HETATM   14  C   UNL     1      -8.718   8.703  70.630  1.00  0.00    -0.165 C  
HETATM   15  O   UNL     1      -7.753   9.313  71.478  1.00  0.00    -0.340 OA 
HETATM   16  H   UNL     1      -7.260   8.620  71.899  1.00  0.00     0.000 HD 
BRANCH  14  17
HETATM   17  C   UNL     1      -9.613   7.796  71.482  1.00  0.00    -0.187 C  
BRANCH  17  18
HETATM   18  C   UNL     1     -11.091   7.885  71.092  1.00  0.00    -0.278 C  
BRANCH  18  19
HETATM   19  C   UNL     1     -11.660   6.518  70.711  1.00  0.00    -0.437 C  
BRANCH  19  20
HETATM   20  C   UNL     1     -10.753   5.815  69.701  1.00  0.00    -0.416 C  
HETATM   21  C   UNL     1     -10.704   6.564  68.379  1.00  0.00    -0.339 C  
ENDBRANCH  19  20
ENDBRANCH  18  19
ENDBRANCH  17  18
ENDBRANCH  14  17
ENDBRANCH  13  14
ENDBRANCH   5  12
BRANCH   6  22
HETATM   22  C   UNL     1     -10.853  15.806  64.915  1.00  0.00    -0.433 C  
BRANCH  22  23
HETATM   23  C   UNL     1     -12.034  14.876  64.641  1.00  0.00    -0.407 C  
BRANCH  23  24
HETATM   24  C   UNL     1     -11.601  13.700  63.771  1.00  0.00    -0.205 C  
HETATM   25  C   UNL     1     -11.927  12.371  64.404  1.00  0.00    -0.407 C  
HETATM   26  O   UNL     1     -11.085  11.551  64.735  1.00  0.00    -0.296 OA 
HETATM   27  O   UNL     1     -13.252  12.143  64.538  1.00  0.00    -0.724 OA 
ENDBRANCH  23  24
ENDBRANCH  22  23
ENDBRANCH   6  22
TORSDOF 9
ENDMDL
MODEL       73
REMARK 921   NORMALIZED FREE ENERGY PREDICTED BY IDOCK:   -5.21 KCAL/MOL
REMARK 922        TOTAL FREE ENERGY PREDICTED BY IDOCK:   -9.11 KCAL/MOL
REMARK 923 INTER-LIGAND FREE ENERGY PREDICTED BY IDOCK:   -8.36 KCAL/MOL
REMARK 924 INTRA-LIGAND FREE ENERGY PREDICTED BY IDOCK:   -0.74 KCAL/MOL
REMARK 927      BINDING AFFINITY PREDICTED BY RF-SCORE:    0.00 PKD
ROOT
HETATM    1  C   UNL     1     -10.710  12.468  66.558  1.00  0.00    -0.240 C  
HETATM    2  C   UNL     1      -9.857  11.285  66.981  1.00  0.00    -0.217 C  
HETATM    3  C   UNL     1      -9.755  11.394  68.501  1.00  0.00    -0.197 C  
HETATM    4  O   UNL     1      -8.552  12.064  68.877  1.00  0.00    -0.363 OA 
HETATM    5  C   UNL     1     -10.965  12.229  68.968  1.00  0.00    -0.250 C  
HETATM    6  C   UNL     1     -10.473  15.968  66.732  1.00  0.00    -0.308 C  
HETATM    7  C   UNL     1     -11.705  12.672  67.684  1.00  0.00    -0.420 C  
HETATM    8  H   UNL     1      -8.488  12.132  69.822  1.00  0.00     0.000 HD 
HETATM    9  C   UNL     1     -11.989  14.159  67.613  1.00  0.00    -0.405 C  
HETATM   10  O   UNL     1      -9.935  13.665  66.459  1.00  0.00    -0.272 OA 
HETATM   11  C   UNL     1     -10.763  14.674  66.925  1.00  0.00    -0.294 C  
ENDROOT
BRANCH   5  12
HETATM   12  C   UNL     1     -11.906  11.435  69.849  1.00  0.00    -0.435 C  
HETATM   13  C   UNL     1     -11.494  10.495  70.716  1.00  0.00    -0.376 C  
BRANCH  13  14
HETATM   14  C   UNL     1     -12.391   9.793  71.696  1.00  0.00    -0.408 C  
HETATM   15  O   UNL     1     -13.577   9.421  71.007  1.00  0.00    -0.567 OA 
HETATM   16  H   UNL     1     -14.144   8.977  71.627  1.00  0.00     0.000 HD 
BRANCH  14  17
HETATM   17  C   UNL     1     -11.740   8.529  72.268  1.00  0.00    -0.443 C  
BRANCH  17  18
HETATM   18  C   UNL     1     -11.008   7.705  71.206  1.00  0.00    -0.260 C  
BRANCH  18  19
HETATM   19  C   UNL     1     -10.992   6.216  71.555  1.00  0.00    -0.328 C  
BRANCH  19  20
HETATM   20  C   UNL     1     -11.063   6.013  73.069  1.00  0.00    -0.271 C  
HETATM   21  C   UNL     1     -11.204   4.544  73.430  1.00  0.00    -0.404 C  
ENDBRANCH  19  20
ENDBRANCH  18  19
ENDBRANCH  17  18
ENDBRANCH  14  17
ENDBRANCH  13  14
ENDBRANCH   5  12
BRANCH   6  22
HETATM   22  C   UNL     1      -9.267  16.466  65.989  1.00  0.00    -0.328 C  
BRANCH  22  23
HETATM   23  C   UNL     1      -8.416  17.396  66.852  1.00  0.00    -0.264 C  
BRANCH  23  24
HETATM   24  C   UNL     1      -8.585  18.845  66.408  1.00  0.00    -0.301 C  
HETATM   25  C   UNL     1      -7.275  19.481  66.019  1.00  0.00    -0.288 C  
HETATM   26  O   UNL     1      -6.783  20.435  66.602  1.00  0.00    -0.225 OA 
HETATM   27  O   UNL     1      -6.701  18.924  64.930  1.00  0.00    -0.496 OA 
ENDBRANCH  23  24
ENDBRANCH  22  23
ENDBRANCH   6  22
TORSDOF 9
ENDMDL
MODEL       74
REMARK 921   NORMALIZED FREE ENERGY PREDICTED BY IDOCK:   -5.21 KCAL/MOL
REMARK 922        TOTAL FREE ENERGY PREDICTED BY IDOCK:   -9.10 KCAL/MOL
REMARK 923 INTER-LIGAND FREE ENERGY PREDICTED BY IDOCK:   -7.90 KCAL/MOL
REMARK 924 INTRA-LIGAND FREE ENERGY PREDICTED BY IDOCK:   -1.19 KCAL/MOL
REMARK 927      BINDING AFFINITY PREDICTED BY RF-SCORE:    0.00 PKD
ROOT
HETATM    1  C   UNL     1     -12.422  13.819  65.900  1.00  0.00    -0.468 C  
HETATM    2  C   UNL     1     -12.247  12.904  64.702  1.00  0.00    -0.494 C  
HETATM    3  C   UNL     1     -11.028  12.046  65.034  1.00  0.00    -0.306 C  
HETATM    4  O   UNL     1      -9.848  12.602  64.454  1.00  0.00    -0.545 OA 
HETATM    5  C   UNL     1     -10.887  12.051  66.571  1.00  0.00    -0.314 C  
HETATM    6  C   UNL     1     -10.540  16.325  67.487  1.00  0.00    -0.310 C  
HETATM    7  C   UNL     1     -11.986  13.001  67.101  1.00  0.00    -0.389 C  
HETATM    8  H   UNL     1      -9.090  12.068  64.660  1.00  0.00     0.000 HD 
HETATM    9  C   UNL     1     -11.481  14.060  68.061  1.00  0.00    -0.342 C  
HETATM   10  O   UNL     1     -11.554  14.953  65.826  1.00  0.00    -0.325 OA 
HETATM   11  C   UNL     1     -11.145  15.184  67.130  1.00  0.00    -0.335 C  
ENDROOT
BRANCH   5  12
HETATM   12  C   UNL     1     -11.072  10.673  67.170  1.00  0.00    -0.267 C  
HETATM   13  C   UNL     1     -10.347   9.603  66.807  1.00  0.00    -0.292 C  
BRANCH  13  14
HETATM   14  C   UNL     1     -10.416   8.262  67.482  1.00  0.00    -0.255 C  
HETATM   15  O   UNL     1     -10.545   7.273  66.469  1.00  0.00    -0.505 OA 
HETATM   16  H   UNL     1     -10.589   6.426  66.896  1.00  0.00     0.000 HD 
BRANCH  14  17
HETATM   17  C   UNL     1      -9.154   7.964  68.299  1.00  0.00    -0.134 C  
BRANCH  17  18
HETATM   18  C   UNL     1      -8.789   9.096  69.264  1.00  0.00    -0.144 C  
BRANCH  18  19
HETATM   19  C   UNL     1      -7.318   9.492  69.143  1.00  0.00    -0.072 C  
BRANCH  19  20
HETATM   20  C   UNL     1      -6.777   9.153  67.754  1.00  0.00    -0.065 C  
HETATM   21  C   UNL     1      -6.685  10.389  66.873  1.00  0.00    -0.083 C  
ENDBRANCH  19  20
ENDBRANCH  18  19
ENDBRANCH  17  18
ENDBRANCH  14  17
ENDBRANCH  13  14
ENDBRANCH   5  12
BRANCH   6  22
HETATM   22  C   UNL     1     -10.262  17.466  66.551  1.00  0.00    -0.329 C  
BRANCH  22  23
HETATM   23  C   UNL     1     -10.768  18.794  67.112  1.00  0.00    -0.469 C  
BRANCH  23  24
HETATM   24  C   UNL     1      -9.992  19.177  68.368  1.00  0.00    -0.493 C  
HETATM   25  C   UNL     1      -8.519  19.349  68.100  1.00  0.00    -0.332 C  
HETATM   26  O   UNL     1      -7.651  18.655  68.604  1.00  0.00    -0.300 OA 
HETATM   27  O   UNL     1      -8.233  20.380  67.274  1.00  0.00    -0.333 OA 
ENDBRANCH  23  24
ENDBRANCH  22  23
ENDBRANCH   6  22
TORSDOF 9
ENDMDL
MODEL       75
REMARK 921   NORMALIZED FREE ENERGY PREDICTED BY IDOCK:   -5.19 KCAL/MOL
REMARK 922        TOTAL FREE ENERGY PREDICTED BY IDOCK:   -9.07 KCAL/MOL
REMARK 923 INTER-LIGAND FREE ENERGY PREDICTED BY IDOCK:   -8.14 KCAL/MOL
REMARK 924 INTRA-LIGAND FREE ENERGY PREDICTED BY IDOCK:   -0.93 KCAL/MOL
REMARK 927      BINDING AFFINITY PREDICTED BY RF-SCORE:    0.00 PKD
ROOT
HETATM    1  C   UNL     1     -11.605   9.808  71.493  1.00  0.00    -0.353 C  
HETATM    2  C   UNL     1     -12.812   9.421  72.328  1.00  0.00    -0.452 C  
HETATM    3  C   UNL     1     -13.319   8.119  71.711  1.00  0.00    -0.345 C  
HETATM    4  O   UNL     1     -14.371   8.380  70.782  1.00  0.00    -0.529 OA 
HETATM    5  C   UNL     1     -12.127   7.489  70.961  1.00  0.00    -0.305 C  
HETATM    6  C   UNL     1     -10.994  10.646  68.137  1.00  0.00    -0.321 C  
HETATM    7  C   UNL     1     -10.960   8.498  71.082  1.00  0.00    -0.306 C  
HETATM    8  H   UNL     1     -14.687   7.570  70.399  1.00  0.00     0.000 HD 
HETATM    9  C   UNL     1     -10.304   8.849  69.761  1.00  0.00    -0.213 C  
HETATM   10  O   UNL     1     -11.991  10.481  70.293  1.00  0.00    -0.277 OA 
HETATM   11  C   UNL     1     -11.108  10.033  69.323  1.00  0.00    -0.206 C  
ENDROOT
BRANCH   5  12
HETATM   12  C   UNL     1     -11.713   6.159  71.553  1.00  0.00    -0.264 C  
HETATM   13  C   UNL     1     -10.577   5.978  72.247  1.00  0.00    -0.256 C  
BRANCH  13  14
HETATM   14  C   UNL     1     -10.212   4.707  72.960  1.00  0.00    -0.169 C  
HETATM   15  O   UNL     1     -11.281   4.382  73.839  1.00  0.00    -0.234 OA 
HETATM   16  H   UNL     1     -11.051   3.578  74.290  1.00  0.00     0.000 HD 
BRANCH  14  17
HETATM   17  C   UNL     1     -10.008   3.540  71.987  1.00  0.00    -0.227 C  
BRANCH  17  18
HETATM   18  C   UNL     1      -8.832   3.762  71.032  1.00  0.00    -0.134 C  
BRANCH  18  19
HETATM   19  C   UNL     1      -9.288   3.822  69.574  1.00  0.00    -0.249 C  
BRANCH  19  20
HETATM   20  C   UNL     1      -9.135   2.458  68.901  1.00  0.00    -0.194 C  
HETATM   21  C   UNL     1      -9.042   2.587  67.390  1.00  0.00    -0.201 C  
ENDBRANCH  19  20
ENDBRANCH  18  19
ENDBRANCH  17  18
ENDBRANCH  14  17
ENDBRANCH  13  14
ENDBRANCH   5  12
BRANCH   6  22
HETATM   22  C   UNL     1     -11.768  11.869  67.735  1.00  0.00    -0.362 C  
BRANCH  22  23
HETATM   23  C   UNL     1     -11.249  12.462  66.427  1.00  0.00    -0.365 C  
BRANCH  23  24
HETATM   24  C   UNL     1     -12.237  13.483  65.871  1.00  0.00    -0.507 C  
HETATM   25  C   UNL     1     -12.565  13.232  64.422  1.00  0.00    -0.214 C  
HETATM   26  O   UNL     1     -12.304  14.013  63.520  1.00  0.00    -0.748 OA 
HETATM   27  O   UNL     1     -13.218  12.069  64.205  1.00  0.00    -0.712 OA 
ENDBRANCH  23  24
ENDBRANCH  22  23
ENDBRANCH   6  22
TORSDOF 9
ENDMDL
MODEL       76
REMARK 921   NORMALIZED FREE ENERGY PREDICTED BY IDOCK:   -5.18 KCAL/MOL
REMARK 922        TOTAL FREE ENERGY PREDICTED BY IDOCK:   -9.05 KCAL/MOL
REMARK 923 INTER-LIGAND FREE ENERGY PREDICTED BY IDOCK:   -7.37 KCAL/MOL
REMARK 924 INTRA-LIGAND FREE ENERGY PREDICTED BY IDOCK:   -1.68 KCAL/MOL
REMARK 927      BINDING AFFINITY PREDICTED BY RF-SCORE:    0.00 PKD
ROOT
HETATM    1  C   UNL     1      -8.843   8.622  68.787  1.00  0.00    -0.139 C  
HETATM    2  C   UNL     1      -8.611   7.785  67.542  1.00  0.00    -0.122 C  
HETATM    3  C   UNL     1      -9.633   8.294  66.528  1.00  0.00    -0.244 C  
HETATM    4  O   UNL     1     -10.805   7.479  66.542  1.00  0.00    -0.371 OA 
HETATM    5  C   UNL     1     -10.010   9.727  66.957  1.00  0.00    -0.259 C  
HETATM    6  C   UNL     1     -11.480   9.148  71.048  1.00  0.00    -0.372 C  
HETATM    7  C   UNL     1      -9.258   9.992  68.283  1.00  0.00    -0.129 C  
HETATM    8  H   UNL     1     -11.441   7.795  65.911  1.00  0.00     0.000 HD 
HETATM    9  C   UNL     1     -10.138  10.507  69.404  1.00  0.00    -0.233 C  
HETATM   10  O   UNL     1      -9.928   8.114  69.567  1.00  0.00    -0.179 OA 
HETATM   11  C   UNL     1     -10.577   9.235  70.060  1.00  0.00    -0.228 C  
ENDROOT
BRANCH   5  12
HETATM   12  C   UNL     1      -9.605  10.762  65.928  1.00  0.00    -0.252 C  
HETATM   13  C   UNL     1     -10.239  10.928  64.756  1.00  0.00    -0.398 C  
BRANCH  13  14
HETATM   14  C   UNL     1      -9.944  12.034  63.782  1.00  0.00    -0.343 C  
HETATM   15  O   UNL     1      -9.987  11.482  62.473  1.00  0.00    -0.538 OA 
HETATM   16  H   UNL     1      -9.801  12.182  61.858  1.00  0.00     0.000 HD 
BRANCH  14  17
HETATM   17  C   UNL     1     -10.974  13.166  63.870  1.00  0.00    -0.308 C  
BRANCH  17  18
HETATM   18  C   UNL     1     -12.339  12.690  64.372  1.00  0.00    -0.523 C  
BRANCH  18  19
HETATM   19  C   UNL     1     -12.866  13.571  65.506  1.00  0.00    -0.406 C  
BRANCH  19  20
HETATM   20  C   UNL     1     -11.711  14.163  66.314  1.00  0.00    -0.402 C  
HETATM   21  C   UNL     1     -11.543  13.457  67.648  1.00  0.00    -0.377 C  
ENDBRANCH  19  20
ENDBRANCH  18  19
ENDBRANCH  17  18
ENDBRANCH  14  17
ENDBRANCH  13  14
ENDBRANCH   5  12
BRANCH   6  22
HETATM   22  C   UNL     1     -11.866   7.870  71.734  1.00  0.00    -0.333 C  
BRANCH  22  23
HETATM   23  C   UNL     1     -11.011   7.612  72.973  1.00  0.00    -0.457 C  
BRANCH  23  24
HETATM   24  C   UNL     1     -10.614   6.142  73.056  1.00  0.00    -0.263 C  
HETATM   25  C   UNL     1      -9.745   5.719  71.901  1.00  0.00    -0.159 C  
HETATM   26  O   UNL     1     -10.070   4.877  71.078  1.00  0.00    -0.209 OA 
HETATM   27  O   UNL     1      -8.539   6.329  71.874  1.00  0.00    -0.128 OA 
ENDBRANCH  23  24
ENDBRANCH  22  23
ENDBRANCH   6  22
TORSDOF 9
ENDMDL
MODEL       77
REMARK 921   NORMALIZED FREE ENERGY PREDICTED BY IDOCK:   -5.17 KCAL/MOL
REMARK 922        TOTAL FREE ENERGY PREDICTED BY IDOCK:   -9.04 KCAL/MOL
REMARK 923 INTER-LIGAND FREE ENERGY PREDICTED BY IDOCK:   -8.17 KCAL/MOL
REMARK 924 INTRA-LIGAND FREE ENERGY PREDICTED BY IDOCK:   -0.87 KCAL/MOL
REMARK 927      BINDING AFFINITY PREDICTED BY RF-SCORE:    0.00 PKD
ROOT
HETATM    1  C   UNL     1      -9.771  11.793  66.070  1.00  0.00    -0.232 C  
HETATM    2  C   UNL     1     -10.314  12.598  64.903  1.00  0.00    -0.330 C  
HETATM    3  C   UNL     1     -11.708  13.042  65.342  1.00  0.00    -0.364 C  
HETATM    4  O   UNL     1     -12.701  12.144  64.848  1.00  0.00    -0.508 OA 
HETATM    5  C   UNL     1     -11.718  13.009  66.885  1.00  0.00    -0.441 C  
HETATM    6  C   UNL     1     -10.659   8.845  67.762  1.00  0.00    -0.266 C  
HETATM    7  C   UNL     1     -10.341  12.449  67.314  1.00  0.00    -0.227 C  
HETATM    8  H   UNL     1     -13.568  12.420  65.121  1.00  0.00     0.000 HD 
HETATM    9  C   UNL     1     -10.418  11.296  68.294  1.00  0.00    -0.220 C  
HETATM   10  O   UNL     1     -10.251  10.447  66.047  1.00  0.00    -0.243 OA 
HETATM   11  C   UNL     1     -10.465  10.114  67.376  1.00  0.00    -0.256 C  
ENDROOT
BRANCH   5  12
HETATM   12  C   UNL     1     -11.920  14.382  67.488  1.00  0.00    -0.389 C  
HETATM   13  C   UNL     1     -11.011  14.989  68.270  1.00  0.00    -0.274 C  
BRANCH  13  14
HETATM   14  C   UNL     1     -11.127  16.403  68.765  1.00  0.00    -0.337 C  
HETATM   15  O   UNL     1     -10.999  16.377  70.181  1.00  0.00    -0.349 OA 
HETATM   16  H   UNL     1     -11.072  17.271  70.494  1.00  0.00     0.000 HD 
BRANCH  14  17
HETATM   17  C   UNL     1     -10.030  17.305  68.191  1.00  0.00    -0.303 C  
BRANCH  17  18
HETATM   18  C   UNL     1     -10.036  18.710  68.799  1.00  0.00    -0.398 C  
BRANCH  18  19
HETATM   19  C   UNL     1     -10.289  19.785  67.741  1.00  0.00    -0.573 C  
BRANCH  19  20
HETATM   20  C   UNL     1      -9.697  19.370  66.394  1.00  0.00    -0.460 C  
HETATM   21  C   UNL     1      -8.304  19.943  66.195  1.00  0.00    -0.345 C  
ENDBRANCH  19  20
ENDBRANCH  18  19
ENDBRANCH  17  18
ENDBRANCH  14  17
ENDBRANCH  13  14
ENDBRANCH   5  12
BRANCH   6  22
HETATM   22  C   UNL     1     -10.645   7.665  66.834  1.00  0.00    -0.359 C  
BRANCH  22  23
HETATM   23  C   UNL     1     -11.120   6.391  67.532  1.00  0.00    -0.401 C  
BRANCH  23  24
HETATM   24  C   UNL     1     -10.940   6.508  69.042  1.00  0.00    -0.378 C  
HETATM   25  C   UNL     1      -9.808   5.653  69.550  1.00  0.00    -0.180 C  
HETATM   26  O   UNL     1      -9.954   4.723  70.329  1.00  0.00    -0.222 OA 
HETATM   27  O   UNL     1      -8.593   6.033  69.097  1.00  0.00    -0.116 OA 
ENDBRANCH  23  24
ENDBRANCH  22  23
ENDBRANCH   6  22
TORSDOF 9
ENDMDL
MODEL       78
REMARK 921   NORMALIZED FREE ENERGY PREDICTED BY IDOCK:   -5.16 KCAL/MOL
REMARK 922        TOTAL FREE ENERGY PREDICTED BY IDOCK:   -9.02 KCAL/MOL
REMARK 923 INTER-LIGAND FREE ENERGY PREDICTED BY IDOCK:   -7.49 KCAL/MOL
REMARK 924 INTRA-LIGAND FREE ENERGY PREDICTED BY IDOCK:   -1.53 KCAL/MOL
REMARK 927      BINDING AFFINITY PREDICTED BY RF-SCORE:    0.00 PKD
ROOT
HETATM    1  C   UNL     1      -9.265   9.162  68.120  1.00  0.00    -0.131 C  
HETATM    2  C   UNL     1     -10.384   9.538  67.166  1.00  0.00    -0.320 C  
HETATM    3  C   UNL     1     -10.988  10.815  67.748  1.00  0.00    -0.297 C  
HETATM    4  O   UNL     1     -12.127  10.511  68.552  1.00  0.00    -0.793 OA 
HETATM    5  C   UNL     1      -9.899  11.456  68.634  1.00  0.00    -0.199 C  
HETATM    6  C   UNL     1      -9.000   8.269  71.508  1.00  0.00    -0.223 C  
HETATM    7  C   UNL     1      -8.702  10.478  68.623  1.00  0.00    -0.143 C  
HETATM    8  H   UNL     1     -12.503  11.305  68.914  1.00  0.00     0.000 HD 
HETATM    9  C   UNL     1      -8.184  10.115  70.000  1.00  0.00    -0.060 C  
HETATM   10  O   UNL     1      -9.762   8.455  69.259  1.00  0.00    -0.172 OA 
HETATM   11  C   UNL     1      -9.001   8.903  70.327  1.00  0.00    -0.183 C  
ENDROOT
BRANCH   5  12
HETATM   12  C   UNL     1      -9.457  12.808  68.114  1.00  0.00    -0.219 C  
HETATM   13  C   UNL     1     -10.303  13.721  67.610  1.00  0.00    -0.239 C  
BRANCH  13  14
HETATM   14  C   UNL     1      -9.908  15.117  67.218  1.00  0.00    -0.228 C  
HETATM   15  O   UNL     1     -10.800  15.549  66.199  1.00  0.00    -0.322 OA 
HETATM   16  H   UNL     1     -10.551  16.431  65.951  1.00  0.00     0.000 HD 
BRANCH  14  17
HETATM   17  C   UNL     1     -10.001  16.093  68.396  1.00  0.00    -0.230 C  
BRANCH  17  18
HETATM   18  C   UNL     1     -11.319  15.974  69.164  1.00  0.00    -0.352 C  
BRANCH  18  19
HETATM   19  C   UNL     1     -11.120  15.329  70.536  1.00  0.00    -0.335 C  
BRANCH  19  20
HETATM   20  C   UNL     1     -12.388  14.601  70.983  1.00  0.00    -0.403 C  
HETATM   21  C   UNL     1     -13.486  15.578  71.370  1.00  0.00    -0.583 C  
ENDBRANCH  19  20
ENDBRANCH  18  19
ENDBRANCH  17  18
ENDBRANCH  14  17
ENDBRANCH  13  14
ENDBRANCH   5  12
BRANCH   6  22
HETATM   22  C   UNL     1      -9.782   7.021  71.800  1.00  0.00    -0.165 C  
BRANCH  22  23
HETATM   23  C   UNL     1     -11.031   7.318  72.630  1.00  0.00    -0.341 C  
BRANCH  23  24
HETATM   24  C   UNL     1     -12.256   7.442  71.729  1.00  0.00    -0.359 C  
HETATM   25  C   UNL     1     -12.975   8.753  71.921  1.00  0.00    -0.376 C  
HETATM   26  O   UNL     1     -14.120   8.846  72.336  1.00  0.00    -0.459 OA 
HETATM   27  O   UNL     1     -12.250   9.831  71.551  1.00  0.00    -0.355 OA 
ENDBRANCH  23  24
ENDBRANCH  22  23
ENDBRANCH   6  22
TORSDOF 9
ENDMDL
MODEL       79
REMARK 921   NORMALIZED FREE ENERGY PREDICTED BY IDOCK:   -5.16 KCAL/MOL
REMARK 922        TOTAL FREE ENERGY PREDICTED BY IDOCK:   -9.02 KCAL/MOL
REMARK 923 INTER-LIGAND FREE ENERGY PREDICTED BY IDOCK:   -7.59 KCAL/MOL
REMARK 924 INTRA-LIGAND FREE ENERGY PREDICTED BY IDOCK:   -1.43 KCAL/MOL
REMARK 927      BINDING AFFINITY PREDICTED BY RF-SCORE:    0.00 PKD
ROOT
HETATM    1  C   UNL     1     -12.444  11.410  69.972  1.00  0.00    -0.154 C  
HETATM    2  C   UNL     1     -12.741  12.835  70.404  1.00  0.00     0.003 C  
HETATM    3  C   UNL     1     -11.800  13.704  69.573  1.00  0.00    -0.337 C  
HETATM    4  O   UNL     1     -10.613  14.005  70.307  1.00  0.00    -0.106 OA 
HETATM    5  C   UNL     1     -11.425  12.883  68.321  1.00  0.00    -0.348 C  
HETATM    6  C   UNL     1      -9.673   9.252  70.045  1.00  0.00    -0.234 C  
HETATM    7  C   UNL     1     -12.092  11.498  68.499  1.00  0.00    -0.159 C  
HETATM    8  H   UNL     1     -10.028  14.546  69.791  1.00  0.00     0.000 HD 
HETATM    9  C   UNL     1     -11.150  10.327  68.310  1.00  0.00    -0.311 C  
HETATM   10  O   UNL     1     -11.299  10.884  70.647  1.00  0.00    -0.256 OA 
HETATM   11  C   UNL     1     -10.641  10.113  69.702  1.00  0.00    -0.257 C  
ENDROOT
BRANCH   5  12
HETATM   12  C   UNL     1     -11.920  13.525  67.043  1.00  0.00    -0.440 C  
HETATM   13  C   UNL     1     -11.532  13.133  65.818  1.00  0.00    -0.355 C  
BRANCH  13  14
HETATM   14  C   UNL     1     -12.111  13.661  64.536  1.00  0.00    -0.419 C  
HETATM   15  O   UNL     1     -11.287  14.733  64.097  1.00  0.00    -0.618 OA 
HETATM   16  H   UNL     1     -11.654  15.066  63.286  1.00  0.00     0.000 HD 
BRANCH  14  17
HETATM   17  C   UNL     1     -12.147  12.591  63.439  1.00  0.00    -0.621 C  
BRANCH  17  18
HETATM   18  C   UNL     1     -11.403  11.312  63.831  1.00  0.00    -0.147 C  
BRANCH  18  19
HETATM   19  C   UNL     1     -10.108  11.143  63.036  1.00  0.00    -0.311 C  
BRANCH  19  20
HETATM   20  C   UNL     1      -9.108  10.280  63.806  1.00  0.00    -0.285 C  
HETATM   21  C   UNL     1      -9.322  10.380  65.307  1.00  0.00    -0.263 C  
ENDBRANCH  19  20
ENDBRANCH  18  19
ENDBRANCH  17  18
ENDBRANCH  14  17
ENDBRANCH  13  14
ENDBRANCH   5  12
BRANCH   6  22
HETATM   22  C   UNL     1      -9.214   9.009  71.454  1.00  0.00    -0.293 C  
BRANCH  22  23
HETATM   23  C   UNL     1      -9.551   7.594  71.922  1.00  0.00    -0.191 C  
BRANCH  23  24
HETATM   24  C   UNL     1     -10.662   7.624  72.968  1.00  0.00    -0.449 C  
HETATM   25  C   UNL     1     -12.022   7.822  72.351  1.00  0.00    -0.289 C  
HETATM   26  O   UNL     1     -12.731   8.793  72.566  1.00  0.00    -0.396 OA 
HETATM   27  O   UNL     1     -12.416   6.800  71.560  1.00  0.00    -0.355 OA 
ENDBRANCH  23  24
ENDBRANCH  22  23
ENDBRANCH   6  22
TORSDOF 9
ENDMDL
MODEL       80
REMARK 921   NORMALIZED FREE ENERGY PREDICTED BY IDOCK:   -5.14 KCAL/MOL
REMARK 922        TOTAL FREE ENERGY PREDICTED BY IDOCK:   -9.00 KCAL/MOL
REMARK 923 INTER-LIGAND FREE ENERGY PREDICTED BY IDOCK:   -7.59 KCAL/MOL
REMARK 924 INTRA-LIGAND FREE ENERGY PREDICTED BY IDOCK:   -1.41 KCAL/MOL
REMARK 927      BINDING AFFINITY PREDICTED BY RF-SCORE:    0.00 PKD
ROOT
HETATM    1  C   UNL     1     -11.241  10.339  68.799  1.00  0.00    -0.206 C  
HETATM    2  C   UNL     1     -10.853  11.798  68.964  1.00  0.00    -0.239 C  
HETATM    3  C   UNL     1      -9.522  11.938  68.229  1.00  0.00    -0.197 C  
HETATM    4  O   UNL     1      -8.430  11.814  69.139  1.00  0.00    -0.363 OA 
HETATM    5  C   UNL     1      -9.458  10.788  67.202  1.00  0.00    -0.180 C  
HETATM    6  C   UNL     1      -9.899   7.227  69.722  1.00  0.00    -0.177 C  
HETATM    7  C   UNL     1     -10.730   9.936  67.429  1.00  0.00    -0.323 C  
HETATM    8  H   UNL     1      -7.602  11.902  68.682  1.00  0.00     0.000 HD 
HETATM    9  C   UNL     1     -10.462   8.454  67.595  1.00  0.00    -0.307 C  
HETATM   10  O   UNL     1     -10.580   9.508  69.756  1.00  0.00    -0.212 OA 
HETATM   11  C   UNL     1     -10.280   8.338  69.077  1.00  0.00    -0.217 C  
ENDROOT
BRANCH   5  12
HETATM   12  C   UNL     1      -9.432  11.292  65.775  1.00  0.00    -0.252 C  
HETATM   13  C   UNL     1     -10.460  11.156  64.921  1.00  0.00    -0.372 C  
BRANCH  13  14
HETATM   14  C   UNL     1     -10.510  11.767  63.550  1.00  0.00    -0.449 C  
HETATM   15  O   UNL     1     -10.356  10.719  62.602  1.00  0.00    -0.761 OA 
HETATM   16  H   UNL     1     -10.388  11.105  61.735  1.00  0.00     0.000 HD 
BRANCH  14  17
HETATM   17  C   UNL     1     -11.844  12.474  63.284  1.00  0.00    -0.498 C  
BRANCH  17  18
HETATM   18  C   UNL     1     -12.399  13.181  64.523  1.00  0.00    -0.447 C  
BRANCH  18  19
HETATM   19  C   UNL     1     -12.134  14.687  64.485  1.00  0.00    -0.490 C  
BRANCH  19  20
HETATM   20  C   UNL     1     -10.752  15.008  65.053  1.00  0.00    -0.448 C  
HETATM   21  C   UNL     1     -10.729  14.889  66.568  1.00  0.00    -0.309 C  
ENDBRANCH  19  20
ENDBRANCH  18  19
ENDBRANCH  17  18
ENDBRANCH  14  17
ENDBRANCH  13  14
ENDBRANCH   5  12
BRANCH   6  22
HETATM   22  C   UNL     1      -9.777   7.112  71.214  1.00  0.00    -0.170 C  
BRANCH  22  23
HETATM   23  C   UNL     1     -10.501   5.877  71.747  1.00  0.00    -0.276 C  
BRANCH  23  24
HETATM   24  C   UNL     1      -9.503   4.773  72.083  1.00  0.00    -0.180 C  
HETATM   25  C   UNL     1      -9.754   3.516  71.290  1.00  0.00    -0.166 C  
HETATM   26  O   UNL     1     -10.063   2.446  71.791  1.00  0.00    -0.161 OA 
HETATM   27  O   UNL     1      -9.565   3.664  69.960  1.00  0.00    -0.188 OA 
ENDBRANCH  23  24
ENDBRANCH  22  23
ENDBRANCH   6  22
TORSDOF 9
ENDMDL
MODEL       81
REMARK 921   NORMALIZED FREE ENERGY PREDICTED BY IDOCK:   -5.13 KCAL/MOL
REMARK 922        TOTAL FREE ENERGY PREDICTED BY IDOCK:   -8.98 KCAL/MOL
REMARK 923 INTER-LIGAND FREE ENERGY PREDICTED BY IDOCK:   -8.14 KCAL/MOL
REMARK 924 INTRA-LIGAND FREE ENERGY PREDICTED BY IDOCK:   -0.84 KCAL/MOL
REMARK 927      BINDING AFFINITY PREDICTED BY RF-SCORE:    0.00 PKD
ROOT
HETATM    1  C   UNL     1     -11.906  12.968  66.738  1.00  0.00    -0.388 C  
HETATM    2  C   UNL     1     -11.126  12.096  65.770  1.00  0.00    -0.362 C  
HETATM    3  C   UNL     1     -10.002  11.487  66.605  1.00  0.00    -0.207 C  
HETATM    4  O   UNL     1      -8.805  12.253  66.472  1.00  0.00    -0.289 OA 
HETATM    5  C   UNL     1     -10.468  11.528  68.075  1.00  0.00    -0.214 C  
HETATM    6  C   UNL     1     -11.245  15.795  68.716  1.00  0.00    -0.342 C  
HETATM    7  C   UNL     1     -11.833  12.255  68.075  1.00  0.00    -0.368 C  
HETATM    8  H   UNL     1      -8.105  11.874  66.990  1.00  0.00     0.000 HD 
HETATM    9  C   UNL     1     -11.929  13.396  69.068  1.00  0.00    -0.357 C  
HETATM   10  O   UNL     1     -11.287  14.245  66.909  1.00  0.00    -0.317 OA 
HETATM   11  C   UNL     1     -11.459  14.557  68.248  1.00  0.00    -0.311 C  
ENDROOT
BRANCH   5  12
HETATM   12  C   UNL     1     -10.629  10.143  68.667  1.00  0.00    -0.236 C  
HETATM   13  C   UNL     1     -10.654   9.900  69.987  1.00  0.00    -0.335 C  
BRANCH  13  14
HETATM   14  C   UNL     1     -10.950   8.559  70.597  1.00  0.00    -0.239 C  
HETATM   15  O   UNL     1     -12.347   8.325  70.471  1.00  0.00    -0.479 OA 
HETATM   16  H   UNL     1     -12.534   7.477  70.856  1.00  0.00     0.000 HD 
BRANCH  14  17
HETATM   17  C   UNL     1     -10.199   7.427  69.887  1.00  0.00    -0.212 C  
BRANCH  17  18
HETATM   18  C   UNL     1     -11.137   6.435  69.193  1.00  0.00    -0.428 C  
BRANCH  18  19
HETATM   19  C   UNL     1     -11.041   6.534  67.670  1.00  0.00    -0.380 C  
BRANCH  19  20
HETATM   20  C   UNL     1     -10.368   5.292  67.087  1.00  0.00    -0.268 C  
HETATM   21  C   UNL     1      -9.646   4.493  68.158  1.00  0.00    -0.203 C  
ENDBRANCH  19  20
ENDBRANCH  18  19
ENDBRANCH  17  18
ENDBRANCH  14  17
ENDBRANCH  13  14
ENDBRANCH   5  12
BRANCH   6  22
HETATM   22  C   UNL     1     -10.829  16.963  67.868  1.00  0.00    -0.310 C  
BRANCH  22  23
HETATM   23  C   UNL     1     -10.247  18.095  68.712  1.00  0.00    -0.353 C  
BRANCH  23  24
HETATM   24  C   UNL     1      -8.958  18.621  68.089  1.00  0.00    -0.335 C  
HETATM   25  C   UNL     1      -9.219  19.529  66.915  1.00  0.00    -0.338 C  
HETATM   26  O   UNL     1      -8.864  19.283  65.773  1.00  0.00    -0.395 OA 
HETATM   27  O   UNL     1      -9.855  20.675  67.244  1.00  0.00    -0.471 OA 
ENDBRANCH  23  24
ENDBRANCH  22  23
ENDBRANCH   6  22
TORSDOF 9
ENDMDL
MODEL       82
REMARK 921   NORMALIZED FREE ENERGY PREDICTED BY IDOCK:   -5.10 KCAL/MOL
REMARK 922        TOTAL FREE ENERGY PREDICTED BY IDOCK:   -8.94 KCAL/MOL
REMARK 923 INTER-LIGAND FREE ENERGY PREDICTED BY IDOCK:   -7.81 KCAL/MOL
REMARK 924 INTRA-LIGAND FREE ENERGY PREDICTED BY IDOCK:   -1.12 KCAL/MOL
REMARK 927      BINDING AFFINITY PREDICTED BY RF-SCORE:    0.00 PKD
ROOT
HETATM    1  C   UNL     1     -11.573  13.475  66.298  1.00  0.00    -0.345 C  
HETATM    2  C   UNL     1     -12.671  12.985  65.371  1.00  0.00    -0.369 C  
HETATM    3  C   UNL     1     -12.047  12.995  63.977  1.00  0.00    -0.450 C  
HETATM    4  O   UNL     1     -12.367  14.205  63.292  1.00  0.00    -1.140 OA 
HETATM    5  C   UNL     1     -10.519  12.914  64.175  1.00  0.00    -0.429 C  
HETATM    6  C   UNL     1      -9.690  16.415  66.682  1.00  0.00    -0.272 C  
HETATM    7  C   UNL     1     -10.279  12.953  65.703  1.00  0.00    -0.295 C  
HETATM    8  H   UNL     1     -11.979  14.212  62.425  1.00  0.00     0.000 HD 
HETATM    9  C   UNL     1      -9.266  13.990  66.146  1.00  0.00    -0.062 C  
HETATM   10  O   UNL     1     -11.489  14.902  66.303  1.00  0.00    -0.337 OA 
HETATM   11  C   UNL     1     -10.135  15.186  66.385  1.00  0.00    -0.273 C  
ENDROOT
BRANCH   5  12
HETATM   12  C   UNL     1      -9.930  11.643  63.600  1.00  0.00    -0.406 C  
HETATM   13  C   UNL     1      -9.255  10.742  64.332  1.00  0.00    -0.250 C  
BRANCH  13  14
HETATM   14  C   UNL     1      -8.784   9.412  63.815  1.00  0.00    -0.201 C  
HETATM   15  O   UNL     1      -7.590   9.633  63.077  1.00  0.00    -0.112 OA 
HETATM   16  H   UNL     1      -7.292   8.793  62.750  1.00  0.00     0.000 HD 
BRANCH  14  17
HETATM   17  C   UNL     1      -8.481   8.429  64.951  1.00  0.00    -0.141 C  
BRANCH  17  18
HETATM   18  C   UNL     1      -8.654   9.052  66.339  1.00  0.00    -0.136 C  
BRANCH  18  19
HETATM   19  C   UNL     1      -9.347   8.094  67.308  1.00  0.00    -0.174 C  
BRANCH  19  20
HETATM   20  C   UNL     1     -10.437   7.294  66.595  1.00  0.00    -0.204 C  
HETATM   21  C   UNL     1     -10.699   5.966  67.286  1.00  0.00    -0.380 C  
ENDBRANCH  19  20
ENDBRANCH  18  19
ENDBRANCH  17  18
ENDBRANCH  14  17
ENDBRANCH  13  14
ENDBRANCH   5  12
BRANCH   6  22
HETATM   22  C   UNL     1     -10.577  17.591  66.975  1.00  0.00    -0.245 C  
BRANCH  22  23
HETATM   23  C   UNL     1     -10.511  17.995  68.447  1.00  0.00    -0.326 C  
BRANCH  23  24
HETATM   24  C   UNL     1     -10.041  16.824  69.305  1.00  0.00    -0.240 C  
HETATM   25  C   UNL     1     -11.170  16.191  70.076  1.00  0.00    -0.357 C  
HETATM   26  O   UNL     1     -11.233  16.170  71.296  1.00  0.00    -0.323 OA 
HETATM   27  O   UNL     1     -12.102  15.603  69.294  1.00  0.00    -0.347 OA 
ENDBRANCH  23  24
ENDBRANCH  22  23
ENDBRANCH   6  22
TORSDOF 9
ENDMDL
MODEL       83
REMARK 921   NORMALIZED FREE ENERGY PREDICTED BY IDOCK:   -5.07 KCAL/MOL
REMARK 922        TOTAL FREE ENERGY PREDICTED BY IDOCK:   -8.89 KCAL/MOL
REMARK 923 INTER-LIGAND FREE ENERGY PREDICTED BY IDOCK:   -7.74 KCAL/MOL
REMARK 924 INTRA-LIGAND FREE ENERGY PREDICTED BY IDOCK:   -1.14 KCAL/MOL
REMARK 927      BINDING AFFINITY PREDICTED BY RF-SCORE:    0.00 PKD
ROOT
HETATM    1  C   UNL     1     -10.603  12.717  64.940  1.00  0.00    -0.307 C  
HETATM    2  C   UNL     1     -11.782  13.251  64.145  1.00  0.00    -0.470 C  
HETATM    3  C   UNL     1     -12.320  14.416  64.972  1.00  0.00    -0.396 C  
HETATM    4  O   UNL     1     -13.404  13.989  65.797  1.00  0.00    -0.675 OA 
HETATM    5  C   UNL     1     -11.161  14.897  65.870  1.00  0.00    -0.328 C  
HETATM    6  C   UNL     1     -10.111  11.273  68.104  1.00  0.00    -0.195 C  
HETATM    7  C   UNL     1      -9.983  13.928  65.610  1.00  0.00    -0.298 C  
HETATM    8  H   UNL     1     -13.740  14.713  66.311  1.00  0.00     0.000 HD 
HETATM    9  C   UNL     1      -9.374  13.339  66.866  1.00  0.00    -0.244 C  
HETATM   10  O   UNL     1     -11.029  11.833  65.979  1.00  0.00    -0.291 OA 
HETATM   11  C   UNL     1     -10.186  12.094  67.048  1.00  0.00    -0.207 C  
ENDROOT
BRANCH   5  12
HETATM   12  C   UNL     1     -10.735  16.314  65.550  1.00  0.00    -0.326 C  
HETATM   13  C   UNL     1     -10.726  17.308  66.454  1.00  0.00    -0.072 C  
BRANCH  13  14
HETATM   14  C   UNL     1     -10.178  18.683  66.196  1.00  0.00    -0.416 C  
HETATM   15  O   UNL     1     -11.018  19.311  65.236  1.00  0.00    -0.487 OA 
HETATM   16  H   UNL     1     -10.672  20.180  65.073  1.00  0.00     0.000 HD 
BRANCH  14  17
HETATM   17  C   UNL     1     -10.160  19.541  67.466  1.00  0.00    -0.524 C  
BRANCH  17  18
HETATM   18  C   UNL     1      -9.474  18.846  68.644  1.00  0.00    -0.427 C  
BRANCH  18  19
HETATM   19  C   UNL     1      -7.952  18.848  68.496  1.00  0.00    -0.382 C  
BRANCH  19  20
HETATM   20  C   UNL     1      -7.422  17.424  68.327  1.00  0.00    -0.227 C  
HETATM   21  C   UNL     1      -7.041  17.137  66.884  1.00  0.00    -0.244 C  
ENDBRANCH  19  20
ENDBRANCH  18  19
ENDBRANCH  17  18
ENDBRANCH  14  17
ENDBRANCH  13  14
ENDBRANCH   5  12
BRANCH   6  22
HETATM   22  C   UNL     1     -10.891   9.997  68.243  1.00  0.00    -0.286 C  
BRANCH  22  23
HETATM   23  C   UNL     1     -10.559   9.007  67.128  1.00  0.00    -0.291 C  
BRANCH  23  24
HETATM   24  C   UNL     1      -9.049   8.828  67.001  1.00  0.00    -0.160 C  
HETATM   25  C   UNL     1      -8.631   8.481  65.595  1.00  0.00    -0.177 C  
HETATM   26  O   UNL     1      -8.092   7.429  65.287  1.00  0.00    -0.121 OA 
HETATM   27  O   UNL     1      -8.869   9.462  64.698  1.00  0.00    -0.194 OA 
ENDBRANCH  23  24
ENDBRANCH  22  23
ENDBRANCH   6  22
TORSDOF 9
ENDMDL
MODEL       84
REMARK 921   NORMALIZED FREE ENERGY PREDICTED BY IDOCK:   -5.06 KCAL/MOL
REMARK 922        TOTAL FREE ENERGY PREDICTED BY IDOCK:   -8.87 KCAL/MOL
REMARK 923 INTER-LIGAND FREE ENERGY PREDICTED BY IDOCK:   -8.10 KCAL/MOL
REMARK 924 INTRA-LIGAND FREE ENERGY PREDICTED BY IDOCK:   -0.76 KCAL/MOL
REMARK 927      BINDING AFFINITY PREDICTED BY RF-SCORE:    0.00 PKD
ROOT
HETATM    1  C   UNL     1     -11.163  12.050  65.337  1.00  0.00    -0.322 C  
HETATM    2  C   UNL     1     -10.143  11.012  64.904  1.00  0.00    -0.359 C  
HETATM    3  C   UNL     1      -9.310  10.731  66.152  1.00  0.00    -0.183 C  
HETATM    4  O   UNL     1      -8.122  11.521  66.152  1.00  0.00    -0.351 OA 
HETATM    5  C   UNL     1     -10.180  11.127  67.364  1.00  0.00    -0.221 C  
HETATM    6  C   UNL     1     -11.083  15.342  66.561  1.00  0.00    -0.271 C  
HETATM    7  C   UNL     1     -11.483  11.725  66.783  1.00  0.00    -0.352 C  
HETATM    8  H   UNL     1      -7.603  11.346  66.928  1.00  0.00     0.000 HD 
HETATM    9  C   UNL     1     -11.853  13.079  67.356  1.00  0.00    -0.411 C  
HETATM   10  O   UNL     1     -10.612  13.369  65.314  1.00  0.00    -0.301 OA 
HETATM   11  C   UNL     1     -11.161  14.012  66.412  1.00  0.00    -0.316 C  
ENDROOT
BRANCH   5  12
HETATM   12  C   UNL     1     -10.513   9.941  68.245  1.00  0.00    -0.246 C  
HETATM   13  C   UNL     1     -10.982  10.058  69.498  1.00  0.00    -0.289 C  
BRANCH  13  14
HETATM   14  C   UNL     1     -11.449   8.903  70.339  1.00  0.00    -0.157 C  
HETATM   15  O   UNL     1     -11.058   7.704  69.684  1.00  0.00    -0.405 OA 
HETATM   16  H   UNL     1     -11.353   6.975  70.215  1.00  0.00     0.000 HD 
BRANCH  14  17
HETATM   17  C   UNL     1     -10.823   8.922  71.739  1.00  0.00    -0.436 C  
BRANCH  17  18
HETATM   18  C   UNL     1     -11.343   7.797  72.637  1.00  0.00    -0.449 C  
BRANCH  18  19
HETATM   19  C   UNL     1     -10.237   7.221  73.522  1.00  0.00    -0.404 C  
BRANCH  19  20
HETATM   20  C   UNL     1      -8.912   7.940  73.271  1.00  0.00    -0.326 C  
HETATM   21  C   UNL     1      -8.004   7.879  74.488  1.00  0.00    -0.280 C  
ENDBRANCH  19  20
ENDBRANCH  18  19
ENDBRANCH  17  18
ENDBRANCH  14  17
ENDBRANCH  13  14
ENDBRANCH   5  12
BRANCH   6  22
HETATM   22  C   UNL     1     -10.434  16.269  65.575  1.00  0.00    -0.383 C  
BRANCH  22  23
HETATM   23  C   UNL     1     -10.318  17.690  66.126  1.00  0.00    -0.334 C  
BRANCH  23  24
HETATM   24  C   UNL     1      -9.147  17.794  67.098  1.00  0.00    -0.247 C  
HETATM   25  C   UNL     1      -9.558  18.366  68.430  1.00  0.00    -0.345 C  
HETATM   26  O   UNL     1      -9.135  19.420  68.878  1.00  0.00    -0.370 OA 
HETATM   27  O   UNL     1     -10.417  17.581  69.117  1.00  0.00    -0.347 OA 
ENDBRANCH  23  24
ENDBRANCH  22  23
ENDBRANCH   6  22
TORSDOF 9
ENDMDL
MODEL       85
REMARK 921   NORMALIZED FREE ENERGY PREDICTED BY IDOCK:   -5.03 KCAL/MOL
REMARK 922        TOTAL FREE ENERGY PREDICTED BY IDOCK:   -8.83 KCAL/MOL
REMARK 923 INTER-LIGAND FREE ENERGY PREDICTED BY IDOCK:   -7.70 KCAL/MOL
REMARK 924 INTRA-LIGAND FREE ENERGY PREDICTED BY IDOCK:   -1.13 KCAL/MOL
REMARK 927      BINDING AFFINITY PREDICTED BY RF-SCORE:    0.00 PKD
ROOT
HETATM    1  C   UNL     1     -10.782  15.171  68.375  1.00  0.00    -0.248 C  
HETATM    2  C   UNL     1     -12.055  14.351  68.494  1.00  0.00    -0.278 C  
HETATM    3  C   UNL     1     -12.067  13.457  67.256  1.00  0.00    -0.304 C  
HETATM    4  O   UNL     1     -12.852  14.045  66.219  1.00  0.00    -0.480 OA 
HETATM    5  C   UNL     1     -10.604  13.340  66.778  1.00  0.00    -0.276 C  
HETATM    6  C   UNL     1      -9.473  17.525  66.121  1.00  0.00    -0.182 C  
HETATM    7  C   UNL     1      -9.773  14.257  67.707  1.00  0.00    -0.222 C  
HETATM    8  H   UNL     1     -12.860  13.489  65.449  1.00  0.00     0.000 HD 
HETATM    9  C   UNL     1      -8.874  15.232  66.974  1.00  0.00    -0.261 C  
HETATM   10  O   UNL     1     -10.963  16.298  67.515  1.00  0.00    -0.296 OA 
HETATM   11  C   UNL     1      -9.770  16.421  66.821  1.00  0.00    -0.251 C  
ENDROOT
BRANCH   5  12
HETATM   12  C   UNL     1     -10.082  11.922  66.864  1.00  0.00    -0.229 C  
HETATM   13  C   UNL     1      -9.746  11.324  68.019  1.00  0.00    -0.185 C  
BRANCH  13  14
HETATM   14  C   UNL     1      -9.359   9.877  68.144  1.00  0.00    -0.131 C  
HETATM   15  O   UNL     1      -7.976   9.826  68.469  1.00  0.00    -0.087 OA 
HETATM   16  H   UNL     1      -7.732   8.911  68.548  1.00  0.00     0.000 HD 
BRANCH  14  17
HETATM   17  C   UNL     1     -10.148   9.165  69.248  1.00  0.00    -0.196 C  
BRANCH  17  18
HETATM   18  C   UNL     1     -11.329   9.991  69.763  1.00  0.00    -0.281 C  
BRANCH  18  19
HETATM   19  C   UNL     1     -11.519   9.832  71.271  1.00  0.00    -0.457 C  
BRANCH  19  20
HETATM   20  C   UNL     1     -12.938  10.226  71.684  1.00  0.00    -0.570 C  
HETATM   21  C   UNL     1     -13.131  11.732  71.651  1.00  0.00    -0.443 C  
ENDBRANCH  19  20
ENDBRANCH  18  19
ENDBRANCH  17  18
ENDBRANCH  14  17
ENDBRANCH  13  14
ENDBRANCH   5  12
BRANCH   6  22
HETATM   22  C   UNL     1     -10.359  18.733  66.025  1.00  0.00    -0.467 C  
BRANCH  22  23
HETATM   23  C   UNL     1      -9.629  20.006  66.451  1.00  0.00    -0.536 C  
BRANCH  23  24
HETATM   24  C   UNL     1      -8.120  19.829  66.318  1.00  0.00    -0.356 C  
HETATM   25  C   UNL     1      -7.389  20.176  67.590  1.00  0.00    -0.293 C  
HETATM   26  O   UNL     1      -6.584  21.090  67.683  1.00  0.00    -0.332 OA 
HETATM   27  O   UNL     1      -7.674  19.354  68.624  1.00  0.00    -0.337 OA 
ENDBRANCH  23  24
ENDBRANCH  22  23
ENDBRANCH   6  22
TORSDOF 9
ENDMDL
MODEL       86
REMARK 921   NORMALIZED FREE ENERGY PREDICTED BY IDOCK:   -5.02 KCAL/MOL
REMARK 922        TOTAL FREE ENERGY PREDICTED BY IDOCK:   -8.81 KCAL/MOL
REMARK 923 INTER-LIGAND FREE ENERGY PREDICTED BY IDOCK:   -7.47 KCAL/MOL
REMARK 924 INTRA-LIGAND FREE ENERGY PREDICTED BY IDOCK:   -1.34 KCAL/MOL
REMARK 927      BINDING AFFINITY PREDICTED BY RF-SCORE:    0.00 PKD
ROOT
HETATM    1  C   UNL     1     -11.357  10.358  68.638  1.00  0.00    -0.216 C  
HETATM    2  C   UNL     1     -11.307  11.826  69.025  1.00  0.00    -0.338 C  
HETATM    3  C   UNL     1     -10.175  12.416  68.187  1.00  0.00    -0.225 C  
HETATM    4  O   UNL     1      -8.959  12.446  68.933  1.00  0.00    -0.378 OA 
HETATM    5  C   UNL     1      -9.996  11.490  66.966  1.00  0.00    -0.225 C  
HETATM    6  C   UNL     1      -9.189   7.600  68.823  1.00  0.00    -0.142 C  
HETATM    7  C   UNL     1     -10.979  10.312  67.170  1.00  0.00    -0.233 C  
HETATM    8  H   UNL     1      -8.255  12.814  68.413  1.00  0.00     0.000 HD 
HETATM    9  C   UNL     1     -10.344   8.943  67.032  1.00  0.00    -0.340 C  
HETATM   10  O   UNL     1     -10.380   9.595  69.349  1.00  0.00    -0.191 OA 
HETATM   11  C   UNL     1      -9.917   8.658  68.438  1.00  0.00    -0.184 C  
ENDROOT
BRANCH   5  12
HETATM   12  C   UNL     1     -10.307  12.191  65.661  1.00  0.00    -0.289 C  
HETATM   13  C   UNL     1     -11.555  12.378  65.199  1.00  0.00    -0.408 C  
BRANCH  13  14
HETATM   14  C   UNL     1     -11.895  13.190  63.981  1.00  0.00    -0.453 C  
HETATM   15  O   UNL     1     -12.965  12.537  63.311  1.00  0.00    -0.634 OA 
HETATM   16  H   UNL     1     -13.180  13.050  62.541  1.00  0.00     0.000 HD 
BRANCH  14  17
HETATM   17  C   UNL     1     -12.339  14.611  64.343  1.00  0.00    -0.420 C  
BRANCH  17  18
HETATM   18  C   UNL     1     -11.167  15.587  64.468  1.00  0.00    -0.327 C  
BRANCH  18  19
HETATM   19  C   UNL     1     -10.779  15.825  65.928  1.00  0.00    -0.320 C  
BRANCH  19  20
HETATM   20  C   UNL     1      -9.260  15.801  66.096  1.00  0.00    -0.385 C  
HETATM   21  C   UNL     1      -8.760  17.032  66.835  1.00  0.00    -0.251 C  
ENDBRANCH  19  20
ENDBRANCH  18  19
ENDBRANCH  17  18
ENDBRANCH  14  17
ENDBRANCH  13  14
ENDBRANCH   5  12
BRANCH   6  22
HETATM   22  C   UNL     1      -8.818   7.299  70.247  1.00  0.00    -0.147 C  
BRANCH  22  23
HETATM   23  C   UNL     1      -9.943   6.574  70.983  1.00  0.00    -0.203 C  
BRANCH  23  24
HETATM   24  C   UNL     1     -10.542   7.470  72.064  1.00  0.00    -0.248 C  
HETATM   25  C   UNL     1     -12.030   7.643  71.902  1.00  0.00    -0.295 C  
HETATM   26  O   UNL     1     -12.569   8.716  71.678  1.00  0.00    -0.313 OA 
HETATM   27  O   UNL     1     -12.733   6.502  72.069  1.00  0.00    -0.303 OA 
ENDBRANCH  23  24
ENDBRANCH  22  23
ENDBRANCH   6  22
TORSDOF 9
ENDMDL
MODEL       87
REMARK 921   NORMALIZED FREE ENERGY PREDICTED BY IDOCK:   -5.02 KCAL/MOL
REMARK 922        TOTAL FREE ENERGY PREDICTED BY IDOCK:   -8.80 KCAL/MOL
REMARK 923 INTER-LIGAND FREE ENERGY PREDICTED BY IDOCK:   -7.85 KCAL/MOL
REMARK 924 INTRA-LIGAND FREE ENERGY PREDICTED BY IDOCK:   -0.95 KCAL/MOL
REMARK 927      BINDING AFFINITY PREDICTED BY RF-SCORE:    0.00 PKD
ROOT
HETATM    1  C   UNL     1     -10.983  12.250  66.880  1.00  0.00    -0.267 C  
HETATM    2  C   UNL     1     -12.253  13.082  66.854  1.00  0.00    -0.233 C  
HETATM    3  C   UNL     1     -12.014  14.201  67.866  1.00  0.00    -0.343 C  
HETATM    4  O   UNL     1     -12.573  13.859  69.134  1.00  0.00    -0.380 OA 
HETATM    5  C   UNL     1     -10.485  14.349  68.011  1.00  0.00    -0.237 C  
HETATM    6  C   UNL     1      -9.245  10.331  69.254  1.00  0.00    -0.215 C  
HETATM    7  C   UNL     1      -9.859  13.236  67.138  1.00  0.00    -0.237 C  
HETATM    8  H   UNL     1     -12.425  14.555  69.763  1.00  0.00     0.000 HD 
HETATM    9  C   UNL     1      -8.831  12.387  67.859  1.00  0.00    -0.180 C  
HETATM   10  O   UNL     1     -10.986  11.322  67.967  1.00  0.00    -0.212 OA 
HETATM   11  C   UNL     1      -9.677  11.288  68.421  1.00  0.00    -0.194 C  
ENDROOT
BRANCH   5  12
HETATM   12  C   UNL     1      -9.991  15.701  67.542  1.00  0.00    -0.231 C  
HETATM   13  C   UNL     1     -10.486  16.339  66.468  1.00  0.00    -0.290 C  
BRANCH  13  14
HETATM   14  C   UNL     1     -10.110  17.737  66.065  1.00  0.00    -0.247 C  
HETATM   15  O   UNL     1     -10.827  18.054  64.879  1.00  0.00    -0.715 OA 
HETATM   16  H   UNL     1     -10.590  18.937  64.625  1.00  0.00     0.000 HD 
BRANCH  14  17
HETATM   17  C   UNL     1     -10.472  18.763  67.144  1.00  0.00    -0.484 C  
BRANCH  17  18
HETATM   18  C   UNL     1      -9.500  19.945  67.191  1.00  0.00    -0.497 C  
BRANCH  18  19
HETATM   19  C   UNL     1      -8.244  19.679  66.362  1.00  0.00    -0.356 C  
BRANCH  19  20
HETATM   20  C   UNL     1      -6.996  19.697  67.245  1.00  0.00    -0.233 C  
HETATM   21  C   UNL     1      -7.321  19.302  68.677  1.00  0.00    -0.373 C  
ENDBRANCH  19  20
ENDBRANCH  18  19
ENDBRANCH  17  18
ENDBRANCH  14  17
ENDBRANCH  13  14
ENDBRANCH   5  12
BRANCH   6  22
HETATM   22  C   UNL     1     -10.094   9.202  69.763  1.00  0.00    -0.211 C  
BRANCH  22  23
HETATM   23  C   UNL     1     -10.873   9.601  71.015  1.00  0.00    -0.412 C  
BRANCH  23  24
HETATM   24  C   UNL     1     -12.031   8.637  71.257  1.00  0.00    -0.339 C  
HETATM   25  C   UNL     1     -11.581   7.355  71.909  1.00  0.00    -0.272 C  
HETATM   26  O   UNL     1     -11.675   6.256  71.385  1.00  0.00    -0.309 OA 
HETATM   27  O   UNL     1     -11.095   7.521  73.159  1.00  0.00    -0.383 OA 
ENDBRANCH  23  24
ENDBRANCH  22  23
ENDBRANCH   6  22
TORSDOF 9
ENDMDL
MODEL       88
REMARK 921   NORMALIZED FREE ENERGY PREDICTED BY IDOCK:   -5.01 KCAL/MOL
REMARK 922        TOTAL FREE ENERGY PREDICTED BY IDOCK:   -8.80 KCAL/MOL
REMARK 923 INTER-LIGAND FREE ENERGY PREDICTED BY IDOCK:   -7.68 KCAL/MOL
REMARK 924 INTRA-LIGAND FREE ENERGY PREDICTED BY IDOCK:   -1.12 KCAL/MOL
REMARK 927      BINDING AFFINITY PREDICTED BY RF-SCORE:    0.00 PKD
ROOT
HETATM    1  C   UNL     1     -10.922  10.555  68.162  1.00  0.00    -0.277 C  
HETATM    2  C   UNL     1     -12.020  11.604  68.176  1.00  0.00    -0.214 C  
HETATM    3  C   UNL     1     -11.308  12.917  68.495  1.00  0.00    -0.289 C  
HETATM    4  O   UNL     1     -11.378  13.200  69.892  1.00  0.00    -0.491 OA 
HETATM    5  C   UNL     1      -9.831  12.731  68.090  1.00  0.00    -0.226 C  
HETATM    6  C   UNL     1      -8.615   9.254  70.470  1.00  0.00    -0.271 C  
HETATM    7  C   UNL     1      -9.693  11.262  67.624  1.00  0.00    -0.183 C  
HETATM    8  H   UNL     1     -10.935  14.017  70.091  1.00  0.00     0.000 HD 
HETATM    9  C   UNL     1      -8.558  10.505  68.284  1.00  0.00    -0.127 C  
HETATM   10  O   UNL     1     -10.607  10.109  69.483  1.00  0.00    -0.212 OA 
HETATM   11  C   UNL     1      -9.233   9.922  69.486  1.00  0.00    -0.223 C  
ENDROOT
BRANCH   5  12
HETATM   12  C   UNL     1      -9.420  13.661  66.968  1.00  0.00    -0.252 C  
HETATM   13  C   UNL     1     -10.267  14.506  66.359  1.00  0.00    -0.293 C  
BRANCH  13  14
HETATM   14  C   UNL     1      -9.855  15.533  65.342  1.00  0.00    -0.256 C  
HETATM   15  O   UNL     1     -11.000  15.859  64.567  1.00  0.00    -0.786 OA 
HETATM   16  H   UNL     1     -10.740  16.508  63.924  1.00  0.00     0.000 HD 
BRANCH  14  17
HETATM   17  C   UNL     1      -9.329  16.814  66.000  1.00  0.00    -0.245 C  
BRANCH  17  18
HETATM   18  C   UNL     1     -10.440  17.660  66.626  1.00  0.00    -0.286 C  
BRANCH  18  19
HETATM   19  C   UNL     1     -10.530  19.044  65.983  1.00  0.00    -0.530 C  
BRANCH  19  20
HETATM   20  C   UNL     1      -9.832  20.092  66.851  1.00  0.00    -0.571 C  
HETATM   21  C   UNL     1     -10.101  19.862  68.329  1.00  0.00    -0.571 C  
ENDBRANCH  19  20
ENDBRANCH  18  19
ENDBRANCH  17  18
ENDBRANCH  14  17
ENDBRANCH  13  14
ENDBRANCH   5  12
BRANCH   6  22
HETATM   22  C   UNL     1      -9.316   8.626  71.640  1.00  0.00    -0.333 C  
BRANCH  22  23
HETATM   23  C   UNL     1      -9.405   7.107  71.497  1.00  0.00    -0.156 C  
BRANCH  23  24
HETATM   24  C   UNL     1     -10.684   6.710  70.768  1.00  0.00    -0.282 C  
HETATM   25  C   UNL     1     -10.431   6.339  69.329  1.00  0.00    -0.244 C  
HETATM   26  O   UNL     1     -10.892   6.950  68.378  1.00  0.00    -0.215 OA 
HETATM   27  O   UNL     1      -9.672   5.231  69.178  1.00  0.00    -0.142 OA 
ENDBRANCH  23  24
ENDBRANCH  22  23
ENDBRANCH   6  22
TORSDOF 9
ENDMDL
MODEL       89
REMARK 921   NORMALIZED FREE ENERGY PREDICTED BY IDOCK:   -4.99 KCAL/MOL
REMARK 922        TOTAL FREE ENERGY PREDICTED BY IDOCK:   -8.76 KCAL/MOL
REMARK 923 INTER-LIGAND FREE ENERGY PREDICTED BY IDOCK:   -7.49 KCAL/MOL
REMARK 924 INTRA-LIGAND FREE ENERGY PREDICTED BY IDOCK:   -1.27 KCAL/MOL
REMARK 927      BINDING AFFINITY PREDICTED BY RF-SCORE:    0.00 PKD
ROOT
HETATM    1  C   UNL     1     -11.350  11.642  66.099  1.00  0.00    -0.209 C  
HETATM    2  C   UNL     1     -11.051  11.355  67.560  1.00  0.00    -0.339 C  
HETATM    3  C   UNL     1      -9.859  12.246  67.902  1.00  0.00    -0.201 C  
HETATM    4  O   UNL     1      -8.636  11.519  67.779  1.00  0.00    -0.130 OA 
HETATM    5  C   UNL     1      -9.863  13.404  66.883  1.00  0.00    -0.256 C  
HETATM    6  C   UNL     1      -9.657  11.303  63.040  1.00  0.00    -0.397 C  
HETATM    7  C   UNL     1     -11.020  13.109  65.899  1.00  0.00    -0.288 C  
HETATM    8  H   UNL     1      -7.895  12.073  67.992  1.00  0.00     0.000 HD 
HETATM    9  C   UNL     1     -10.620  13.164  64.438  1.00  0.00    -0.441 C  
HETATM   10  O   UNL     1     -10.493  10.895  65.232  1.00  0.00    -0.271 OA 
HETATM   11  C   UNL     1     -10.212  11.748  64.176  1.00  0.00    -0.322 C  
ENDROOT
BRANCH   5  12
HETATM   12  C   UNL     1     -10.087  14.749  67.542  1.00  0.00    -0.224 C  
HETATM   13  C   UNL     1     -10.387  14.896  68.843  1.00  0.00    -0.244 C  
BRANCH  13  14
HETATM   14  C   UNL     1     -10.477  16.220  69.548  1.00  0.00    -0.299 C  
HETATM   15  O   UNL     1     -11.034  17.158  68.637  1.00  0.00    -0.295 OA 
HETATM   16  H   UNL     1     -11.091  17.995  69.082  1.00  0.00     0.000 HD 
BRANCH  14  17
HETATM   17  C   UNL     1     -11.375  16.151  70.788  1.00  0.00    -0.397 C  
BRANCH  17  18
HETATM   18  C   UNL     1     -12.607  15.266  70.582  1.00  0.00    -0.471 C  
BRANCH  18  19
HETATM   19  C   UNL     1     -13.616  15.424  71.719  1.00  0.00    -0.596 C  
BRANCH  19  20
HETATM   20  C   UNL     1     -13.192  14.604  72.938  1.00  0.00    -0.609 C  
HETATM   21  C   UNL     1     -12.582  15.483  74.018  1.00  0.00    -0.766 C  
ENDBRANCH  19  20
ENDBRANCH  18  19
ENDBRANCH  17  18
ENDBRANCH  14  17
ENDBRANCH  13  14
ENDBRANCH   5  12
BRANCH   6  22
HETATM   22  C   UNL     1      -9.306   9.868  62.773  1.00  0.00    -0.237 C  
BRANCH  22  23
HETATM   23  C   UNL     1      -7.829   9.704  62.417  1.00  0.00    -0.126 C  
BRANCH  23  24
HETATM   24  C   UNL     1      -6.950   9.974  63.635  1.00  0.00    -0.128 C  
HETATM   25  C   UNL     1      -7.245   9.030  64.772  1.00  0.00    -0.096 C  
HETATM   26  O   UNL     1      -7.674   9.388  65.858  1.00  0.00    -0.098 OA 
HETATM   27  O   UNL     1      -6.951   7.740  64.500  1.00  0.00    -0.057 OA 
ENDBRANCH  23  24
ENDBRANCH  22  23
ENDBRANCH   6  22
TORSDOF 9
ENDMDL
MODEL       90
REMARK 921   NORMALIZED FREE ENERGY PREDICTED BY IDOCK:   -4.99 KCAL/MOL
REMARK 922        TOTAL FREE ENERGY PREDICTED BY IDOCK:   -8.76 KCAL/MOL
REMARK 923 INTER-LIGAND FREE ENERGY PREDICTED BY IDOCK:   -7.38 KCAL/MOL
REMARK 924 INTRA-LIGAND FREE ENERGY PREDICTED BY IDOCK:   -1.38 KCAL/MOL
REMARK 927      BINDING AFFINITY PREDICTED BY RF-SCORE:    0.00 PKD
ROOT
HETATM    1  C   UNL     1      -9.413  14.504  68.727  1.00  0.00    -0.183 C  
HETATM    2  C   UNL     1      -7.928  14.642  69.010  1.00  0.00    -0.122 C  
HETATM    3  C   UNL     1      -7.287  14.896  67.648  1.00  0.00    -0.187 C  
HETATM    4  O   UNL     1      -6.802  13.677  67.086  1.00  0.00    -0.420 OA 
HETATM    5  C   UNL     1      -8.394  15.467  66.736  1.00  0.00    -0.301 C  
HETATM    6  C   UNL     1     -11.460  12.336  66.870  1.00  0.00    -0.418 C  
HETATM    7  C   UNL     1      -9.695  15.447  67.573  1.00  0.00    -0.208 C  
HETATM    8  H   UNL     1      -6.403  13.834  66.238  1.00  0.00     0.000 HD 
HETATM    9  C   UNL     1     -10.868  14.784  66.879  1.00  0.00    -0.316 C  
HETATM   10  O   UNL     1      -9.742  13.186  68.283  1.00  0.00    -0.222 OA 
HETATM   11  C   UNL     1     -10.721  13.360  67.317  1.00  0.00    -0.260 C  
ENDROOT
BRANCH   5  12
HETATM   12  C   UNL     1      -8.097  16.884  66.291  1.00  0.00    -0.351 C  
HETATM   13  C   UNL     1      -7.201  17.679  66.898  1.00  0.00    -0.233 C  
BRANCH  13  14
HETATM   14  C   UNL     1      -6.791  19.033  66.392  1.00  0.00    -0.209 C  
HETATM   15  O   UNL     1      -7.386  19.217  65.115  1.00  0.00    -0.359 OA 
HETATM   16  H   UNL     1      -7.127  20.073  64.795  1.00  0.00     0.000 HD 
BRANCH  14  17
HETATM   17  C   UNL     1      -7.263  20.160  67.319  1.00  0.00    -0.306 C  
BRANCH  17  18
HETATM   18  C   UNL     1      -8.330  19.701  68.316  1.00  0.00    -0.354 C  
BRANCH  18  19
HETATM   19  C   UNL     1      -9.729  20.155  67.899  1.00  0.00    -0.499 C  
BRANCH  19  20
HETATM   20  C   UNL     1     -10.538  18.982  67.345  1.00  0.00    -0.559 C  
HETATM   21  C   UNL     1     -10.736  19.100  65.843  1.00  0.00    -0.435 C  
ENDBRANCH  19  20
ENDBRANCH  18  19
ENDBRANCH  17  18
ENDBRANCH  14  17
ENDBRANCH  13  14
ENDBRANCH   5  12
BRANCH   6  22
HETATM   22  C   UNL     1     -11.337  10.922  67.362  1.00  0.00    -0.273 C  
BRANCH  22  23
HETATM   23  C   UNL     1     -10.168  10.193  66.703  1.00  0.00    -0.287 C  
BRANCH  23  24
HETATM   24  C   UNL     1      -9.454   9.300  67.713  1.00  0.00    -0.160 C  
HETATM   25  C   UNL     1     -10.341   8.196  68.227  1.00  0.00    -0.197 C  
HETATM   26  O   UNL     1     -10.677   8.083  69.396  1.00  0.00    -0.224 OA 
HETATM   27  O   UNL     1     -10.706   7.304  67.280  1.00  0.00    -0.297 OA 
ENDBRANCH  23  24
ENDBRANCH  22  23
ENDBRANCH   6  22
TORSDOF 9
ENDMDL
MODEL       91
REMARK 921   NORMALIZED FREE ENERGY PREDICTED BY IDOCK:   -4.97 KCAL/MOL
REMARK 922        TOTAL FREE ENERGY PREDICTED BY IDOCK:   -8.73 KCAL/MOL
REMARK 923 INTER-LIGAND FREE ENERGY PREDICTED BY IDOCK:   -8.04 KCAL/MOL
REMARK 924 INTRA-LIGAND FREE ENERGY PREDICTED BY IDOCK:   -0.69 KCAL/MOL
REMARK 927      BINDING AFFINITY PREDICTED BY RF-SCORE:    0.00 PKD
ROOT
HETATM    1  C   UNL     1     -11.982  12.020  68.984  1.00  0.00    -0.264 C  
HETATM    2  C   UNL     1     -11.909  13.508  69.278  1.00  0.00    -0.392 C  
HETATM    3  C   UNL     1     -10.626  13.983  68.599  1.00  0.00    -0.257 C  
HETATM    4  O   UNL     1      -9.546  14.010  69.531  1.00  0.00    -0.219 OA 
HETATM    5  C   UNL     1     -10.308  12.963  67.486  1.00  0.00    -0.223 C  
HETATM    6  C   UNL     1     -10.033   9.186  69.697  1.00  0.00    -0.198 C  
HETATM    7  C   UNL     1     -11.377  11.850  67.603  1.00  0.00    -0.372 C  
HETATM    8  H   UNL     1      -8.747  14.306  69.109  1.00  0.00     0.000 HD 
HETATM    9  C   UNL     1     -10.808  10.446  67.659  1.00  0.00    -0.361 C  
HETATM   10  O   UNL     1     -11.176  11.266  69.892  1.00  0.00    -0.255 OA 
HETATM   11  C   UNL     1     -10.628  10.245  69.131  1.00  0.00    -0.230 C  
ENDROOT
BRANCH   5  12
HETATM   12  C   UNL     1     -10.367  13.581  66.105  1.00  0.00    -0.296 C  
HETATM   13  C   UNL     1     -11.246  14.535  65.757  1.00  0.00    -0.334 C  
BRANCH  13  14
HETATM   14  C   UNL     1     -11.233  15.259  64.440  1.00  0.00    -0.178 C  
HETATM   15  O   UNL     1     -12.442  14.946  63.762  1.00  0.00    -1.048 OA 
HETATM   16  H   UNL     1     -12.434  15.404  62.930  1.00  0.00     0.000 HD 
BRANCH  14  17
HETATM   17  C   UNL     1     -11.154  16.779  64.622  1.00  0.00     0.066 C  
BRANCH  17  18
HETATM   18  C   UNL     1     -10.658  17.187  66.011  1.00  0.00    -0.205 C  
BRANCH  18  19
HETATM   19  C   UNL     1     -10.352  18.683  66.088  1.00  0.00    -0.481 C  
BRANCH  19  20
HETATM   20  C   UNL     1     -10.157  19.123  67.540  1.00  0.00    -0.463 C  
HETATM   21  C   UNL     1      -8.693  19.082  67.944  1.00  0.00    -0.333 C  
ENDBRANCH  19  20
ENDBRANCH  18  19
ENDBRANCH  17  18
ENDBRANCH  14  17
ENDBRANCH  13  14
ENDBRANCH   5  12
BRANCH   6  22
HETATM   22  C   UNL     1      -9.912   8.972  71.179  1.00  0.00    -0.365 C  
BRANCH  22  23
HETATM   23  C   UNL     1     -10.956   7.983  71.694  1.00  0.00    -0.288 C  
BRANCH  23  24
HETATM   24  C   UNL     1     -12.235   8.073  70.868  1.00  0.00    -0.122 C  
HETATM   25  C   UNL     1     -13.474   7.997  71.722  1.00  0.00    -0.341 C  
HETATM   26  O   UNL     1     -14.300   7.101  71.643  1.00  0.00    -0.417 OA 
HETATM   27  O   UNL     1     -13.618   9.042  72.566  1.00  0.00    -0.461 OA 
ENDBRANCH  23  24
ENDBRANCH  22  23
ENDBRANCH   6  22
TORSDOF 9
ENDMDL
MODEL       92
REMARK 921   NORMALIZED FREE ENERGY PREDICTED BY IDOCK:   -4.96 KCAL/MOL
REMARK 922        TOTAL FREE ENERGY PREDICTED BY IDOCK:   -8.72 KCAL/MOL
REMARK 923 INTER-LIGAND FREE ENERGY PREDICTED BY IDOCK:   -7.91 KCAL/MOL
REMARK 924 INTRA-LIGAND FREE ENERGY PREDICTED BY IDOCK:   -0.81 KCAL/MOL
REMARK 927      BINDING AFFINITY PREDICTED BY RF-SCORE:    0.00 PKD
ROOT
HETATM    1  C   UNL     1     -10.849  14.572  67.981  1.00  0.00    -0.244 C  
HETATM    2  C   UNL     1     -12.031  13.626  67.869  1.00  0.00    -0.382 C  
HETATM    3  C   UNL     1     -11.846  12.917  66.529  1.00  0.00    -0.407 C  
HETATM    4  O   UNL     1     -12.602  13.567  65.508  1.00  0.00    -0.476 OA 
HETATM    5  C   UNL     1     -10.345  13.009  66.183  1.00  0.00    -0.285 C  
HETATM    6  C   UNL     1      -9.621  17.333  66.190  1.00  0.00    -0.224 C  
HETATM    7  C   UNL     1      -9.696  13.861  67.299  1.00  0.00    -0.245 C  
HETATM    8  H   UNL     1     -12.487  13.126  64.675  1.00  0.00     0.000 HD 
HETATM    9  C   UNL     1      -8.850  15.011  66.789  1.00  0.00    -0.299 C  
HETATM   10  O   UNL     1     -11.079  15.786  67.262  1.00  0.00    -0.302 OA 
HETATM   11  C   UNL     1      -9.853  16.119  66.708  1.00  0.00    -0.245 C  
ENDROOT
BRANCH   5  12
HETATM   12  C   UNL     1      -9.682  11.648  66.132  1.00  0.00    -0.253 C  
HETATM   13  C   UNL     1      -9.851  10.706  67.074  1.00  0.00    -0.222 C  
BRANCH  13  14
HETATM   14  C   UNL     1      -9.318   9.305  66.976  1.00  0.00    -0.144 C  
HETATM   15  O   UNL     1      -8.558   9.048  68.150  1.00  0.00    -0.128 OA 
HETATM   16  H   UNL     1      -8.221   8.162  68.088  1.00  0.00     0.000 HD 
BRANCH  14  17
HETATM   17  C   UNL     1     -10.442   8.267  66.884  1.00  0.00    -0.365 C  
BRANCH  17  18
HETATM   18  C   UNL     1      -9.926   6.856  66.588  1.00  0.00    -0.211 C  
BRANCH  18  19
HETATM   19  C   UNL     1     -10.759   5.787  67.297  1.00  0.00    -0.345 C  
BRANCH  19  20
HETATM   20  C   UNL     1     -11.149   6.247  68.702  1.00  0.00    -0.409 C  
HETATM   21  C   UNL     1     -10.380   5.490  69.771  1.00  0.00    -0.366 C  
ENDBRANCH  19  20
ENDBRANCH  18  19
ENDBRANCH  17  18
ENDBRANCH  14  17
ENDBRANCH  13  14
ENDBRANCH   5  12
BRANCH   6  22
HETATM   22  C   UNL     1     -10.621  18.453  66.169  1.00  0.00    -0.346 C  
BRANCH  22  23
HETATM   23  C   UNL     1      -9.941  19.820  66.210  1.00  0.00    -0.581 C  
BRANCH  23  24
HETATM   24  C   UNL     1      -9.496  20.156  67.630  1.00  0.00    -0.514 C  
HETATM   25  C   UNL     1      -7.995  20.187  67.766  1.00  0.00    -0.266 C  
HETATM   26  O   UNL     1      -7.361  19.426  68.481  1.00  0.00    -0.304 OA 
HETATM   27  O   UNL     1      -7.404  21.170  67.052  1.00  0.00    -0.349 OA 
ENDBRANCH  23  24
ENDBRANCH  22  23
ENDBRANCH   6  22
TORSDOF 9
ENDMDL
MODEL       93
REMARK 921   NORMALIZED FREE ENERGY PREDICTED BY IDOCK:   -4.96 KCAL/MOL
REMARK 922        TOTAL FREE ENERGY PREDICTED BY IDOCK:   -8.72 KCAL/MOL
REMARK 923 INTER-LIGAND FREE ENERGY PREDICTED BY IDOCK:   -7.35 KCAL/MOL
REMARK 924 INTRA-LIGAND FREE ENERGY PREDICTED BY IDOCK:   -1.36 KCAL/MOL
REMARK 927      BINDING AFFINITY PREDICTED BY RF-SCORE:    0.00 PKD
ROOT
HETATM    1  C   UNL     1      -7.874   9.819  67.520  1.00  0.00    -0.095 C  
HETATM    2  C   UNL     1      -7.927   9.197  66.136  1.00  0.00    -0.103 C  
HETATM    3  C   UNL     1      -9.415   9.096  65.806  1.00  0.00    -0.254 C  
HETATM    4  O   UNL     1      -9.913   7.797  66.124  1.00  0.00    -0.463 OA 
HETATM    5  C   UNL     1     -10.136  10.142  66.680  1.00  0.00    -0.283 C  
HETATM    6  C   UNL     1      -8.982   8.960  70.742  1.00  0.00    -0.254 C  
HETATM    7  C   UNL     1      -9.050  10.775  67.580  1.00  0.00    -0.148 C  
HETATM    8  H   UNL     1     -10.838   7.733  65.918  1.00  0.00     0.000 HD 
HETATM    9  C   UNL     1      -9.395  10.786  69.056  1.00  0.00    -0.168 C  
HETATM   10  O   UNL     1      -8.075   8.840  68.543  1.00  0.00    -0.113 OA 
HETATM   11  C   UNL     1      -8.828   9.480  69.515  1.00  0.00    -0.179 C  
ENDROOT
BRANCH   5  12
HETATM   12  C   UNL     1     -10.803  11.221  65.853  1.00  0.00    -0.264 C  
HETATM   13  C   UNL     1     -10.850  11.203  64.511  1.00  0.00    -0.320 C  
BRANCH  13  14
HETATM   14  C   UNL     1     -11.623  12.186  63.676  1.00  0.00    -0.486 C  
HETATM   15  O   UNL     1     -12.430  11.445  62.771  1.00  0.00    -0.929 OA 
HETATM   16  H   UNL     1     -12.918  12.066  62.244  1.00  0.00     0.000 HD 
BRANCH  14  17
HETATM   17  C   UNL     1     -12.535  13.073  64.531  1.00  0.00    -0.427 C  
BRANCH  17  18
HETATM   18  C   UNL     1     -12.074  14.533  64.574  1.00  0.00    -0.501 C  
BRANCH  18  19
HETATM   19  C   UNL     1     -11.348  14.861  65.879  1.00  0.00    -0.306 C  
BRANCH  19  20
HETATM   20  C   UNL     1      -9.834  14.764  65.696  1.00  0.00    -0.361 C  
HETATM   21  C   UNL     1      -9.137  14.391  66.994  1.00  0.00    -0.250 C  
ENDBRANCH  19  20
ENDBRANCH  18  19
ENDBRANCH  17  18
ENDBRANCH  14  17
ENDBRANCH  13  14
ENDBRANCH   5  12
BRANCH   6  22
HETATM   22  C   UNL     1      -8.358   7.675  71.203  1.00  0.00    -0.111 C  
BRANCH  22  23
HETATM   23  C   UNL     1      -8.990   6.463  70.522  1.00  0.00    -0.151 C  
BRANCH  23  24
HETATM   24  C   UNL     1     -10.196   5.969  71.317  1.00  0.00    -0.253 C  
HETATM   25  C   UNL     1     -11.478   6.630  70.880  1.00  0.00    -0.347 C  
HETATM   26  O   UNL     1     -12.156   7.342  71.604  1.00  0.00    -0.293 OA 
HETATM   27  O   UNL     1     -11.841   6.331  69.613  1.00  0.00    -0.290 OA 
ENDBRANCH  23  24
ENDBRANCH  22  23
ENDBRANCH   6  22
TORSDOF 9
ENDMDL
MODEL       94
REMARK 921   NORMALIZED FREE ENERGY PREDICTED BY IDOCK:   -4.96 KCAL/MOL
REMARK 922        TOTAL FREE ENERGY PREDICTED BY IDOCK:   -8.72 KCAL/MOL
REMARK 923 INTER-LIGAND FREE ENERGY PREDICTED BY IDOCK:   -7.74 KCAL/MOL
REMARK 924 INTRA-LIGAND FREE ENERGY PREDICTED BY IDOCK:   -0.98 KCAL/MOL
REMARK 927      BINDING AFFINITY PREDICTED BY RF-SCORE:    0.00 PKD
ROOT
HETATM    1  C   UNL     1      -8.678  15.171  66.659  1.00  0.00    -0.272 C  
HETATM    2  C   UNL     1      -8.329  14.303  67.854  1.00  0.00    -0.162 C  
HETATM    3  C   UNL     1      -9.645  13.643  68.261  1.00  0.00    -0.215 C  
HETATM    4  O   UNL     1     -10.275  14.380  69.308  1.00  0.00    -0.381 OA 
HETATM    5  C   UNL     1     -10.554  13.660  67.014  1.00  0.00    -0.274 C  
HETATM    6  C   UNL     1     -10.763  17.929  66.037  1.00  0.00    -0.129 C  
HETATM    7  C   UNL     1      -9.771  14.423  65.920  1.00  0.00    -0.305 C  
HETATM    8  H   UNL     1     -11.093  13.969  69.561  1.00  0.00     0.000 HD 
HETATM    9  C   UNL     1     -10.554  15.542  65.262  1.00  0.00    -0.446 C  
HETATM   10  O   UNL     1      -9.228  16.427  67.065  1.00  0.00    -0.211 OA 
HETATM   11  C   UNL     1     -10.215  16.710  66.134  1.00  0.00    -0.348 C  
ENDROOT
BRANCH   5  12
HETATM   12  C   UNL     1     -10.884  12.266  66.523  1.00  0.00    -0.297 C  
HETATM   13  C   UNL     1      -9.964  11.407  66.055  1.00  0.00    -0.269 C  
BRANCH  13  14
HETATM   14  C   UNL     1     -10.245   9.976  65.694  1.00  0.00    -0.188 C  
HETATM   15  O   UNL     1      -9.777   9.764  64.369  1.00  0.00    -0.414 OA 
HETATM   16  H   UNL     1      -9.955   8.859  64.141  1.00  0.00     0.000 HD 
BRANCH  14  17
HETATM   17  C   UNL     1      -9.528   8.996  66.629  1.00  0.00    -0.251 C  
BRANCH  17  18
HETATM   18  C   UNL     1     -10.420   7.831  67.066  1.00  0.00    -0.419 C  
BRANCH  18  19
HETATM   19  C   UNL     1     -10.374   7.617  68.579  1.00  0.00    -0.225 C  
BRANCH  19  20
HETATM   20  C   UNL     1     -11.062   6.307  68.963  1.00  0.00    -0.446 C  
HETATM   21  C   UNL     1     -10.800   5.943  70.415  1.00  0.00    -0.378 C  
ENDBRANCH  19  20
ENDBRANCH  18  19
ENDBRANCH  17  18
ENDBRANCH  14  17
ENDBRANCH  13  14
ENDBRANCH   5  12
BRANCH   6  22
HETATM   22  C   UNL     1     -10.369  19.106  66.883  1.00  0.00    -0.504 C  
BRANCH  22  23
HETATM   23  C   UNL     1      -9.262  19.929  66.227  1.00  0.00    -0.457 C  
BRANCH  23  24
HETATM   24  C   UNL     1      -8.252  20.399  67.269  1.00  0.00    -0.390 C  
HETATM   25  C   UNL     1      -7.403  19.269  67.793  1.00  0.00    -0.254 C  
HETATM   26  O   UNL     1      -7.404  18.902  68.958  1.00  0.00    -0.319 OA 
HETATM   27  O   UNL     1      -6.599  18.715  66.860  1.00  0.00    -0.186 OA 
ENDBRANCH  23  24
ENDBRANCH  22  23
ENDBRANCH   6  22
TORSDOF 9
ENDMDL
MODEL       95
REMARK 921   NORMALIZED FREE ENERGY PREDICTED BY IDOCK:   -4.95 KCAL/MOL
REMARK 922        TOTAL FREE ENERGY PREDICTED BY IDOCK:   -8.71 KCAL/MOL
REMARK 923 INTER-LIGAND FREE ENERGY PREDICTED BY IDOCK:   -7.68 KCAL/MOL
REMARK 924 INTRA-LIGAND FREE ENERGY PREDICTED BY IDOCK:   -1.03 KCAL/MOL
REMARK 927      BINDING AFFINITY PREDICTED BY RF-SCORE:    0.00 PKD
ROOT
HETATM    1  C   UNL     1      -9.915  12.280  67.123  1.00  0.00    -0.205 C  
HETATM    2  C   UNL     1      -8.413  12.066  67.062  1.00  0.00    -0.183 C  
HETATM    3  C   UNL     1      -8.069  11.308  68.343  1.00  0.00    -0.143 C  
HETATM    4  O   UNL     1      -7.638  12.211  69.361  1.00  0.00    -0.327 OA 
HETATM    5  C   UNL     1      -9.364  10.607  68.804  1.00  0.00    -0.183 C  
HETATM    6  C   UNL     1     -12.166  13.951  69.239  1.00  0.00    -0.319 C  
HETATM    7  C   UNL     1     -10.471  11.052  67.820  1.00  0.00    -0.232 C  
HETATM    8  H   UNL     1      -7.424  11.740  70.157  1.00  0.00     0.000 HD 
HETATM    9  C   UNL     1     -11.720  11.587  68.491  1.00  0.00    -0.379 C  
HETATM   10  O   UNL     1     -10.252  13.411  67.929  1.00  0.00    -0.229 OA 
HETATM   11  C   UNL     1     -11.410  13.048  68.598  1.00  0.00    -0.291 C  
ENDROOT
BRANCH   5  12
HETATM   12  C   UNL     1      -9.240   9.098  68.781  1.00  0.00    -0.136 C  
HETATM   13  C   UNL     1      -9.364   8.327  69.874  1.00  0.00    -0.159 C  
BRANCH  13  14
HETATM   14  C   UNL     1      -9.383   6.824  69.854  1.00  0.00    -0.157 C  
HETATM   15  O   UNL     1      -8.639   6.367  70.975  1.00  0.00    -0.129 OA 
HETATM   16  H   UNL     1      -8.651   5.417  70.962  1.00  0.00     0.000 HD 
BRANCH  14  17
HETATM   17  C   UNL     1     -10.807   6.267  69.952  1.00  0.00    -0.399 C  
BRANCH  17  18
HETATM   18  C   UNL     1     -11.147   5.746  71.351  1.00  0.00    -0.273 C  
BRANCH  18  19
HETATM   19  C   UNL     1     -12.345   6.479  71.954  1.00  0.00    -0.339 C  
BRANCH  19  20
HETATM   20  C   UNL     1     -12.485   7.878  71.351  1.00  0.00    -0.330 C  
HETATM   21  C   UNL     1     -13.588   8.671  72.031  1.00  0.00    -0.451 C  
ENDBRANCH  19  20
ENDBRANCH  18  19
ENDBRANCH  17  18
ENDBRANCH  14  17
ENDBRANCH  13  14
ENDBRANCH   5  12
BRANCH   6  22
HETATM   22  C   UNL     1     -11.871  15.423  69.288  1.00  0.00    -0.365 C  
BRANCH  22  23
HETATM   23  C   UNL     1     -11.651  15.908  70.720  1.00  0.00    -0.441 C  
BRANCH  23  24
HETATM   24  C   UNL     1     -11.995  14.807  71.719  1.00  0.00    -0.409 C  
HETATM   25  C   UNL     1     -12.622  15.351  72.976  1.00  0.00    -0.434 C  
HETATM   26  O   UNL     1     -12.119  15.254  74.084  1.00  0.00    -0.585 OA 
HETATM   27  O   UNL     1     -13.827  15.930  72.777  1.00  0.00    -0.584 OA 
ENDBRANCH  23  24
ENDBRANCH  22  23
ENDBRANCH   6  22
TORSDOF 9
ENDMDL
MODEL       96
REMARK 921   NORMALIZED FREE ENERGY PREDICTED BY IDOCK:   -4.95 KCAL/MOL
REMARK 922        TOTAL FREE ENERGY PREDICTED BY IDOCK:   -8.71 KCAL/MOL
REMARK 923 INTER-LIGAND FREE ENERGY PREDICTED BY IDOCK:   -7.36 KCAL/MOL
REMARK 924 INTRA-LIGAND FREE ENERGY PREDICTED BY IDOCK:   -1.35 KCAL/MOL
REMARK 927      BINDING AFFINITY PREDICTED BY RF-SCORE:    0.00 PKD
ROOT
HETATM    1  C   UNL     1     -10.696  10.041  67.838  1.00  0.00    -0.272 C  
HETATM    2  C   UNL     1      -9.505   9.140  68.115  1.00  0.00    -0.155 C  
HETATM    3  C   UNL     1      -9.045   9.513  69.522  1.00  0.00    -0.185 C  
HETATM    4  O   UNL     1      -7.983  10.464  69.468  1.00  0.00    -0.155 OA 
HETATM    5  C   UNL     1     -10.259  10.151  70.231  1.00  0.00    -0.180 C  
HETATM    6  C   UNL     1     -11.267  13.498  67.584  1.00  0.00    -0.304 C  
HETATM    7  C   UNL     1     -11.388  10.220  69.176  1.00  0.00    -0.244 C  
HETATM    8  H   UNL     1      -7.696  10.696  70.344  1.00  0.00     0.000 HD 
HETATM    9  C   UNL     1     -12.027  11.588  69.040  1.00  0.00    -0.377 C  
HETATM   10  O   UNL     1     -10.282  11.338  67.402  1.00  0.00    -0.181 OA 
HETATM   11  C   UNL     1     -11.179  12.221  67.982  1.00  0.00    -0.269 C  
ENDROOT
BRANCH   5  12
HETATM   12  C   UNL     1     -10.723   9.337  71.420  1.00  0.00    -0.432 C  
HETATM   13  C   UNL     1     -11.402   8.182  71.309  1.00  0.00    -0.300 C  
BRANCH  13  14
HETATM   14  C   UNL     1     -11.751   7.289  72.466  1.00  0.00    -0.204 C  
HETATM   15  O   UNL     1     -12.846   6.474  72.068  1.00  0.00    -0.499 OA 
HETATM   16  H   UNL     1     -13.066   5.909  72.799  1.00  0.00     0.000 HD 
BRANCH  14  17
HETATM   17  C   UNL     1     -10.583   6.380  72.863  1.00  0.00    -0.260 C  
BRANCH  17  18
HETATM   18  C   UNL     1      -9.927   6.798  74.182  1.00  0.00    -0.373 C  
BRANCH  18  19
HETATM   19  C   UNL     1      -8.513   7.336  73.967  1.00  0.00    -0.214 C  
BRANCH  19  20
HETATM   20  C   UNL     1      -8.052   7.092  72.529  1.00  0.00    -0.113 C  
HETATM   21  C   UNL     1      -6.714   7.757  72.251  1.00  0.00    -0.060 C  
ENDBRANCH  19  20
ENDBRANCH  18  19
ENDBRANCH  17  18
ENDBRANCH  14  17
ENDBRANCH  13  14
ENDBRANCH   5  12
BRANCH   6  22
HETATM   22  C   UNL     1     -10.447  14.102  66.481  1.00  0.00    -0.280 C  
BRANCH  22  23
HETATM   23  C   UNL     1     -11.263  14.274  65.200  1.00  0.00    -0.345 C  
BRANCH  23  24
HETATM   24  C   UNL     1     -12.427  13.289  65.169  1.00  0.00    -0.525 C  
HETATM   25  C   UNL     1     -12.336  12.333  64.007  1.00  0.00    -0.475 C  
HETATM   26  O   UNL     1     -13.159  12.277  63.106  1.00  0.00    -0.588 OA 
HETATM   27  O   UNL     1     -11.273  11.501  64.068  1.00  0.00    -0.369 OA 
ENDBRANCH  23  24
ENDBRANCH  22  23
ENDBRANCH   6  22
TORSDOF 9
ENDMDL
MODEL       97
REMARK 921   NORMALIZED FREE ENERGY PREDICTED BY IDOCK:   -4.95 KCAL/MOL
REMARK 922        TOTAL FREE ENERGY PREDICTED BY IDOCK:   -8.70 KCAL/MOL
REMARK 923 INTER-LIGAND FREE ENERGY PREDICTED BY IDOCK:   -7.29 KCAL/MOL
REMARK 924 INTRA-LIGAND FREE ENERGY PREDICTED BY IDOCK:   -1.42 KCAL/MOL
REMARK 927      BINDING AFFINITY PREDICTED BY RF-SCORE:    0.00 PKD
ROOT
HETATM    1  C   UNL     1     -11.838   6.940  71.575  1.00  0.00    -0.324 C  
HETATM    2  C   UNL     1     -11.687   8.170  72.453  1.00  0.00    -0.461 C  
HETATM    3  C   UNL     1     -10.544   8.966  71.826  1.00  0.00    -0.362 C  
HETATM    4  O   UNL     1      -9.309   8.670  72.476  1.00  0.00    -0.271 OA 
HETATM    5  C   UNL     1     -10.456   8.528  70.349  1.00  0.00    -0.227 C  
HETATM    6  C   UNL     1      -9.838   4.198  70.667  1.00  0.00    -0.249 C  
HETATM    7  C   UNL     1     -11.503   7.403  70.169  1.00  0.00    -0.154 C  
HETATM    8  H   UNL     1      -8.598   9.165  72.086  1.00  0.00     0.000 HD 
HETATM    9  C   UNL     1     -10.957   6.144  69.525  1.00  0.00    -0.463 C  
HETATM   10  O   UNL     1     -10.889   5.928  71.921  1.00  0.00    -0.236 OA 
HETATM   11  C   UNL     1     -10.510   5.357  70.717  1.00  0.00    -0.247 C  
ENDROOT
BRANCH   5  12
HETATM   12  C   UNL     1     -10.760   9.662  69.393  1.00  0.00    -0.248 C  
HETATM   13  C   UNL     1     -11.238  10.854  69.786  1.00  0.00    -0.351 C  
BRANCH  13  14
HETATM   14  C   UNL     1     -11.416  12.038  68.877  1.00  0.00    -0.301 C  
HETATM   15  O   UNL     1     -12.279  11.645  67.819  1.00  0.00    -0.560 OA 
HETATM   16  H   UNL     1     -12.392  12.393  67.244  1.00  0.00     0.000 HD 
BRANCH  14  17
HETATM   17  C   UNL     1     -12.046  13.231  69.605  1.00  0.00    -0.331 C  
BRANCH  17  18
HETATM   18  C   UNL     1     -12.479  12.895  71.034  1.00  0.00    -0.374 C  
BRANCH  18  19
HETATM   19  C   UNL     1     -13.469  13.922  71.583  1.00  0.00    -0.428 C  
BRANCH  19  20
HETATM   20  C   UNL     1     -12.891  14.633  72.807  1.00  0.00    -0.530 C  
HETATM   21  C   UNL     1     -11.733  15.542  72.431  1.00  0.00    -0.570 C  
ENDBRANCH  19  20
ENDBRANCH  18  19
ENDBRANCH  17  18
ENDBRANCH  14  17
ENDBRANCH  13  14
ENDBRANCH   5  12
BRANCH   6  22
HETATM   22  C   UNL     1      -9.447   3.392  71.872  1.00  0.00    -0.208 C  
BRANCH  22  23
HETATM   23  C   UNL     1      -7.996   3.650  72.278  1.00  0.00    -0.068 C  
BRANCH  23  24
HETATM   24  C   UNL     1      -7.920   4.758  73.324  1.00  0.00    -0.100 C  
HETATM   25  C   UNL     1      -7.021   5.889  72.895  1.00  0.00    -0.076 C  
HETATM   26  O   UNL     1      -5.998   6.204  73.482  1.00  0.00    -0.058 OA 
HETATM   27  O   UNL     1      -7.471   6.561  71.813  1.00  0.00    -0.090 OA 
ENDBRANCH  23  24
ENDBRANCH  22  23
ENDBRANCH   6  22
TORSDOF 9
ENDMDL
MODEL       98
REMARK 921   NORMALIZED FREE ENERGY PREDICTED BY IDOCK:   -4.94 KCAL/MOL
REMARK 922        TOTAL FREE ENERGY PREDICTED BY IDOCK:   -8.68 KCAL/MOL
REMARK 923 INTER-LIGAND FREE ENERGY PREDICTED BY IDOCK:   -7.44 KCAL/MOL
REMARK 924 INTRA-LIGAND FREE ENERGY PREDICTED BY IDOCK:   -1.25 KCAL/MOL
REMARK 927      BINDING AFFINITY PREDICTED BY RF-SCORE:    0.00 PKD
ROOT
HETATM    1  C   UNL     1     -10.716   8.582  72.054  1.00  0.00    -0.340 C  
HETATM    2  C   UNL     1     -11.239   7.382  72.824  1.00  0.00    -0.380 C  
HETATM    3  C   UNL     1     -12.108   6.619  71.826  1.00  0.00    -0.353 C  
HETATM    4  O   UNL     1     -13.480   6.984  71.972  1.00  0.00    -0.537 OA 
HETATM    5  C   UNL     1     -11.624   7.023  70.418  1.00  0.00    -0.341 C  
HETATM    6  C   UNL     1     -12.106  11.381  70.450  1.00  0.00    -0.473 C  
HETATM    7  C   UNL     1     -10.532   8.098  70.628  1.00  0.00    -0.224 C  
HETATM    8  H   UNL     1     -14.020   6.509  71.352  1.00  0.00     0.000 HD 
HETATM    9  C   UNL     1     -10.740   9.361  69.817  1.00  0.00    -0.250 C  
HETATM   10  O   UNL     1     -11.675   9.641  72.018  1.00  0.00    -0.282 OA 
HETATM   11  C   UNL     1     -11.556  10.197  70.754  1.00  0.00    -0.357 C  
ENDROOT
BRANCH   5  12
HETATM   12  C   UNL     1     -11.046   5.853  69.651  1.00  0.00    -0.414 C  
HETATM   13  C   UNL     1      -9.950   5.180  70.040  1.00  0.00    -0.326 C  
BRANCH  13  14
HETATM   14  C   UNL     1      -9.439   3.934  69.374  1.00  0.00    -0.190 C  
HETATM   15  O   UNL     1      -8.512   4.329  68.371  1.00  0.00    -0.091 OA 
HETATM   16  H   UNL     1      -8.189   3.541  67.950  1.00  0.00     0.000 HD 
BRANCH  14  17
HETATM   17  C   UNL     1      -8.724   3.006  70.363  1.00  0.00    -0.127 C  
BRANCH  17  18
HETATM   18  C   UNL     1      -9.693   2.237  71.263  1.00  0.00    -0.201 C  
BRANCH  18  19
HETATM   19  C   UNL     1      -9.535   2.629  72.733  1.00  0.00    -0.147 C  
BRANCH  19  20
HETATM   20  C   UNL     1     -10.746   3.428  73.215  1.00  0.00    -0.291 C  
HETATM   21  C   UNL     1     -10.416   4.253  74.447  1.00  0.00    -0.300 C  
ENDBRANCH  19  20
ENDBRANCH  18  19
ENDBRANCH  17  18
ENDBRANCH  14  17
ENDBRANCH  13  14
ENDBRANCH   5  12
BRANCH   6  22
HETATM   22  C   UNL     1     -12.874  12.233  71.420  1.00  0.00    -0.373 C  
BRANCH  22  23
HETATM   23  C   UNL     1     -12.434  13.695  71.358  1.00  0.00    -0.374 C  
BRANCH  23  24
HETATM   24  C   UNL     1     -12.759  14.297  69.995  1.00  0.00    -0.167 C  
HETATM   25  C   UNL     1     -11.570  14.987  69.376  1.00  0.00    -0.315 C  
HETATM   26  O   UNL     1     -11.530  16.182  69.131  1.00  0.00    -0.338 OA 
HETATM   27  O   UNL     1     -10.552  14.151  69.074  1.00  0.00    -0.246 OA 
ENDBRANCH  23  24
ENDBRANCH  22  23
ENDBRANCH   6  22
TORSDOF 9
ENDMDL
MODEL       99
REMARK 921   NORMALIZED FREE ENERGY PREDICTED BY IDOCK:   -4.94 KCAL/MOL
REMARK 922        TOTAL FREE ENERGY PREDICTED BY IDOCK:   -8.68 KCAL/MOL
REMARK 923 INTER-LIGAND FREE ENERGY PREDICTED BY IDOCK:   -7.79 KCAL/MOL
REMARK 924 INTRA-LIGAND FREE ENERGY PREDICTED BY IDOCK:   -0.90 KCAL/MOL
REMARK 927      BINDING AFFINITY PREDICTED BY RF-SCORE:    0.00 PKD
ROOT
HETATM    1  C   UNL     1     -11.883  12.812  68.294  1.00  0.00    -0.312 C  
HETATM    2  C   UNL     1     -10.669  13.467  67.662  1.00  0.00    -0.257 C  
HETATM    3  C   UNL     1      -9.496  12.560  68.024  1.00  0.00    -0.209 C  
HETATM    4  O   UNL     1      -8.826  13.043  69.188  1.00  0.00    -0.183 OA 
HETATM    5  C   UNL     1     -10.088  11.167  68.324  1.00  0.00    -0.196 C  
HETATM    6  C   UNL     1     -12.938  12.011  71.548  1.00  0.00    -0.407 C  
HETATM    7  C   UNL     1     -11.624  11.320  68.218  1.00  0.00    -0.370 C  
HETATM    8  H   UNL     1      -8.096  12.479  69.414  1.00  0.00     0.000 HD 
HETATM    9  C   UNL     1     -12.385  10.787  69.416  1.00  0.00    -0.133 C  
HETATM   10  O   UNL     1     -12.000  13.149  69.679  1.00  0.00    -0.310 OA 
HETATM   11  C   UNL     1     -12.457  11.996  70.297  1.00  0.00    -0.099 C  
ENDROOT
BRANCH   5  12
HETATM   12  C   UNL     1      -9.613  10.116  67.343  1.00  0.00    -0.180 C  
HETATM   13  C   UNL     1      -9.817   8.799  67.511  1.00  0.00    -0.232 C  
BRANCH  13  14
HETATM   14  C   UNL     1      -9.479   7.751  66.488  1.00  0.00    -0.201 C  
HETATM   15  O   UNL     1      -8.069   7.572  66.502  1.00  0.00    -0.113 OA 
HETATM   16  H   UNL     1      -7.855   6.910  65.856  1.00  0.00     0.000 HD 
BRANCH  14  17
HETATM   17  C   UNL     1     -10.146   6.407  66.800  1.00  0.00    -0.239 C  
BRANCH  17  18
HETATM   18  C   UNL     1     -10.939   6.427  68.109  1.00  0.00    -0.393 C  
BRANCH  18  19
HETATM   19  C   UNL     1     -10.447   5.358  69.086  1.00  0.00    -0.277 C  
BRANCH  19  20
HETATM   20  C   UNL     1     -11.015   5.600  70.485  1.00  0.00    -0.267 C  
HETATM   21  C   UNL     1     -11.698   6.954  70.585  1.00  0.00    -0.417 C  
ENDBRANCH  19  20
ENDBRANCH  18  19
ENDBRANCH  17  18
ENDBRANCH  14  17
ENDBRANCH  13  14
ENDBRANCH   5  12
BRANCH   6  22
HETATM   22  C   UNL     1     -13.057  13.243  72.397  1.00  0.00    -0.443 C  
BRANCH  22  23
HETATM   23  C   UNL     1     -14.266  14.089  72.000  1.00  0.00    -0.585 C  
BRANCH  23  24
HETATM   24  C   UNL     1     -13.987  15.570  72.238  1.00  0.00    -0.642 C  
HETATM   25  C   UNL     1     -12.562  15.942  71.919  1.00  0.00    -0.443 C  
HETATM   26  O   UNL     1     -11.768  16.362  72.746  1.00  0.00    -0.484 OA 
HETATM   27  O   UNL     1     -12.243  15.808  70.612  1.00  0.00    -0.392 OA 
ENDBRANCH  23  24
ENDBRANCH  22  23
ENDBRANCH   6  22
TORSDOF 9
ENDMDL
MODEL      100
REMARK 921   NORMALIZED FREE ENERGY PREDICTED BY IDOCK:   -4.94 KCAL/MOL
REMARK 922        TOTAL FREE ENERGY PREDICTED BY IDOCK:   -8.68 KCAL/MOL
REMARK 923 INTER-LIGAND FREE ENERGY PREDICTED BY IDOCK:   -7.89 KCAL/MOL
REMARK 924 INTRA-LIGAND FREE ENERGY PREDICTED BY IDOCK:   -0.79 KCAL/MOL
REMARK 927      BINDING AFFINITY PREDICTED BY RF-SCORE:    0.00 PKD
ROOT
HETATM    1  C   UNL     1     -11.608  11.118  67.884  1.00  0.00    -0.251 C  
HETATM    2  C   UNL     1     -10.506  10.184  67.417  1.00  0.00    -0.310 C  
HETATM    3  C   UNL     1      -9.554  10.071  68.606  1.00  0.00    -0.155 C  
HETATM    4  O   UNL     1      -8.472  10.993  68.474  1.00  0.00    -0.139 OA 
HETATM    5  C   UNL     1     -10.371  10.429  69.865  1.00  0.00    -0.231 C  
HETATM    6  C   UNL     1     -11.835  14.459  68.946  1.00  0.00    -0.355 C  
HETATM    7  C   UNL     1     -11.777  10.838  69.365  1.00  0.00    -0.378 C  
HETATM    8  H   UNL     1      -7.880  10.923  69.213  1.00  0.00     0.000 HD 
HETATM    9  C   UNL     1     -12.264  12.168  69.903  1.00  0.00    -0.240 C  
HETATM   10  O   UNL     1     -11.223  12.489  67.756  1.00  0.00    -0.238 OA 
HETATM   11  C   UNL     1     -11.762  13.123  68.865  1.00  0.00    -0.326 C  
ENDROOT
BRANCH   5  12
HETATM   12  C   UNL     1     -10.492   9.262  70.823  1.00  0.00    -0.343 C  
HETATM   13  C   UNL     1     -11.526   9.099  71.665  1.00  0.00    -0.451 C  
BRANCH  13  14
HETATM   14  C   UNL     1     -11.736   7.883  72.523  1.00  0.00    -0.367 C  
HETATM   15  O   UNL     1     -12.842   7.164  71.992  1.00  0.00    -0.476 OA 
HETATM   16  H   UNL     1     -12.974   6.396  72.534  1.00  0.00     0.000 HD 
BRANCH  14  17
HETATM   17  C   UNL     1     -10.510   6.963  72.525  1.00  0.00    -0.241 C  
BRANCH  17  18
HETATM   18  C   UNL     1     -10.762   5.635  71.806  1.00  0.00    -0.305 C  
BRANCH  18  19
HETATM   19  C   UNL     1     -10.105   4.462  72.534  1.00  0.00    -0.237 C  
BRANCH  19  20
HETATM   20  C   UNL     1     -11.059   3.860  73.565  1.00  0.00    -0.342 C  
HETATM   21  C   UNL     1     -11.270   2.373  73.330  1.00  0.00    -0.285 C  
ENDBRANCH  19  20
ENDBRANCH  18  19
ENDBRANCH  17  18
ENDBRANCH  14  17
ENDBRANCH  13  14
ENDBRANCH   5  12
BRANCH   6  22
HETATM   22  C   UNL     1     -11.377  15.401  67.870  1.00  0.00    -0.328 C  
BRANCH  22  23
HETATM   23  C   UNL     1     -11.021  16.775  68.435  1.00  0.00    -0.325 C  
BRANCH  23  24
HETATM   24  C   UNL     1      -9.672  17.243  67.897  1.00  0.00    -0.273 C  
HETATM   25  C   UNL     1      -9.600  17.171  66.394  1.00  0.00    -0.278 C  
HETATM   26  O   UNL     1      -8.822  16.453  65.784  1.00  0.00    -0.446 OA 
HETATM   27  O   UNL     1     -10.454  18.010  65.766  1.00  0.00    -0.573 OA 
ENDBRANCH  23  24
ENDBRANCH  22  23
ENDBRANCH   6  22
TORSDOF 9
ENDMDL
MODEL      101
REMARK 921   NORMALIZED FREE ENERGY PREDICTED BY IDOCK:   -4.93 KCAL/MOL
REMARK 922        TOTAL FREE ENERGY PREDICTED BY IDOCK:   -8.68 KCAL/MOL
REMARK 923 INTER-LIGAND FREE ENERGY PREDICTED BY IDOCK:   -7.29 KCAL/MOL
REMARK 924 INTRA-LIGAND FREE ENERGY PREDICTED BY IDOCK:   -1.38 KCAL/MOL
REMARK 927      BINDING AFFINITY PREDICTED BY RF-SCORE:    0.00 PKD
ROOT
HETATM    1  C   UNL     1      -8.966   9.898  67.210  1.00  0.00    -0.135 C  
HETATM    2  C   UNL     1      -7.510   9.890  67.643  1.00  0.00    -0.090 C  
HETATM    3  C   UNL     1      -7.540  10.212  69.135  1.00  0.00    -0.103 C  
HETATM    4  O   UNL     1      -7.327  11.607  69.353  1.00  0.00    -0.315 OA 
HETATM    5  C   UNL     1      -8.946   9.831  69.644  1.00  0.00    -0.229 C  
HETATM    6  C   UNL     1     -11.575  12.247  67.099  1.00  0.00    -0.423 C  
HETATM    7  C   UNL     1      -9.746   9.375  68.401  1.00  0.00    -0.163 C  
HETATM    8  H   UNL     1      -7.345  11.807  70.281  1.00  0.00     0.000 HD 
HETATM    9  C   UNL     1     -11.091  10.056  68.244  1.00  0.00    -0.247 C  
HETATM   10  O   UNL     1      -9.429  11.226  66.953  1.00  0.00    -0.173 OA 
HETATM   11  C   UNL     1     -10.736  11.251  67.414  1.00  0.00    -0.242 C  
ENDROOT
BRANCH   5  12
HETATM   12  C   UNL     1      -8.906   8.711  70.662  1.00  0.00    -0.192 C  
HETATM   13  C   UNL     1      -9.359   8.835  71.920  1.00  0.00    -0.343 C  
BRANCH  13  14
HETATM   14  C   UNL     1      -9.457   7.702  72.902  1.00  0.00    -0.206 C  
HETATM   15  O   UNL     1      -8.832   8.120  74.108  1.00  0.00    -0.370 OA 
HETATM   16  H   UNL     1      -8.894   7.404  74.729  1.00  0.00     0.000 HD 
BRANCH  14  17
HETATM   17  C   UNL     1     -10.912   7.331  73.208  1.00  0.00    -0.355 C  
BRANCH  17  18
HETATM   18  C   UNL     1     -11.919   8.204  72.455  1.00  0.00    -0.431 C  
BRANCH  18  19
HETATM   19  C   UNL     1     -12.551   7.456  71.280  1.00  0.00    -0.376 C  
BRANCH  19  20
HETATM   20  C   UNL     1     -11.720   6.229  70.908  1.00  0.00    -0.289 C  
HETATM   21  C   UNL     1     -11.338   6.237  69.437  1.00  0.00    -0.448 C  
ENDBRANCH  19  20
ENDBRANCH  18  19
ENDBRANCH  17  18
ENDBRANCH  14  17
ENDBRANCH  13  14
ENDBRANCH   5  12
BRANCH   6  22
HETATM   22  C   UNL     1     -11.219  13.409  66.217  1.00  0.00    -0.322 C  
BRANCH  22  23
HETATM   23  C   UNL     1     -11.899  14.698  66.678  1.00  0.00    -0.325 C  
BRANCH  23  24
HETATM   24  C   UNL     1     -10.875  15.665  67.264  1.00  0.00    -0.298 C  
HETATM   25  C   UNL     1      -9.821  16.058  66.262  1.00  0.00    -0.308 C  
HETATM   26  O   UNL     1      -8.633  15.801  66.388  1.00  0.00    -0.284 OA 
HETATM   27  O   UNL     1     -10.301  16.764  65.214  1.00  0.00    -0.622 OA 
ENDBRANCH  23  24
ENDBRANCH  22  23
ENDBRANCH   6  22
TORSDOF 9
ENDMDL
MODEL      102
REMARK 921   NORMALIZED FREE ENERGY PREDICTED BY IDOCK:   -4.93 KCAL/MOL
REMARK 922        TOTAL FREE ENERGY PREDICTED BY IDOCK:   -8.67 KCAL/MOL
REMARK 923 INTER-LIGAND FREE ENERGY PREDICTED BY IDOCK:   -7.48 KCAL/MOL
REMARK 924 INTRA-LIGAND FREE ENERGY PREDICTED BY IDOCK:   -1.18 KCAL/MOL
REMARK 927      BINDING AFFINITY PREDICTED BY RF-SCORE:    0.00 PKD
ROOT
HETATM    1  C   UNL     1     -12.212  11.276  69.218  1.00  0.00    -0.222 C  
HETATM    2  C   UNL     1     -11.061  10.761  68.372  1.00  0.00    -0.323 C  
HETATM    3  C   UNL     1      -9.930  10.494  69.364  1.00  0.00    -0.196 C  
HETATM    4  O   UNL     1      -9.043  11.610  69.426  1.00  0.00    -0.202 OA 
HETATM    5  C   UNL     1     -10.589  10.293  70.745  1.00  0.00     0.096 C  
HETATM    6  C   UNL     1     -12.799  14.038  71.307  1.00  0.00    -0.430 C  
HETATM    7  C   UNL     1     -12.102  10.543  70.541  1.00  0.00    -0.437 C  
HETATM    8  H   UNL     1      -8.339  11.444  70.043  1.00  0.00     0.000 HD 
HETATM    9  C   UNL     1     -12.705  11.530  71.521  1.00  0.00    -0.439 C  
HETATM   10  O   UNL     1     -12.074  12.671  69.497  1.00  0.00    -0.271 OA 
HETATM   11  C   UNL     1     -12.528  12.829  70.797  1.00  0.00    -0.271 C  
ENDROOT
BRANCH   5  12
HETATM   12  C   UNL     1     -10.372   8.897  71.288  1.00  0.00    -0.355 C  
HETATM   13  C   UNL     1     -11.364   8.122  71.757  1.00  0.00    -0.333 C  
BRANCH  13  14
HETATM   14  C   UNL     1     -11.196   6.687  72.171  1.00  0.00    -0.264 C  
HETATM   15  O   UNL     1     -12.490   6.149  72.404  1.00  0.00    -0.542 OA 
HETATM   16  H   UNL     1     -12.384   5.242  72.665  1.00  0.00     0.000 HD 
BRANCH  14  17
HETATM   17  C   UNL     1     -10.508   5.853  71.084  1.00  0.00    -0.291 C  
BRANCH  17  18
HETATM   18  C   UNL     1     -11.198   5.965  69.722  1.00  0.00    -0.331 C  
BRANCH  18  19
HETATM   19  C   UNL     1     -10.335   5.389  68.599  1.00  0.00    -0.229 C  
BRANCH  19  20
HETATM   20  C   UNL     1     -10.785   5.925  67.240  1.00  0.00    -0.380 C  
HETATM   21  C   UNL     1     -10.242   5.081  66.099  1.00  0.00    -0.288 C  
ENDBRANCH  19  20
ENDBRANCH  18  19
ENDBRANCH  17  18
ENDBRANCH  14  17
ENDBRANCH  13  14
ENDBRANCH   5  12
BRANCH   6  22
HETATM   22  C   UNL     1     -12.670  15.327  70.548  1.00  0.00    -0.440 C  
BRANCH  22  23
HETATM   23  C   UNL     1     -11.227  15.831  70.530  1.00  0.00    -0.392 C  
BRANCH  23  24
HETATM   24  C   UNL     1     -10.829  16.270  69.125  1.00  0.00    -0.314 C  
HETATM   25  C   UNL     1      -9.426  15.849  68.770  1.00  0.00    -0.221 C  
HETATM   26  O   UNL     1      -8.521  16.633  68.531  1.00  0.00    -0.213 OA 
HETATM   27  O   UNL     1      -9.261  14.510  68.699  1.00  0.00    -0.194 OA 
ENDBRANCH  23  24
ENDBRANCH  22  23
ENDBRANCH   6  22
TORSDOF 9
ENDMDL
MODEL      103
REMARK 921   NORMALIZED FREE ENERGY PREDICTED BY IDOCK:   -4.92 KCAL/MOL
REMARK 922        TOTAL FREE ENERGY PREDICTED BY IDOCK:   -8.66 KCAL/MOL
REMARK 923 INTER-LIGAND FREE ENERGY PREDICTED BY IDOCK:   -6.98 KCAL/MOL
REMARK 924 INTRA-LIGAND FREE ENERGY PREDICTED BY IDOCK:   -1.68 KCAL/MOL
REMARK 927      BINDING AFFINITY PREDICTED BY RF-SCORE:    0.00 PKD
ROOT
HETATM    1  C   UNL     1     -11.715  10.890  68.878  1.00  0.00    -0.306 C  
HETATM    2  C   UNL     1     -11.935  12.393  68.856  1.00  0.00    -0.289 C  
HETATM    3  C   UNL     1     -10.685  12.965  68.191  1.00  0.00    -0.241 C  
HETATM    4  O   UNL     1      -9.738  13.381  69.174  1.00  0.00    -0.385 OA 
HETATM    5  C   UNL     1     -10.072  11.829  67.346  1.00  0.00    -0.212 C  
HETATM    6  C   UNL     1      -9.398   8.678  70.319  1.00  0.00    -0.180 C  
HETATM    7  C   UNL     1     -10.938  10.576  67.614  1.00  0.00    -0.375 C  
HETATM    8  H   UNL     1      -8.961  13.737  68.761  1.00  0.00     0.000 HD 
HETATM    9  C   UNL     1     -10.144   9.346  68.008  1.00  0.00    -0.230 C  
HETATM   10  O   UNL     1     -10.898  10.496  69.983  1.00  0.00    -0.279 OA 
HETATM   11  C   UNL     1     -10.100   9.472  69.499  1.00  0.00    -0.206 C  
ENDROOT
BRANCH   5  12
HETATM   12  C   UNL     1     -10.080  12.145  65.865  1.00  0.00    -0.270 C  
HETATM   13  C   UNL     1     -10.444  11.262  64.921  1.00  0.00    -0.375 C  
BRANCH  13  14
HETATM   14  C   UNL     1     -10.593  11.593  63.463  1.00  0.00    -0.435 C  
HETATM   15  O   UNL     1     -10.212  12.951  63.286  1.00  0.00    -0.450 OA 
HETATM   16  H   UNL     1     -10.306  13.161  62.364  1.00  0.00     0.000 HD 
BRANCH  14  17
HETATM   17  C   UNL     1      -9.698  10.716  62.580  1.00  0.00    -0.228 C  
BRANCH  17  18
HETATM   18  C   UNL     1      -8.439  10.233  63.305  1.00  0.00    -0.181 C  
BRANCH  18  19
HETATM   19  C   UNL     1      -8.346   8.707  63.326  1.00  0.00    -0.137 C  
BRANCH  19  20
HETATM   20  C   UNL     1      -8.246   8.190  64.761  1.00  0.00    -0.137 C  
HETATM   21  C   UNL     1      -7.403   9.109  65.629  1.00  0.00    -0.086 C  
ENDBRANCH  19  20
ENDBRANCH  18  19
ENDBRANCH  17  18
ENDBRANCH  14  17
ENDBRANCH  13  14
ENDBRANCH   5  12
BRANCH   6  22
HETATM   22  C   UNL     1      -9.409   8.783  71.817  1.00  0.00    -0.350 C  
BRANCH  22  23
HETATM   23  C   UNL     1      -9.889   7.488  72.470  1.00  0.00    -0.226 C  
BRANCH  23  24
HETATM   24  C   UNL     1     -11.230   7.702  73.165  1.00  0.00    -0.311 C  
HETATM   25  C   UNL     1     -12.310   8.129  72.205  1.00  0.00    -0.338 C  
HETATM   26  O   UNL     1     -12.885   9.206  72.263  1.00  0.00    -0.392 OA 
HETATM   27  O   UNL     1     -12.623   7.191  71.285  1.00  0.00    -0.364 OA 
ENDBRANCH  23  24
ENDBRANCH  22  23
ENDBRANCH   6  22
TORSDOF 9
ENDMDL
MODEL      104
REMARK 921   NORMALIZED FREE ENERGY PREDICTED BY IDOCK:   -4.90 KCAL/MOL
REMARK 922        TOTAL FREE ENERGY PREDICTED BY IDOCK:   -8.63 KCAL/MOL
REMARK 923 INTER-LIGAND FREE ENERGY PREDICTED BY IDOCK:   -7.51 KCAL/MOL
REMARK 924 INTRA-LIGAND FREE ENERGY PREDICTED BY IDOCK:   -1.12 KCAL/MOL
REMARK 927      BINDING AFFINITY PREDICTED BY RF-SCORE:    0.00 PKD
ROOT
HETATM    1  C   UNL     1     -12.160  11.170  69.009  1.00  0.00    -0.246 C  
HETATM    2  C   UNL     1     -11.059  10.486  68.218  1.00  0.00    -0.340 C  
HETATM    3  C   UNL     1      -9.975  10.165  69.245  1.00  0.00    -0.219 C  
HETATM    4  O   UNL     1      -8.976  11.184  69.257  1.00  0.00    -0.388 OA 
HETATM    5  C   UNL     1     -10.669  10.120  70.622  1.00  0.00    -0.243 C  
HETATM    6  C   UNL     1     -12.479  14.103  70.916  1.00  0.00    -0.436 C  
HETATM    7  C   UNL     1     -12.144  10.513  70.376  1.00  0.00    -0.418 C  
HETATM    8  H   UNL     1      -8.302  10.985  69.895  1.00  0.00     0.000 HD 
HETATM    9  C   UNL     1     -12.653  11.617  71.282  1.00  0.00    -0.425 C  
HETATM   10  O   UNL     1     -11.880  12.558  69.206  1.00  0.00    -0.304 OA 
HETATM   11  C   UNL     1     -12.331  12.842  70.485  1.00  0.00    -0.283 C  
ENDROOT
BRANCH   5  12
HETATM   12  C   UNL     1     -10.607   8.745  71.253  1.00  0.00    -0.332 C  
HETATM   13  C   UNL     1     -11.689   8.084  71.697  1.00  0.00    -0.325 C  
BRANCH  13  14
HETATM   14  C   UNL     1     -11.671   6.668  72.198  1.00  0.00    -0.304 C  
HETATM   15  O   UNL     1     -13.013   6.201  72.226  1.00  0.00    -0.442 OA 
HETATM   16  H   UNL     1     -13.001   5.306  72.543  1.00  0.00     0.000 HD 
BRANCH  14  17
HETATM   17  C   UNL     1     -10.852   5.747  71.286  1.00  0.00    -0.313 C  
BRANCH  17  18
HETATM   18  C   UNL     1      -9.654   5.115  71.999  1.00  0.00    -0.191 C  
BRANCH  18  19
HETATM   19  C   UNL     1      -8.379   5.937  71.803  1.00  0.00    -0.119 C  
BRANCH  19  20
HETATM   20  C   UNL     1      -7.771   6.325  73.150  1.00  0.00    -0.096 C  
HETATM   21  C   UNL     1      -8.576   7.419  73.832  1.00  0.00    -0.245 C  
ENDBRANCH  19  20
ENDBRANCH  18  19
ENDBRANCH  17  18
ENDBRANCH  14  17
ENDBRANCH  13  14
ENDBRANCH   5  12
BRANCH   6  22
HETATM   22  C   UNL     1     -12.206  15.322  70.083  1.00  0.00    -0.402 C  
BRANCH  22  23
HETATM   23  C   UNL     1     -10.709  15.601  69.963  1.00  0.00    -0.345 C  
BRANCH  23  24
HETATM   24  C   UNL     1     -10.450  16.724  68.964  1.00  0.00    -0.336 C  
HETATM   25  C   UNL     1     -10.018  16.203  67.617  1.00  0.00    -0.241 C  
HETATM   26  O   UNL     1      -8.928  16.433  67.117  1.00  0.00    -0.194 OA 
HETATM   27  O   UNL     1     -10.968  15.481  66.982  1.00  0.00    -0.321 OA 
ENDBRANCH  23  24
ENDBRANCH  22  23
ENDBRANCH   6  22
TORSDOF 9
ENDMDL
MODEL      105
REMARK 921   NORMALIZED FREE ENERGY PREDICTED BY IDOCK:   -4.90 KCAL/MOL
REMARK 922        TOTAL FREE ENERGY PREDICTED BY IDOCK:   -8.62 KCAL/MOL
REMARK 923 INTER-LIGAND FREE ENERGY PREDICTED BY IDOCK:   -7.39 KCAL/MOL
REMARK 924 INTRA-LIGAND FREE ENERGY PREDICTED BY IDOCK:   -1.23 KCAL/MOL
REMARK 927      BINDING AFFINITY PREDICTED BY RF-SCORE:    0.00 PKD
ROOT
HETATM    1  C   UNL     1     -10.798   6.907  67.176  1.00  0.00    -0.377 C  
HETATM    2  C   UNL     1     -10.469   5.468  66.820  1.00  0.00    -0.355 C  
HETATM    3  C   UNL     1      -9.046   5.250  67.329  1.00  0.00    -0.112 C  
HETATM    4  O   UNL     1      -8.101   5.453  66.278  1.00  0.00    -0.104 OA 
HETATM    5  C   UNL     1      -8.804   6.299  68.435  1.00  0.00    -0.114 C  
HETATM    6  C   UNL     1      -9.547  10.084  66.349  1.00  0.00    -0.248 C  
HETATM    7  C   UNL     1     -10.078   7.176  68.484  1.00  0.00    -0.177 C  
HETATM    8  H   UNL     1      -7.215   5.317  66.594  1.00  0.00     0.000 HD 
HETATM    9  C   UNL     1      -9.808   8.666  68.415  1.00  0.00    -0.189 C  
HETATM   10  O   UNL     1     -10.272   7.820  66.210  1.00  0.00    -0.082 OA 
HETATM   11  C   UNL     1      -9.849   8.919  66.940  1.00  0.00    -0.223 C  
ENDROOT
BRANCH   5  12
HETATM   12  C   UNL     1      -8.573   5.663  69.789  1.00  0.00    -0.121 C  
HETATM   13  C   UNL     1      -9.198   6.059  70.911  1.00  0.00    -0.165 C  
BRANCH  13  14
HETATM   14  C   UNL     1      -9.089   5.357  72.235  1.00  0.00    -0.142 C  
HETATM   15  O   UNL     1      -7.893   5.798  72.863  1.00  0.00    -0.103 OA 
HETATM   16  H   UNL     1      -7.825   5.355  73.699  1.00  0.00     0.000 HD 
BRANCH  14  17
HETATM   17  C   UNL     1     -10.272   5.680  73.155  1.00  0.00    -0.212 C  
BRANCH  17  18
HETATM   18  C   UNL     1     -10.365   7.167  73.504  1.00  0.00    -0.412 C  
BRANCH  18  19
HETATM   19  C   UNL     1     -11.544   7.842  72.802  1.00  0.00    -0.387 C  
BRANCH  19  20
HETATM   20  C   UNL     1     -11.058   8.964  71.884  1.00  0.00    -0.442 C  
HETATM   21  C   UNL     1     -12.214   9.628  71.153  1.00  0.00    -0.437 C  
ENDBRANCH  19  20
ENDBRANCH  18  19
ENDBRANCH  17  18
ENDBRANCH  14  17
ENDBRANCH  13  14
ENDBRANCH   5  12
BRANCH   6  22
HETATM   22  C   UNL     1      -9.649  10.337  64.873  1.00  0.00    -0.365 C  
BRANCH  22  23
HETATM   23  C   UNL     1     -10.175  11.741  64.576  1.00  0.00    -0.327 C  
BRANCH  23  24
HETATM   24  C   UNL     1     -11.428  12.030  65.396  1.00  0.00    -0.361 C  
HETATM   25  C   UNL     1     -12.459  12.800  64.612  1.00  0.00    -0.456 C  
HETATM   26  O   UNL     1     -12.838  13.923  64.907  1.00  0.00    -0.687 OA 
HETATM   27  O   UNL     1     -12.968  12.117  63.563  1.00  0.00    -0.794 OA 
ENDBRANCH  23  24
ENDBRANCH  22  23
ENDBRANCH   6  22
TORSDOF 9
ENDMDL
MODEL      106
REMARK 921   NORMALIZED FREE ENERGY PREDICTED BY IDOCK:   -4.86 KCAL/MOL
REMARK 922        TOTAL FREE ENERGY PREDICTED BY IDOCK:   -8.57 KCAL/MOL
REMARK 923 INTER-LIGAND FREE ENERGY PREDICTED BY IDOCK:   -7.06 KCAL/MOL
REMARK 924 INTRA-LIGAND FREE ENERGY PREDICTED BY IDOCK:   -1.50 KCAL/MOL
REMARK 927      BINDING AFFINITY PREDICTED BY RF-SCORE:    0.00 PKD
ROOT
HETATM    1  C   UNL     1      -9.965  14.367  67.144  1.00  0.00    -0.253 C  
HETATM    2  C   UNL     1      -8.494  14.723  67.021  1.00  0.00    -0.250 C  
HETATM    3  C   UNL     1      -7.754  13.601  67.746  1.00  0.00    -0.164 C  
HETATM    4  O   UNL     1      -7.466  13.978  69.092  1.00  0.00    -0.241 OA 
HETATM    5  C   UNL     1      -8.697  12.380  67.754  1.00  0.00    -0.176 C  
HETATM    6  C   UNL     1     -12.271  13.939  69.759  1.00  0.00    -0.388 C  
HETATM    7  C   UNL     1     -10.020  12.852  67.106  1.00  0.00    -0.240 C  
HETATM    8  H   UNL     1      -7.005  13.280  69.543  1.00  0.00     0.000 HD 
HETATM    9  C   UNL     1     -11.258  12.542  67.925  1.00  0.00    -0.312 C  
HETATM   10  O   UNL     1     -10.500  14.776  68.405  1.00  0.00    -0.233 OA 
HETATM   11  C   UNL     1     -11.385  13.773  68.767  1.00  0.00    -0.283 C  
ENDROOT
BRANCH   5  12
HETATM   12  C   UNL     1      -8.135  11.213  66.970  1.00  0.00    -0.148 C  
HETATM   13  C   UNL     1      -8.502  10.920  65.711  1.00  0.00    -0.155 C  
BRANCH  13  14
HETATM   14  C   UNL     1      -7.860   9.856  64.867  1.00  0.00    -0.136 C  
HETATM   15  O   UNL     1      -6.656   9.460  65.511  1.00  0.00    -0.068 OA 
HETATM   16  H   UNL     1      -6.250   8.788  64.977  1.00  0.00     0.000 HD 
BRANCH  14  17
HETATM   17  C   UNL     1      -8.759   8.625  64.712  1.00  0.00    -0.099 C  
BRANCH  17  18
HETATM   18  C   UNL     1      -8.226   7.401  65.461  1.00  0.00    -0.135 C  
BRANCH  18  19
HETATM   19  C   UNL     1      -8.804   7.304  66.873  1.00  0.00    -0.138 C  
BRANCH  19  20
HETATM   20  C   UNL     1     -10.194   7.937  66.935  1.00  0.00    -0.380 C  
HETATM   21  C   UNL     1     -10.382   8.751  68.205  1.00  0.00    -0.266 C  
ENDBRANCH  19  20
ENDBRANCH  18  19
ENDBRANCH  17  18
ENDBRANCH  14  17
ENDBRANCH  13  14
ENDBRANCH   5  12
BRANCH   6  22
HETATM   22  C   UNL     1     -12.424  15.202  70.557  1.00  0.00    -0.429 C  
BRANCH  22  23
HETATM   23  C   UNL     1     -13.793  15.285  71.229  1.00  0.00    -0.562 C  
BRANCH  23  24
HETATM   24  C   UNL     1     -13.783  14.542  72.562  1.00  0.00    -0.580 C  
HETATM   25  C   UNL     1     -12.883  15.200  73.575  1.00  0.00    -0.526 C  
HETATM   26  O   UNL     1     -11.893  14.667  74.052  1.00  0.00    -0.280 OA 
HETATM   27  O   UNL     1     -13.292  16.433  73.949  1.00  0.00    -0.623 OA 
ENDBRANCH  23  24
ENDBRANCH  22  23
ENDBRANCH   6  22
TORSDOF 9
ENDMDL
MODEL      107
REMARK 921   NORMALIZED FREE ENERGY PREDICTED BY IDOCK:   -4.85 KCAL/MOL
REMARK 922        TOTAL FREE ENERGY PREDICTED BY IDOCK:   -8.56 KCAL/MOL
REMARK 923 INTER-LIGAND FREE ENERGY PREDICTED BY IDOCK:   -7.98 KCAL/MOL
REMARK 924 INTRA-LIGAND FREE ENERGY PREDICTED BY IDOCK:   -0.57 KCAL/MOL
REMARK 927      BINDING AFFINITY PREDICTED BY RF-SCORE:    0.00 PKD
ROOT
HETATM    1  C   UNL     1     -10.314  11.852  64.167  1.00  0.00    -0.336 C  
HETATM    2  C   UNL     1     -11.438  12.451  63.340  1.00  0.00    -0.526 C  
HETATM    3  C   UNL     1     -12.138  13.432  64.278  1.00  0.00    -0.424 C  
HETATM    4  O   UNL     1     -13.269  12.818  64.894  1.00  0.00    -0.808 OA 
HETATM    5  C   UNL     1     -11.114  13.815  65.367  1.00  0.00    -0.304 C  
HETATM    6  C   UNL     1     -10.054   9.926  67.093  1.00  0.00    -0.270 C  
HETATM    7  C   UNL     1      -9.852  12.965  65.089  1.00  0.00    -0.087 C  
HETATM    8  H   UNL     1     -13.706  13.428  65.477  1.00  0.00     0.000 HD 
HETATM    9  C   UNL     1      -9.337  12.206  66.296  1.00  0.00    -0.221 C  
HETATM   10  O   UNL     1     -10.783  10.786  64.996  1.00  0.00    -0.229 OA 
HETATM   11  C   UNL     1     -10.075  10.908  66.181  1.00  0.00    -0.239 C  
ENDROOT
BRANCH   5  12
HETATM   12  C   UNL     1     -10.756  15.285  65.329  1.00  0.00    -0.433 C  
HETATM   13  C   UNL     1     -10.281  15.960  66.389  1.00  0.00    -0.311 C  
BRANCH  13  14
HETATM   14  C   UNL     1      -9.790  17.379  66.340  1.00  0.00    -0.302 C  
HETATM   15  O   UNL     1     -10.716  18.131  65.567  1.00  0.00    -0.599 OA 
HETATM   16  H   UNL     1     -10.405  19.028  65.536  1.00  0.00     0.000 HD 
BRANCH  14  17
HETATM   17  C   UNL     1      -9.697  18.004  67.737  1.00  0.00    -0.292 C  
BRANCH  17  18
HETATM   18  C   UNL     1      -8.383  17.673  68.449  1.00  0.00    -0.290 C  
BRANCH  18  19
HETATM   19  C   UNL     1      -7.483  18.902  68.579  1.00  0.00    -0.339 C  
BRANCH  19  20
HETATM   20  C   UNL     1      -7.041  19.398  67.202  1.00  0.00    -0.218 C  
HETATM   21  C   UNL     1      -5.528  19.488  67.100  1.00  0.00    -0.167 C  
ENDBRANCH  19  20
ENDBRANCH  18  19
ENDBRANCH  17  18
ENDBRANCH  14  17
ENDBRANCH  13  14
ENDBRANCH   5  12
BRANCH   6  22
HETATM   22  C   UNL     1     -10.754   8.607  66.936  1.00  0.00    -0.152 C  
BRANCH  22  23
HETATM   23  C   UNL     1      -9.918   7.454  67.490  1.00  0.00    -0.225 C  
BRANCH  23  24
HETATM   24  C   UNL     1     -10.817   6.298  67.918  1.00  0.00    -0.417 C  
HETATM   25  C   UNL     1     -10.982   6.226  69.414  1.00  0.00    -0.375 C  
HETATM   26  O   UNL     1     -10.605   5.285  70.095  1.00  0.00    -0.290 OA 
HETATM   27  O   UNL     1     -11.628   7.288  69.943  1.00  0.00    -0.127 OA 
ENDBRANCH  23  24
ENDBRANCH  22  23
ENDBRANCH   6  22
TORSDOF 9
ENDMDL
MODEL      108
REMARK 921   NORMALIZED FREE ENERGY PREDICTED BY IDOCK:   -4.84 KCAL/MOL
REMARK 922        TOTAL FREE ENERGY PREDICTED BY IDOCK:   -8.54 KCAL/MOL
REMARK 923 INTER-LIGAND FREE ENERGY PREDICTED BY IDOCK:   -7.69 KCAL/MOL
REMARK 924 INTRA-LIGAND FREE ENERGY PREDICTED BY IDOCK:   -0.85 KCAL/MOL
REMARK 927      BINDING AFFINITY PREDICTED BY RF-SCORE:    0.00 PKD
ROOT
HETATM    1  C   UNL     1      -8.376  15.828  66.707  1.00  0.00    -0.274 C  
HETATM    2  C   UNL     1      -7.385  15.000  67.506  1.00  0.00    -0.228 C  
HETATM    3  C   UNL     1      -8.231  14.254  68.535  1.00  0.00    -0.145 C  
HETATM    4  O   UNL     1      -8.247  14.957  69.777  1.00  0.00    -0.430 OA 
HETATM    5  C   UNL     1      -9.666  14.193  67.970  1.00  0.00    -0.226 C  
HETATM    6  C   UNL     1     -10.645  18.426  67.376  1.00  0.00    -0.445 C  
HETATM    7  C   UNL     1      -9.643  14.997  66.648  1.00  0.00    -0.281 C  
HETATM    8  H   UNL     1      -8.773  14.493  70.417  1.00  0.00     0.000 HD 
HETATM    9  C   UNL     1     -10.728  16.050  66.544  1.00  0.00    -0.238 C  
HETATM   10  O   UNL     1      -8.703  17.047  67.380  1.00  0.00    -0.199 OA 
HETATM   11  C   UNL     1     -10.052  17.249  67.131  1.00  0.00    -0.297 C  
ENDROOT
BRANCH   5  12
HETATM   12  C   UNL     1     -10.115  12.774  67.694  1.00  0.00    -0.220 C  
HETATM   13  C   UNL     1     -10.420  11.892  68.660  1.00  0.00    -0.231 C  
BRANCH  13  14
HETATM   14  C   UNL     1     -10.999  10.528  68.411  1.00  0.00    -0.261 C  
HETATM   15  O   UNL     1     -12.414  10.642  68.462  1.00  0.00    -0.719 OA 
HETATM   16  H   UNL     1     -12.780   9.780  68.305  1.00  0.00     0.000 HD 
BRANCH  14  17
HETATM   17  C   UNL     1     -10.602   9.977  67.037  1.00  0.00    -0.279 C  
BRANCH  17  18
HETATM   18  C   UNL     1      -9.390   9.044  67.098  1.00  0.00    -0.184 C  
BRANCH  18  19
HETATM   19  C   UNL     1      -9.647   7.731  66.357  1.00  0.00    -0.235 C  
BRANCH  19  20
HETATM   20  C   UNL     1     -10.827   6.982  66.975  1.00  0.00    -0.413 C  
HETATM   21  C   UNL     1     -10.633   5.477  66.904  1.00  0.00    -0.348 C  
ENDBRANCH  19  20
ENDBRANCH  18  19
ENDBRANCH  17  18
ENDBRANCH  14  17
ENDBRANCH  13  14
ENDBRANCH   5  12
BRANCH   6  22
HETATM   22  C   UNL     1      -9.937  19.637  67.912  1.00  0.00    -0.527 C  
BRANCH  22  23
HETATM   23  C   UNL     1      -9.162  20.369  66.818  1.00  0.00    -0.404 C  
BRANCH  23  24
HETATM   24  C   UNL     1      -7.668  20.081  66.934  1.00  0.00    -0.327 C  
HETATM   25  C   UNL     1      -7.061  19.669  65.618  1.00  0.00    -0.300 C  
HETATM   26  O   UNL     1      -6.559  18.575  65.413  1.00  0.00    -0.379 OA 
HETATM   27  O   UNL     1      -7.083  20.642  64.680  1.00  0.00    -0.103 OA 
ENDBRANCH  23  24
ENDBRANCH  22  23
ENDBRANCH   6  22
TORSDOF 9
ENDMDL
MODEL      109
REMARK 921   NORMALIZED FREE ENERGY PREDICTED BY IDOCK:   -4.82 KCAL/MOL
REMARK 922        TOTAL FREE ENERGY PREDICTED BY IDOCK:   -8.51 KCAL/MOL
REMARK 923 INTER-LIGAND FREE ENERGY PREDICTED BY IDOCK:   -7.31 KCAL/MOL
REMARK 924 INTRA-LIGAND FREE ENERGY PREDICTED BY IDOCK:   -1.20 KCAL/MOL
REMARK 927      BINDING AFFINITY PREDICTED BY RF-SCORE:    0.00 PKD
ROOT
HETATM    1  C   UNL     1     -10.199   9.718  66.466  1.00  0.00    -0.219 C  
HETATM    2  C   UNL     1      -9.305   8.613  65.932  1.00  0.00    -0.262 C  
HETATM    3  C   UNL     1      -8.373   8.264  67.091  1.00  0.00    -0.123 C  
HETATM    4  O   UNL     1      -7.137   8.966  66.971  1.00  0.00    -0.077 OA 
HETATM    5  C   UNL     1      -9.086   8.712  68.384  1.00  0.00    -0.138 C  
HETATM    6  C   UNL     1      -9.760  12.986  67.677  1.00  0.00    -0.212 C  
HETATM    7  C   UNL     1     -10.394   9.406  67.937  1.00  0.00    -0.276 C  
HETATM    8  H   UNL     1      -6.557   8.749  67.692  1.00  0.00     0.000 HD 
HETATM    9  C   UNL     1     -10.607  10.778  68.544  1.00  0.00    -0.223 C  
HETATM   10  O   UNL     1      -9.559  10.994  66.388  1.00  0.00    -0.189 OA 
HETATM   11  C   UNL     1      -9.947  11.667  67.536  1.00  0.00    -0.187 C  
ENDROOT
BRANCH   5  12
HETATM   12  C   UNL     1      -9.413   7.546  69.294  1.00  0.00    -0.154 C  
HETATM   13  C   UNL     1     -10.380   6.651  69.032  1.00  0.00    -0.216 C  
BRANCH  13  14
HETATM   14  C   UNL     1     -10.631   5.413  69.846  1.00  0.00    -0.281 C  
HETATM   15  O   UNL     1      -9.418   4.674  69.896  1.00  0.00    -0.132 OA 
HETATM   16  H   UNL     1      -9.576   3.892  70.410  1.00  0.00     0.000 HD 
BRANCH  14  17
HETATM   17  C   UNL     1     -11.061   5.744  71.279  1.00  0.00    -0.267 C  
BRANCH  17  18
HETATM   18  C   UNL     1     -12.189   6.778  71.337  1.00  0.00    -0.413 C  
BRANCH  18  19
HETATM   19  C   UNL     1     -11.799   7.997  72.173  1.00  0.00    -0.401 C  
BRANCH  19  20
HETATM   20  C   UNL     1     -10.703   7.639  73.177  1.00  0.00    -0.445 C  
HETATM   21  C   UNL     1      -9.388   8.319  72.835  1.00  0.00    -0.324 C  
ENDBRANCH  19  20
ENDBRANCH  18  19
ENDBRANCH  17  18
ENDBRANCH  14  17
ENDBRANCH  13  14
ENDBRANCH   5  12
BRANCH   6  22
HETATM   22  C   UNL     1      -9.148  13.873  66.631  1.00  0.00    -0.209 C  
BRANCH  22  23
HETATM   23  C   UNL     1     -10.167  14.282  65.570  1.00  0.00    -0.379 C  
BRANCH  23  24
HETATM   24  C   UNL     1     -11.013  15.453  66.061  1.00  0.00    -0.286 C  
HETATM   25  C   UNL     1     -10.981  16.621  65.110  1.00  0.00    -0.151 C  
HETATM   26  O   UNL     1     -10.527  17.718  65.396  1.00  0.00    -0.641 OA 
HETATM   27  O   UNL     1     -11.541  16.361  63.908  1.00  0.00    -1.100 OA 
ENDBRANCH  23  24
ENDBRANCH  22  23
ENDBRANCH   6  22
TORSDOF 9
ENDMDL
MODEL      110
REMARK 921   NORMALIZED FREE ENERGY PREDICTED BY IDOCK:   -4.82 KCAL/MOL
REMARK 922        TOTAL FREE ENERGY PREDICTED BY IDOCK:   -8.50 KCAL/MOL
REMARK 923 INTER-LIGAND FREE ENERGY PREDICTED BY IDOCK:   -6.99 KCAL/MOL
REMARK 924 INTRA-LIGAND FREE ENERGY PREDICTED BY IDOCK:   -1.52 KCAL/MOL
REMARK 927      BINDING AFFINITY PREDICTED BY RF-SCORE:    0.00 PKD
ROOT
HETATM    1  C   UNL     1      -8.548  15.805  66.647  1.00  0.00    -0.287 C  
HETATM    2  C   UNL     1      -7.559  14.908  67.369  1.00  0.00    -0.232 C  
HETATM    3  C   UNL     1      -8.383  14.182  68.429  1.00  0.00    -0.161 C  
HETATM    4  O   UNL     1      -8.293  14.854  69.685  1.00  0.00    -0.421 OA 
HETATM    5  C   UNL     1      -9.849  14.208  67.946  1.00  0.00    -0.224 C  
HETATM    6  C   UNL     1     -10.637  18.498  67.501  1.00  0.00    -0.461 C  
HETATM    7  C   UNL     1      -9.859  15.041  66.643  1.00  0.00    -0.266 C  
HETATM    8  H   UNL     1      -8.806  14.402  70.345  1.00  0.00     0.000 HD 
HETATM    9  C   UNL     1     -10.892  16.150  66.624  1.00  0.00    -0.149 C  
HETATM   10  O   UNL     1      -8.773  17.022  67.364  1.00  0.00    -0.199 OA 
HETATM   11  C   UNL     1     -10.121  17.299  67.197  1.00  0.00    -0.297 C  
ENDROOT
BRANCH   5  12
HETATM   12  C   UNL     1     -10.387  12.820  67.667  1.00  0.00    -0.221 C  
HETATM   13  C   UNL     1     -10.421  11.840  68.584  1.00  0.00    -0.242 C  
BRANCH  13  14
HETATM   14  C   UNL     1     -11.075  10.503  68.372  1.00  0.00    -0.281 C  
HETATM   15  O   UNL     1     -12.463  10.652  68.641  1.00  0.00    -0.788 OA 
HETATM   16  H   UNL     1     -12.876   9.808  68.507  1.00  0.00     0.000 HD 
BRANCH  14  17
HETATM   17  C   UNL     1     -10.906  10.003  66.933  1.00  0.00    -0.152 C  
BRANCH  17  18
HETATM   18  C   UNL     1      -9.728   9.039  66.774  1.00  0.00    -0.279 C  
BRANCH  18  19
HETATM   19  C   UNL     1      -8.587   9.666  65.972  1.00  0.00    -0.144 C  
BRANCH  19  20
HETATM   20  C   UNL     1      -7.362   9.891  66.858  1.00  0.00    -0.091 C  
HETATM   21  C   UNL     1      -6.837  11.312  66.736  1.00  0.00    -0.140 C  
ENDBRANCH  19  20
ENDBRANCH  18  19
ENDBRANCH  17  18
ENDBRANCH  14  17
ENDBRANCH  13  14
ENDBRANCH   5  12
BRANCH   6  22
HETATM   22  C   UNL     1      -9.837  19.658  68.022  1.00  0.00    -0.524 C  
BRANCH  22  23
HETATM   23  C   UNL     1      -9.190  20.452  66.888  1.00  0.00    -0.450 C  
BRANCH  23  24
HETATM   24  C   UNL     1      -7.727  20.745  67.205  1.00  0.00    -0.332 C  
HETATM   25  C   UNL     1      -6.812  19.634  66.759  1.00  0.00    -0.194 C  
HETATM   26  O   UNL     1      -6.132  18.966  67.523  1.00  0.00    -0.181 OA 
HETATM   27  O   UNL     1      -6.775  19.463  65.420  1.00  0.00    -0.268 OA 
ENDBRANCH  23  24
ENDBRANCH  22  23
ENDBRANCH   6  22
TORSDOF 9
ENDMDL
MODEL      111
REMARK 921   NORMALIZED FREE ENERGY PREDICTED BY IDOCK:   -4.82 KCAL/MOL
REMARK 922        TOTAL FREE ENERGY PREDICTED BY IDOCK:   -8.50 KCAL/MOL
REMARK 923 INTER-LIGAND FREE ENERGY PREDICTED BY IDOCK:   -7.53 KCAL/MOL
REMARK 924 INTRA-LIGAND FREE ENERGY PREDICTED BY IDOCK:   -0.98 KCAL/MOL
REMARK 927      BINDING AFFINITY PREDICTED BY RF-SCORE:    0.00 PKD
ROOT
HETATM    1  C   UNL     1      -9.876  11.927  67.382  1.00  0.00    -0.183 C  
HETATM    2  C   UNL     1      -8.378  11.745  67.213  1.00  0.00    -0.162 C  
HETATM    3  C   UNL     1      -7.911  11.081  68.506  1.00  0.00    -0.137 C  
HETATM    4  O   UNL     1      -7.426  12.058  69.426  1.00  0.00    -0.337 OA 
HETATM    5  C   UNL     1      -9.144  10.381  69.116  1.00  0.00    -0.197 C  
HETATM    6  C   UNL     1     -11.996  13.681  69.565  1.00  0.00    -0.397 C  
HETATM    7  C   UNL     1     -10.339  10.735  68.199  1.00  0.00    -0.197 C  
HETATM    8  H   UNL     1      -7.135  11.646  70.231  1.00  0.00     0.000 HD 
HETATM    9  C   UNL     1     -11.545  11.284  68.936  1.00  0.00    -0.386 C  
HETATM   10  O   UNL     1     -10.179  13.100  68.140  1.00  0.00    -0.227 OA 
HETATM   11  C   UNL     1     -11.269  12.756  68.924  1.00  0.00    -0.283 C  
ENDROOT
BRANCH   5  12
HETATM   12  C   UNL     1      -8.980   8.877  69.179  1.00  0.00    -0.140 C  
HETATM   13  C   UNL     1      -9.736   8.081  69.952  1.00  0.00    -0.180 C  
BRANCH  13  14
HETATM   14  C   UNL     1      -9.685   6.579  69.927  1.00  0.00    -0.164 C  
HETATM   15  O   UNL     1      -9.714   6.122  71.273  1.00  0.00    -0.173 OA 
HETATM   16  H   UNL     1      -9.682   5.173  71.257  1.00  0.00     0.000 HD 
BRANCH  14  17
HETATM   17  C   UNL     1     -10.880   5.976  69.180  1.00  0.00    -0.422 C  
BRANCH  17  18
HETATM   18  C   UNL     1     -11.077   6.580  67.787  1.00  0.00    -0.366 C  
BRANCH  18  19
HETATM   19  C   UNL     1     -10.654   5.610  66.683  1.00  0.00    -0.361 C  
BRANCH  19  20
HETATM   20  C   UNL     1      -9.255   5.952  66.168  1.00  0.00    -0.164 C  
HETATM   21  C   UNL     1      -8.849   5.050  65.014  1.00  0.00    -0.149 C  
ENDBRANCH  19  20
ENDBRANCH  18  19
ENDBRANCH  17  18
ENDBRANCH  14  17
ENDBRANCH  13  14
ENDBRANCH   5  12
BRANCH   6  22
HETATM   22  C   UNL     1     -11.740  15.159  69.496  1.00  0.00    -0.351 C  
BRANCH  22  23
HETATM   23  C   UNL     1     -11.952  15.834  70.850  1.00  0.00    -0.453 C  
BRANCH  23  24
HETATM   24  C   UNL     1     -12.256  14.795  71.926  1.00  0.00    -0.415 C  
HETATM   25  C   UNL     1     -12.899  15.406  73.145  1.00  0.00    -0.493 C  
HETATM   26  O   UNL     1     -12.389  15.404  74.255  1.00  0.00    -0.631 OA 
HETATM   27  O   UNL     1     -14.123  15.928  72.911  1.00  0.00    -0.561 OA 
ENDBRANCH  23  24
ENDBRANCH  22  23
ENDBRANCH   6  22
TORSDOF 9
ENDMDL
MODEL      112
REMARK 921   NORMALIZED FREE ENERGY PREDICTED BY IDOCK:   -4.79 KCAL/MOL
REMARK 922        TOTAL FREE ENERGY PREDICTED BY IDOCK:   -8.45 KCAL/MOL
REMARK 923 INTER-LIGAND FREE ENERGY PREDICTED BY IDOCK:   -6.93 KCAL/MOL
REMARK 924 INTRA-LIGAND FREE ENERGY PREDICTED BY IDOCK:   -1.53 KCAL/MOL
REMARK 927      BINDING AFFINITY PREDICTED BY RF-SCORE:    0.00 PKD
ROOT
HETATM    1  C   UNL     1     -11.201  15.043  66.968  1.00  0.00    -0.328 C  
HETATM    2  C   UNL     1     -11.917  14.318  65.843  1.00  0.00    -0.400 C  
HETATM    3  C   UNL     1     -11.020  13.129  65.505  1.00  0.00    -0.277 C  
HETATM    4  O   UNL     1     -10.162  13.442  64.408  1.00  0.00    -0.569 OA 
HETATM    5  C   UNL     1     -10.159  12.852  66.756  1.00  0.00    -0.238 C  
HETATM    6  C   UNL     1      -8.123  16.684  67.386  1.00  0.00    -0.187 C  
HETATM    7  C   UNL     1     -10.513  13.959  67.776  1.00  0.00    -0.243 C  
HETATM    8  H   UNL     1      -9.604  12.702  64.197  1.00  0.00     0.000 HD 
HETATM    9  C   UNL     1      -9.311  14.683  68.350  1.00  0.00    -0.201 C  
HETATM   10  O   UNL     1     -10.178  15.907  66.467  1.00  0.00    -0.270 OA 
HETATM   11  C   UNL     1      -9.141  15.812  67.382  1.00  0.00    -0.197 C  
ENDROOT
BRANCH   5  12
HETATM   12  C   UNL     1     -10.444  11.493  67.361  1.00  0.00    -0.240 C  
HETATM   13  C   UNL     1      -9.975  10.342  66.850  1.00  0.00    -0.254 C  
BRANCH  13  14
HETATM   14  C   UNL     1     -10.128   9.000  67.507  1.00  0.00    -0.228 C  
HETATM   15  O   UNL     1     -10.376   8.043  66.486  1.00  0.00    -0.445 OA 
HETATM   16  H   UNL     1     -10.472   7.195  66.901  1.00  0.00     0.000 HD 
BRANCH  14  17
HETATM   17  C   UNL     1      -8.863   8.586  68.268  1.00  0.00    -0.142 C  
BRANCH  17  18
HETATM   18  C   UNL     1      -8.708   9.316  69.605  1.00  0.00    -0.155 C  
BRANCH  18  19
HETATM   19  C   UNL     1      -7.262   9.747  69.852  1.00  0.00    -0.116 C  
BRANCH  19  20
HETATM   20  C   UNL     1      -6.717  10.528  68.656  1.00  0.00    -0.053 C  
HETATM   21  C   UNL     1      -6.771  12.028  68.896  1.00  0.00    -0.093 C  
ENDBRANCH  19  20
ENDBRANCH  18  19
ENDBRANCH  17  18
ENDBRANCH  14  17
ENDBRANCH  13  14
ENDBRANCH   5  12
BRANCH   6  22
HETATM   22  C   UNL     1      -7.997  17.846  66.444  1.00  0.00    -0.302 C  
BRANCH  22  23
HETATM   23  C   UNL     1      -7.654  19.139  67.183  1.00  0.00    -0.250 C  
BRANCH  23  24
HETATM   24  C   UNL     1      -8.810  20.130  67.095  1.00  0.00    -0.446 C  
HETATM   25  C   UNL     1     -10.073  19.593  67.717  1.00  0.00    -0.413 C  
HETATM   26  O   UNL     1     -11.103  19.387  67.094  1.00  0.00    -0.445 OA 
HETATM   27  O   UNL     1      -9.982  19.393  69.050  1.00  0.00    -0.437 OA 
ENDBRANCH  23  24
ENDBRANCH  22  23
ENDBRANCH   6  22
TORSDOF 9
ENDMDL
MODEL      113
REMARK 921   NORMALIZED FREE ENERGY PREDICTED BY IDOCK:   -4.76 KCAL/MOL
REMARK 922        TOTAL FREE ENERGY PREDICTED BY IDOCK:   -8.41 KCAL/MOL
REMARK 923 INTER-LIGAND FREE ENERGY PREDICTED BY IDOCK:   -6.52 KCAL/MOL
REMARK 924 INTRA-LIGAND FREE ENERGY PREDICTED BY IDOCK:   -1.89 KCAL/MOL
REMARK 927      BINDING AFFINITY PREDICTED BY RF-SCORE:    0.00 PKD
ROOT
HETATM    1  C   UNL     1      -8.802   7.211  67.362  1.00  0.00    -0.119 C  
HETATM    2  C   UNL     1     -10.096   7.695  66.731  1.00  0.00    -0.325 C  
HETATM    3  C   UNL     1     -11.158   6.699  67.192  1.00  0.00    -0.357 C  
HETATM    4  O   UNL     1     -11.359   5.687  66.206  1.00  0.00    -0.734 OA 
HETATM    5  C   UNL     1     -10.623   6.046  68.484  1.00  0.00    -0.325 C  
HETATM    6  C   UNL     1      -6.805   4.327  67.182  1.00  0.00    -0.052 C  
HETATM    7  C   UNL     1      -9.201   6.617  68.700  1.00  0.00    -0.128 C  
HETATM    8  H   UNL     1     -12.020   5.067  66.492  1.00  0.00     0.000 HD 
HETATM    9  C   UNL     1      -8.137   5.563  68.927  1.00  0.00    -0.095 C  
HETATM   10  O   UNL     1      -8.206   6.161  66.597  1.00  0.00    -0.108 OA 
HETATM   11  C   UNL     1      -7.672   5.288  67.531  1.00  0.00    -0.096 C  
ENDROOT
BRANCH   5  12
HETATM   12  C   UNL     1     -11.486   6.362  69.688  1.00  0.00    -0.446 C  
HETATM   13  C   UNL     1     -11.035   6.327  70.953  1.00  0.00    -0.344 C  
BRANCH  13  14
HETATM   14  C   UNL     1     -11.830   6.769  72.149  1.00  0.00    -0.290 C  
HETATM   15  O   UNL     1     -11.322   6.082  73.284  1.00  0.00    -0.467 OA 
HETATM   16  H   UNL     1     -11.824   6.362  74.040  1.00  0.00     0.000 HD 
BRANCH  14  17
HETATM   17  C   UNL     1     -11.708   8.277  72.394  1.00  0.00    -0.463 C  
BRANCH  17  18
HETATM   18  C   UNL     1     -12.956   9.052  71.965  1.00  0.00    -0.470 C  
BRANCH  18  19
HETATM   19  C   UNL     1     -12.620  10.161  70.967  1.00  0.00    -0.478 C  
BRANCH  19  20
HETATM   20  C   UNL     1     -11.168  10.050  70.502  1.00  0.00    -0.408 C  
HETATM   21  C   UNL     1     -11.003  10.526  69.068  1.00  0.00    -0.289 C  
ENDBRANCH  19  20
ENDBRANCH  18  19
ENDBRANCH  17  18
ENDBRANCH  14  17
ENDBRANCH  13  14
ENDBRANCH   5  12
BRANCH   6  22
HETATM   22  C   UNL     1      -6.305   4.102  65.784  1.00  0.00    -0.032 C  
BRANCH  22  23
HETATM   23  C   UNL     1      -6.741   2.743  65.240  1.00  0.00    -0.040 C  
BRANCH  23  24
HETATM   24  C   UNL     1      -8.245   2.553  65.413  1.00  0.00    -0.089 C  
HETATM   25  C   UNL     1      -9.033   3.179  64.291  1.00  0.00    -0.108 C  
HETATM   26  O   UNL     1      -9.824   4.097  64.445  1.00  0.00    -0.171 OA 
HETATM   27  O   UNL     1      -8.818   2.604  63.087  1.00  0.00    -0.085 OA 
ENDBRANCH  23  24
ENDBRANCH  22  23
ENDBRANCH   6  22
TORSDOF 9
ENDMDL
MODEL      114
REMARK 921   NORMALIZED FREE ENERGY PREDICTED BY IDOCK:   -4.75 KCAL/MOL
REMARK 922        TOTAL FREE ENERGY PREDICTED BY IDOCK:   -8.39 KCAL/MOL
REMARK 923 INTER-LIGAND FREE ENERGY PREDICTED BY IDOCK:   -6.88 KCAL/MOL
REMARK 924 INTRA-LIGAND FREE ENERGY PREDICTED BY IDOCK:   -1.51 KCAL/MOL
REMARK 927      BINDING AFFINITY PREDICTED BY RF-SCORE:    0.00 PKD
ROOT
HETATM    1  C   UNL     1     -10.212  11.862  65.750  1.00  0.00    -0.242 C  
HETATM    2  C   UNL     1     -11.665  12.229  65.990  1.00  0.00    -0.451 C  
HETATM    3  C   UNL     1     -11.792  12.368  67.506  1.00  0.00    -0.284 C  
HETATM    4  O   UNL     1     -12.274  11.155  68.083  1.00  0.00    -0.708 OA 
HETATM    5  C   UNL     1     -10.376  12.658  68.045  1.00  0.00    -0.231 C  
HETATM    6  C   UNL     1      -8.080   9.208  66.614  1.00  0.00    -0.111 C  
HETATM    7  C   UNL     1      -9.427  12.588  66.826  1.00  0.00    -0.231 C  
HETATM    8  H   UNL     1     -12.353  11.241  69.026  1.00  0.00     0.000 HD 
HETATM    9  C   UNL     1      -8.224  11.689  67.026  1.00  0.00    -0.170 C  
HETATM   10  O   UNL     1      -9.986  10.463  65.936  1.00  0.00    -0.228 OA 
HETATM   11  C   UNL     1      -8.739  10.372  66.534  1.00  0.00    -0.136 C  
ENDROOT
BRANCH   5  12
HETATM   12  C   UNL     1     -10.275  14.024  68.691  1.00  0.00    -0.233 C  
HETATM   13  C   UNL     1     -11.343  14.759  69.042  1.00  0.00    -0.295 C  
BRANCH  13  14
HETATM   14  C   UNL     1     -11.269  16.050  69.807  1.00  0.00    -0.344 C  
HETATM   15  O   UNL     1     -10.948  15.737  71.155  1.00  0.00    -0.292 OA 
HETATM   16  H   UNL     1     -10.901  16.553  71.639  1.00  0.00     0.000 HD 
BRANCH  14  17
HETATM   17  C   UNL     1     -10.189  16.985  69.252  1.00  0.00    -0.246 C  
BRANCH  17  18
HETATM   18  C   UNL     1     -10.575  17.608  67.907  1.00  0.00    -0.390 C  
BRANCH  18  19
HETATM   19  C   UNL     1      -9.393  17.647  66.939  1.00  0.00    -0.268 C  
BRANCH  19  20
HETATM   20  C   UNL     1      -9.302  16.346  66.142  1.00  0.00    -0.360 C  
HETATM   21  C   UNL     1     -10.654  15.940  65.579  1.00  0.00    -0.419 C  
ENDBRANCH  19  20
ENDBRANCH  18  19
ENDBRANCH  17  18
ENDBRANCH  14  17
ENDBRANCH  13  14
ENDBRANCH   5  12
BRANCH   6  22
HETATM   22  C   UNL     1      -8.586   7.906  66.064  1.00  0.00    -0.166 C  
BRANCH  22  23
HETATM   23  C   UNL     1      -9.844   7.435  66.792  1.00  0.00    -0.290 C  
BRANCH  23  24
HETATM   24  C   UNL     1      -9.583   7.311  68.290  1.00  0.00    -0.150 C  
HETATM   25  C   UNL     1     -10.629   6.480  68.986  1.00  0.00    -0.245 C  
HETATM   26  O   UNL     1     -11.379   6.912  69.848  1.00  0.00    -0.294 OA 
HETATM   27  O   UNL     1     -10.642   5.185  68.599  1.00  0.00    -0.098 OA 
ENDBRANCH  23  24
ENDBRANCH  22  23
ENDBRANCH   6  22
TORSDOF 9
ENDMDL
MODEL      115
REMARK 921   NORMALIZED FREE ENERGY PREDICTED BY IDOCK:   -4.74 KCAL/MOL
REMARK 922        TOTAL FREE ENERGY PREDICTED BY IDOCK:   -8.39 KCAL/MOL
REMARK 923 INTER-LIGAND FREE ENERGY PREDICTED BY IDOCK:   -7.24 KCAL/MOL
REMARK 924 INTRA-LIGAND FREE ENERGY PREDICTED BY IDOCK:   -1.15 KCAL/MOL
REMARK 927      BINDING AFFINITY PREDICTED BY RF-SCORE:    0.00 PKD
ROOT
HETATM    1  C   UNL     1     -11.096  10.886  67.483  1.00  0.00    -0.310 C  
HETATM    2  C   UNL     1     -10.211   9.662  67.324  1.00  0.00    -0.292 C  
HETATM    3  C   UNL     1      -9.333   9.644  68.573  1.00  0.00    -0.137 C  
HETATM    4  O   UNL     1      -8.075  10.266  68.313  1.00  0.00    -0.103 OA 
HETATM    5  C   UNL     1     -10.082  10.451  69.654  1.00  0.00    -0.226 C  
HETATM    6  C   UNL     1     -10.619  14.357  67.735  1.00  0.00    -0.246 C  
HETATM    7  C   UNL     1     -11.355  11.008  68.972  1.00  0.00    -0.345 C  
HETATM    8  H   UNL     1      -7.529  10.255  69.090  1.00  0.00     0.000 HD 
HETATM    9  C   UNL     1     -11.555  12.499  69.155  1.00  0.00    -0.375 C  
HETATM   10  O   UNL     1     -10.421  12.078  67.074  1.00  0.00    -0.216 OA 
HETATM   11  C   UNL     1     -10.835  13.055  67.966  1.00  0.00    -0.242 C  
ENDROOT
BRANCH   5  12
HETATM   12  C   UNL     1     -10.474   9.598  70.842  1.00  0.00    -0.359 C  
HETATM   13  C   UNL     1     -11.743   9.266  71.130  1.00  0.00    -0.394 C  
BRANCH  13  14
HETATM   14  C   UNL     1     -12.144   8.310  72.218  1.00  0.00    -0.379 C  
HETATM   15  O   UNL     1     -13.540   8.460  72.434  1.00  0.00    -0.534 OA 
HETATM   16  H   UNL     1     -13.793   7.856  73.121  1.00  0.00     0.000 HD 
BRANCH  14  17
HETATM   17  C   UNL     1     -11.862   6.853  71.834  1.00  0.00    -0.351 C  
BRANCH  17  18
HETATM   18  C   UNL     1     -10.683   6.253  72.603  1.00  0.00    -0.260 C  
BRANCH  18  19
HETATM   19  C   UNL     1     -10.094   7.247  73.606  1.00  0.00    -0.387 C  
BRANCH  19  20
HETATM   20  C   UNL     1      -8.574   7.321  73.467  1.00  0.00    -0.187 C  
HETATM   21  C   UNL     1      -7.984   8.409  74.349  1.00  0.00    -0.229 C  
ENDBRANCH  19  20
ENDBRANCH  18  19
ENDBRANCH  17  18
ENDBRANCH  14  17
ENDBRANCH  13  14
ENDBRANCH   5  12
BRANCH   6  22
HETATM   22  C   UNL     1      -9.945  14.901  66.508  1.00  0.00    -0.277 C  
BRANCH  22  23
HETATM   23  C   UNL     1     -10.416  16.318  66.185  1.00  0.00    -0.330 C  
BRANCH  23  24
HETATM   24  C   UNL     1     -10.587  17.131  67.465  1.00  0.00    -0.323 C  
HETATM   25  C   UNL     1      -9.273  17.649  67.993  1.00  0.00    -0.271 C  
HETATM   26  O   UNL     1      -8.801  17.330  69.073  1.00  0.00    -0.207 OA 
HETATM   27  O   UNL     1      -8.672  18.542  67.176  1.00  0.00    -0.261 OA 
ENDBRANCH  23  24
ENDBRANCH  22  23
ENDBRANCH   6  22
TORSDOF 9
ENDMDL
MODEL      116
REMARK 921   NORMALIZED FREE ENERGY PREDICTED BY IDOCK:   -4.74 KCAL/MOL
REMARK 922        TOTAL FREE ENERGY PREDICTED BY IDOCK:   -8.39 KCAL/MOL
REMARK 923 INTER-LIGAND FREE ENERGY PREDICTED BY IDOCK:   -7.04 KCAL/MOL
REMARK 924 INTRA-LIGAND FREE ENERGY PREDICTED BY IDOCK:   -1.35 KCAL/MOL
REMARK 927      BINDING AFFINITY PREDICTED BY RF-SCORE:    0.00 PKD
ROOT
HETATM    1  C   UNL     1      -9.049  11.710  67.585  1.00  0.00    -0.174 C  
HETATM    2  C   UNL     1      -8.401  10.800  68.614  1.00  0.00    -0.141 C  
HETATM    3  C   UNL     1      -9.491   9.803  69.003  1.00  0.00    -0.173 C  
HETATM    4  O   UNL     1     -10.163  10.230  70.187  1.00  0.00    -0.391 OA 
HETATM    5  C   UNL     1     -10.498   9.768  67.834  1.00  0.00    -0.288 C  
HETATM    6  C   UNL     1     -11.747  13.959  67.516  1.00  0.00    -0.416 C  
HETATM    7  C   UNL     1     -10.015  10.828  66.816  1.00  0.00    -0.249 C  
HETATM    8  H   UNL     1     -10.841   9.610  70.429  1.00  0.00     0.000 HD 
HETATM    9  C   UNL     1     -11.088  11.807  66.384  1.00  0.00    -0.360 C  
HETATM   10  O   UNL     1      -9.823  12.738  68.208  1.00  0.00    -0.221 OA 
HETATM   11  C   UNL     1     -10.934  12.899  67.395  1.00  0.00    -0.260 C  
ENDROOT
BRANCH   5  12
HETATM   12  C   UNL     1     -10.555   8.410  67.165  1.00  0.00    -0.326 C  
HETATM   13  C   UNL     1      -9.493   7.596  67.049  1.00  0.00    -0.209 C  
BRANCH  13  14
HETATM   14  C   UNL     1      -9.556   6.192  66.516  1.00  0.00    -0.151 C  
HETATM   15  O   UNL     1      -8.865   6.170  65.274  1.00  0.00    -0.328 OA 
HETATM   16  H   UNL     1      -8.905   5.283  64.937  1.00  0.00     0.000 HD 
BRANCH  14  17
HETATM   17  C   UNL     1      -8.891   5.188  67.463  1.00  0.00    -0.105 C  
BRANCH  17  18
HETATM   18  C   UNL     1      -9.737   4.890  68.704  1.00  0.00    -0.225 C  
BRANCH  18  19
HETATM   19  C   UNL     1      -9.031   5.322  69.990  1.00  0.00    -0.154 C  
BRANCH  19  20
HETATM   20  C   UNL     1      -9.904   6.290  70.789  1.00  0.00    -0.213 C  
HETATM   21  C   UNL     1     -11.291   6.422  70.183  1.00  0.00    -0.485 C  
ENDBRANCH  19  20
ENDBRANCH  18  19
ENDBRANCH  17  18
ENDBRANCH  14  17
ENDBRANCH  13  14
ENDBRANCH   5  12
BRANCH   6  22
HETATM   22  C   UNL     1     -11.545  15.075  68.499  1.00  0.00    -0.348 C  
BRANCH  22  23
HETATM   23  C   UNL     1     -10.891  16.292  67.846  1.00  0.00    -0.330 C  
BRANCH  23  24
HETATM   24  C   UNL     1     -10.517  17.331  68.899  1.00  0.00    -0.327 C  
HETATM   25  C   UNL     1     -10.025  18.616  68.285  1.00  0.00    -0.384 C  
HETATM   26  O   UNL     1      -8.896  19.055  68.440  1.00  0.00    -0.318 OA 
HETATM   27  O   UNL     1     -10.965  19.273  67.571  1.00  0.00    -0.465 OA 
ENDBRANCH  23  24
ENDBRANCH  22  23
ENDBRANCH   6  22
TORSDOF 9
ENDMDL
MODEL      117
REMARK 921   NORMALIZED FREE ENERGY PREDICTED BY IDOCK:   -4.72 KCAL/MOL
REMARK 922        TOTAL FREE ENERGY PREDICTED BY IDOCK:   -8.35 KCAL/MOL
REMARK 923 INTER-LIGAND FREE ENERGY PREDICTED BY IDOCK:   -7.66 KCAL/MOL
REMARK 924 INTRA-LIGAND FREE ENERGY PREDICTED BY IDOCK:   -0.69 KCAL/MOL
REMARK 927      BINDING AFFINITY PREDICTED BY RF-SCORE:    0.00 PKD
ROOT
HETATM    1  C   UNL     1      -9.823   9.617  70.057  1.00  0.00    -0.246 C  
HETATM    2  C   UNL     1      -9.356   9.762  68.619  1.00  0.00    -0.147 C  
HETATM    3  C   UNL     1     -10.621  10.064  67.820  1.00  0.00    -0.261 C  
HETATM    4  O   UNL     1     -11.154   8.868  67.252  1.00  0.00    -0.373 OA 
HETATM    5  C   UNL     1     -11.645  10.651  68.814  1.00  0.00    -0.309 C  
HETATM    6  C   UNL     1     -11.980   7.486  71.830  1.00  0.00    -0.334 C  
HETATM    7  C   UNL     1     -10.975  10.592  70.208  1.00  0.00    -0.237 C  
HETATM    8  H   UNL     1     -11.942   9.055  66.755  1.00  0.00     0.000 HD 
HETATM    9  C   UNL     1     -11.827   9.939  71.278  1.00  0.00    -0.479 C  
HETATM   10  O   UNL     1     -10.342   8.310  70.310  1.00  0.00    -0.201 OA 
HETATM   11  C   UNL     1     -11.416   8.504  71.165  1.00  0.00    -0.276 C  
ENDROOT
BRANCH   5  12
HETATM   12  C   UNL     1     -12.009  12.084  68.485  1.00  0.00    -0.273 C  
HETATM   13  C   UNL     1     -11.561  13.141  69.182  1.00  0.00    -0.368 C  
BRANCH  13  14
HETATM   14  C   UNL     1     -11.795  14.574  68.794  1.00  0.00    -0.315 C  
HETATM   15  O   UNL     1     -12.632  15.159  69.782  1.00  0.00    -0.567 OA 
HETATM   16  H   UNL     1     -12.780  16.064  69.536  1.00  0.00     0.000 HD 
BRANCH  14  17
HETATM   17  C   UNL     1     -10.488  15.371  68.725  1.00  0.00    -0.231 C  
BRANCH  17  18
HETATM   18  C   UNL     1     -10.710  16.884  68.804  1.00  0.00    -0.333 C  
BRANCH  18  19
HETATM   19  C   UNL     1     -10.548  17.553  67.439  1.00  0.00    -0.311 C  
BRANCH  19  20
HETATM   20  C   UNL     1     -10.795  19.059  67.540  1.00  0.00    -0.478 C  
HETATM   21  C   UNL     1     -10.567  19.753  66.208  1.00  0.00    -0.572 C  
ENDBRANCH  19  20
ENDBRANCH  18  19
ENDBRANCH  17  18
ENDBRANCH  14  17
ENDBRANCH  13  14
ENDBRANCH   5  12
BRANCH   6  22
HETATM   22  C   UNL     1     -11.517   6.059  71.748  1.00  0.00    -0.314 C  
BRANCH  22  23
HETATM   23  C   UNL     1     -10.839   5.611  73.042  1.00  0.00    -0.308 C  
BRANCH  23  24
HETATM   24  C   UNL     1     -11.163   4.150  73.340  1.00  0.00    -0.339 C  
HETATM   25  C   UNL     1     -10.095   3.213  72.838  1.00  0.00    -0.149 C  
HETATM   26  O   UNL     1     -10.283   2.367  71.977  1.00  0.00    -0.157 OA 
HETATM   27  O   UNL     1      -8.904   3.363  73.457  1.00  0.00    -0.087 OA 
ENDBRANCH  23  24
ENDBRANCH  22  23
ENDBRANCH   6  22
TORSDOF 9
ENDMDL
MODEL      118
REMARK 921   NORMALIZED FREE ENERGY PREDICTED BY IDOCK:   -4.71 KCAL/MOL
REMARK 922        TOTAL FREE ENERGY PREDICTED BY IDOCK:   -8.33 KCAL/MOL
REMARK 923 INTER-LIGAND FREE ENERGY PREDICTED BY IDOCK:   -7.15 KCAL/MOL
REMARK 924 INTRA-LIGAND FREE ENERGY PREDICTED BY IDOCK:   -1.18 KCAL/MOL
REMARK 927      BINDING AFFINITY PREDICTED BY RF-SCORE:    0.00 PKD
ROOT
HETATM    1  C   UNL     1     -10.748  12.812  65.610  1.00  0.00    -0.273 C  
HETATM    2  C   UNL     1     -11.873  13.830  65.655  1.00  0.00    -0.383 C  
HETATM    3  C   UNL     1     -11.606  14.660  66.909  1.00  0.00    -0.362 C  
HETATM    4  O   UNL     1     -12.362  14.162  68.012  1.00  0.00    -0.560 OA 
HETATM    5  C   UNL     1     -10.101  14.518  67.222  1.00  0.00    -0.247 C  
HETATM    6  C   UNL     1      -9.612  10.181  67.642  1.00  0.00    -0.170 C  
HETATM    7  C   UNL     1      -9.536  13.521  66.183  1.00  0.00    -0.219 C  
HETATM    8  H   UNL     1     -12.196  14.678  68.793  1.00  0.00     0.000 HD 
HETATM    9  C   UNL     1      -8.737  12.383  66.786  1.00  0.00    -0.160 C  
HETATM   10  O   UNL     1     -11.020  11.692  66.456  1.00  0.00    -0.276 OA 
HETATM   11  C   UNL     1      -9.796  11.348  67.008  1.00  0.00    -0.191 C  
ENDROOT
BRANCH   5  12
HETATM   12  C   UNL     1      -9.365  15.837  67.115  1.00  0.00    -0.224 C  
HETATM   13  C   UNL     1      -8.058  15.981  67.392  1.00  0.00    -0.188 C  
BRANCH  13  14
HETATM   14  C   UNL     1      -7.277  17.243  67.160  1.00  0.00    -0.172 C  
HETATM   15  O   UNL     1      -5.960  16.873  66.775  1.00  0.00    -0.174 OA 
HETATM   16  H   UNL     1      -5.466  17.671  66.629  1.00  0.00     0.000 HD 
BRANCH  14  17
HETATM   17  C   UNL     1      -7.889  18.102  66.048  1.00  0.00    -0.174 C  
BRANCH  17  18
HETATM   18  C   UNL     1      -8.168  19.540  66.492  1.00  0.00    -0.334 C  
BRANCH  18  19
HETATM   19  C   UNL     1      -9.612  19.952  66.206  1.00  0.00    -0.526 C  
BRANCH  19  20
HETATM   20  C   UNL     1     -10.564  19.343  67.237  1.00  0.00    -0.599 C  
HETATM   21  C   UNL     1     -10.068  19.567  68.656  1.00  0.00    -0.535 C  
ENDBRANCH  19  20
ENDBRANCH  18  19
ENDBRANCH  17  18
ENDBRANCH  14  17
ENDBRANCH  13  14
ENDBRANCH   5  12
BRANCH   6  22
HETATM   22  C   UNL     1     -10.670   9.129  67.806  1.00  0.00    -0.243 C  
BRANCH  22  23
HETATM   23  C   UNL     1     -10.516   8.007  66.780  1.00  0.00    -0.319 C  
BRANCH  23  24
HETATM   24  C   UNL     1     -10.738   6.647  67.435  1.00  0.00    -0.409 C  
HETATM   25  C   UNL     1      -9.583   5.706  67.205  1.00  0.00    -0.131 C  
HETATM   26  O   UNL     1      -9.674   4.657  66.586  1.00  0.00    -0.164 OA 
HETATM   27  O   UNL     1      -8.430   6.107  67.785  1.00  0.00    -0.115 OA 
ENDBRANCH  23  24
ENDBRANCH  22  23
ENDBRANCH   6  22
TORSDOF 9
ENDMDL
MODEL      119
REMARK 921   NORMALIZED FREE ENERGY PREDICTED BY IDOCK:   -4.71 KCAL/MOL
REMARK 922        TOTAL FREE ENERGY PREDICTED BY IDOCK:   -8.33 KCAL/MOL
REMARK 923 INTER-LIGAND FREE ENERGY PREDICTED BY IDOCK:   -6.76 KCAL/MOL
REMARK 924 INTRA-LIGAND FREE ENERGY PREDICTED BY IDOCK:   -1.57 KCAL/MOL
REMARK 927      BINDING AFFINITY PREDICTED BY RF-SCORE:    0.00 PKD
ROOT
HETATM    1  C   UNL     1      -8.419   9.354  68.458  1.00  0.00    -0.119 C  
HETATM    2  C   UNL     1      -8.998   9.427  67.057  1.00  0.00    -0.146 C  
HETATM    3  C   UNL     1     -10.511   9.358  67.250  1.00  0.00    -0.264 C  
HETATM    4  O   UNL     1     -10.978   8.018  67.093  1.00  0.00    -0.486 OA 
HETATM    5  C   UNL     1     -10.796   9.827  68.692  1.00  0.00    -0.223 C  
HETATM    6  C   UNL     1      -8.419   7.034  71.096  1.00  0.00    -0.119 C  
HETATM    7  C   UNL     1      -9.416  10.073  69.346  1.00  0.00    -0.237 C  
HETATM    8  H   UNL     1     -11.919   7.976  67.213  1.00  0.00     0.000 HD 
HETATM    9  C   UNL     1      -9.231   9.383  70.683  1.00  0.00    -0.303 C  
HETATM   10  O   UNL     1      -8.338   8.005  68.923  1.00  0.00    -0.124 OA 
HETATM   11  C   UNL     1      -8.653   8.065  70.271  1.00  0.00    -0.132 C  
ENDROOT
BRANCH   5  12
HETATM   12  C   UNL     1     -11.613  11.101  68.732  1.00  0.00    -0.389 C  
HETATM   13  C   UNL     1     -11.093  12.321  68.520  1.00  0.00    -0.290 C  
BRANCH  13  14
HETATM   14  C   UNL     1     -11.904  13.582  68.417  1.00  0.00    -0.373 C  
HETATM   15  O   UNL     1     -11.412  14.494  69.390  1.00  0.00    -0.255 OA 
HETATM   16  H   UNL     1     -11.924  15.291  69.326  1.00  0.00     0.000 HD 
BRANCH  14  17
HETATM   17  C   UNL     1     -11.784  14.232  67.034  1.00  0.00    -0.427 C  
BRANCH  17  18
HETATM   18  C   UNL     1     -12.145  13.275  65.895  1.00  0.00    -0.493 C  
BRANCH  18  19
HETATM   19  C   UNL     1     -10.938  12.966  65.009  1.00  0.00    -0.324 C  
BRANCH  19  20
HETATM   20  C   UNL     1     -11.261  11.842  64.024  1.00  0.00    -0.470 C  
HETATM   21  C   UNL     1     -12.609  12.055  63.356  1.00  0.00    -0.592 C  
ENDBRANCH  19  20
ENDBRANCH  18  19
ENDBRANCH  17  18
ENDBRANCH  14  17
ENDBRANCH  13  14
ENDBRANCH   5  12
BRANCH   6  22
HETATM   22  C   UNL     1      -7.786   5.739  70.677  1.00  0.00    -0.093 C  
BRANCH  22  23
HETATM   23  C   UNL     1      -8.640   4.537  71.076  1.00  0.00    -0.126 C  
BRANCH  23  24
HETATM   24  C   UNL     1     -10.007   4.602  70.401  1.00  0.00    -0.300 C  
HETATM   25  C   UNL     1      -9.909   4.502  68.901  1.00  0.00    -0.120 C  
HETATM   26  O   UNL     1     -10.251   5.392  68.137  1.00  0.00    -0.176 OA 
HETATM   27  O   UNL     1      -9.441   3.313  68.463  1.00  0.00    -0.178 OA 
ENDBRANCH  23  24
ENDBRANCH  22  23
ENDBRANCH   6  22
TORSDOF 9
ENDMDL
MODEL      120
REMARK 921   NORMALIZED FREE ENERGY PREDICTED BY IDOCK:   -4.69 KCAL/MOL
REMARK 922        TOTAL FREE ENERGY PREDICTED BY IDOCK:   -8.31 KCAL/MOL
REMARK 923 INTER-LIGAND FREE ENERGY PREDICTED BY IDOCK:   -7.57 KCAL/MOL
REMARK 924 INTRA-LIGAND FREE ENERGY PREDICTED BY IDOCK:   -0.75 KCAL/MOL
REMARK 927      BINDING AFFINITY PREDICTED BY RF-SCORE:    0.00 PKD
ROOT
HETATM    1  C   UNL     1      -8.964   9.142  68.830  1.00  0.00    -0.139 C  
HETATM    2  C   UNL     1      -8.429   9.387  67.430  1.00  0.00    -0.125 C  
HETATM    3  C   UNL     1      -9.664   9.680  66.581  1.00  0.00    -0.209 C  
HETATM    4  O   UNL     1     -10.114   8.496  65.922  1.00  0.00    -0.445 OA 
HETATM    5  C   UNL     1     -10.763  10.167  67.549  1.00  0.00    -0.347 C  
HETATM    6  C   UNL     1     -11.112   6.826  70.367  1.00  0.00    -0.357 C  
HETATM    7  C   UNL     1     -10.165  10.058  68.971  1.00  0.00    -0.216 C  
HETATM    8  H   UNL     1     -10.882   8.678  65.393  1.00  0.00     0.000 HD 
HETATM    9  C   UNL     1     -11.040   9.311  69.957  1.00  0.00    -0.228 C  
HETATM   10  O   UNL     1      -9.436   7.802  68.985  1.00  0.00    -0.150 OA 
HETATM   11  C   UNL     1     -10.560   7.903  69.790  1.00  0.00    -0.242 C  
ENDROOT
BRANCH   5  12
HETATM   12  C   UNL     1     -11.173  11.599  67.278  1.00  0.00    -0.365 C  
HETATM   13  C   UNL     1     -11.291  12.116  66.044  1.00  0.00    -0.410 C  
BRANCH  13  14
HETATM   14  C   UNL     1     -11.828  13.488  65.747  1.00  0.00    -0.372 C  
HETATM   15  O   UNL     1     -13.085  13.330  65.103  1.00  0.00    -0.705 OA 
HETATM   16  H   UNL     1     -13.425  14.197  64.916  1.00  0.00     0.000 HD 
BRANCH  14  17
HETATM   17  C   UNL     1     -12.031  14.314  67.022  1.00  0.00    -0.463 C  
BRANCH  17  18
HETATM   18  C   UNL     1     -10.790  15.120  67.412  1.00  0.00    -0.302 C  
BRANCH  18  19
HETATM   19  C   UNL     1     -10.533  16.273  66.442  1.00  0.00    -0.297 C  
BRANCH  19  20
HETATM   20  C   UNL     1     -10.425  17.600  67.193  1.00  0.00    -0.319 C  
HETATM   21  C   UNL     1     -10.375  18.781  66.237  1.00  0.00    -0.497 C  
ENDBRANCH  19  20
ENDBRANCH  18  19
ENDBRANCH  17  18
ENDBRANCH  14  17
ENDBRANCH  13  14
ENDBRANCH   5  12
BRANCH   6  22
HETATM   22  C   UNL     1     -10.583   5.427  70.234  1.00  0.00    -0.329 C  
BRANCH  22  23
HETATM   23  C   UNL     1      -9.484   5.140  71.256  1.00  0.00    -0.203 C  
BRANCH  23  24
HETATM   24  C   UNL     1      -9.801   3.872  72.043  1.00  0.00    -0.245 C  
HETATM   25  C   UNL     1     -10.392   4.173  73.397  1.00  0.00    -0.164 C  
HETATM   26  O   UNL     1      -9.857   3.874  74.453  1.00  0.00    -0.114 OA 
HETATM   27  O   UNL     1     -11.600   4.774  73.342  1.00  0.00    -0.323 OA 
ENDBRANCH  23  24
ENDBRANCH  22  23
ENDBRANCH   6  22
TORSDOF 9
ENDMDL
MODEL      121
REMARK 921   NORMALIZED FREE ENERGY PREDICTED BY IDOCK:   -4.69 KCAL/MOL
REMARK 922        TOTAL FREE ENERGY PREDICTED BY IDOCK:   -8.31 KCAL/MOL
REMARK 923 INTER-LIGAND FREE ENERGY PREDICTED BY IDOCK:   -7.08 KCAL/MOL
REMARK 924 INTRA-LIGAND FREE ENERGY PREDICTED BY IDOCK:   -1.23 KCAL/MOL
REMARK 927      BINDING AFFINITY PREDICTED BY RF-SCORE:    0.00 PKD
ROOT
HETATM    1  C   UNL     1      -9.084   8.047  67.426  1.00  0.00    -0.134 C  
HETATM    2  C   UNL     1      -7.757   7.716  68.086  1.00  0.00    -0.119 C  
HETATM    3  C   UNL     1      -7.603   8.745  69.204  1.00  0.00    -0.088 C  
HETATM    4  O   UNL     1      -6.813   9.849  68.766  1.00  0.00    -0.053 OA 
HETATM    5  C   UNL     1      -9.023   9.243  69.547  1.00  0.00    -0.154 C  
HETATM    6  C   UNL     1     -10.456  10.781  65.699  1.00  0.00    -0.255 C  
HETATM    7  C   UNL     1      -9.977   8.552  68.544  1.00  0.00    -0.201 C  
HETATM    8  H   UNL     1      -6.717  10.489  69.461  1.00  0.00     0.000 HD 
HETATM    9  C   UNL     1     -10.911   9.502  67.821  1.00  0.00    -0.258 C  
HETATM   10  O   UNL     1      -8.949   9.112  66.482  1.00  0.00    -0.137 OA 
HETATM   11  C   UNL     1     -10.108   9.860  66.609  1.00  0.00    -0.233 C  
ENDROOT
BRANCH   5  12
HETATM   12  C   UNL     1      -9.431   8.890  70.962  1.00  0.00    -0.318 C  
HETATM   13  C   UNL     1     -10.700   8.651  71.330  1.00  0.00    -0.322 C  
BRANCH  13  14
HETATM   14  C   UNL     1     -11.111   8.165  72.691  1.00  0.00    -0.380 C  
HETATM   15  O   UNL     1     -12.453   8.579  72.912  1.00  0.00    -0.585 OA 
HETATM   16  H   UNL     1     -12.713   8.272  73.772  1.00  0.00     0.000 HD 
BRANCH  14  17
HETATM   17  C   UNL     1     -11.047   6.638  72.799  1.00  0.00    -0.283 C  
BRANCH  17  18
HETATM   18  C   UNL     1     -10.265   6.161  74.026  1.00  0.00    -0.309 C  
BRANCH  18  19
HETATM   19  C   UNL     1      -8.796   6.581  73.960  1.00  0.00    -0.160 C  
BRANCH  19  20
HETATM   20  C   UNL     1      -7.940   5.468  73.356  1.00  0.00    -0.114 C  
HETATM   21  C   UNL     1      -7.743   5.662  71.862  1.00  0.00    -0.105 C  
ENDBRANCH  19  20
ENDBRANCH  18  19
ENDBRANCH  17  18
ENDBRANCH  14  17
ENDBRANCH  13  14
ENDBRANCH   5  12
BRANCH   6  22
HETATM   22  C   UNL     1      -9.667  11.087  64.458  1.00  0.00    -0.323 C  
BRANCH  22  23
HETATM   23  C   UNL     1     -10.449  11.982  63.498  1.00  0.00    -0.505 C  
BRANCH  23  24
HETATM   24  C   UNL     1     -10.730  13.339  64.135  1.00  0.00    -0.350 C  
HETATM   25  C   UNL     1     -12.181  13.731  64.030  1.00  0.00    -0.380 C  
HETATM   26  O   UNL     1     -12.579  14.706  63.412  1.00  0.00    -0.574 OA 
HETATM   27  O   UNL     1     -13.016  12.923  64.721  1.00  0.00    -0.743 OA 
ENDBRANCH  23  24
ENDBRANCH  22  23
ENDBRANCH   6  22
TORSDOF 9
ENDMDL
MODEL      122
REMARK 921   NORMALIZED FREE ENERGY PREDICTED BY IDOCK:   -4.69 KCAL/MOL
REMARK 922        TOTAL FREE ENERGY PREDICTED BY IDOCK:   -8.30 KCAL/MOL
REMARK 923 INTER-LIGAND FREE ENERGY PREDICTED BY IDOCK:   -7.29 KCAL/MOL
REMARK 924 INTRA-LIGAND FREE ENERGY PREDICTED BY IDOCK:   -1.01 KCAL/MOL
REMARK 927      BINDING AFFINITY PREDICTED BY RF-SCORE:    0.00 PKD
ROOT
HETATM    1  C   UNL     1     -11.324   5.824  72.085  1.00  0.00    -0.258 C  
HETATM    2  C   UNL     1     -10.873   6.474  73.381  1.00  0.00    -0.249 C  
HETATM    3  C   UNL     1     -10.355   7.851  72.973  1.00  0.00    -0.334 C  
HETATM    4  O   UNL     1      -8.939   7.823  72.798  1.00  0.00    -0.148 OA 
HETATM    5  C   UNL     1     -11.024   8.197  71.626  1.00  0.00    -0.306 C  
HETATM    6  C   UNL     1      -9.814   4.848  69.066  1.00  0.00    -0.250 C  
HETATM    7  C   UNL     1     -11.858   6.956  71.228  1.00  0.00    -0.385 C  
HETATM    8  H   UNL     1      -8.616   8.680  72.545  1.00  0.00     0.000 HD 
HETATM    9  C   UNL     1     -11.598   6.460  69.820  1.00  0.00    -0.397 C  
HETATM   10  O   UNL     1     -10.224   5.244  71.378  1.00  0.00    -0.198 OA 
HETATM   11  C   UNL     1     -10.488   5.479  70.038  1.00  0.00    -0.303 C  
ENDROOT
BRANCH   5  12
HETATM   12  C   UNL     1     -11.929   9.406  71.727  1.00  0.00    -0.452 C  
HETATM   13  C   UNL     1     -11.921  10.414  70.839  1.00  0.00    -0.478 C  
BRANCH  13  14
HETATM   14  C   UNL     1     -12.901  11.553  70.841  1.00  0.00    -0.201 C  
HETATM   15  O   UNL     1     -13.401  11.692  72.164  1.00  0.00    -0.576 OA 
HETATM   16  H   UNL     1     -14.020  12.412  72.165  1.00  0.00     0.000 HD 
BRANCH  14  17
HETATM   17  C   UNL     1     -12.246  12.875  70.425  1.00  0.00    -0.381 C  
BRANCH  17  18
HETATM   18  C   UNL     1     -12.868  14.091  71.116  1.00  0.00    -0.427 C  
BRANCH  18  19
HETATM   19  C   UNL     1     -11.857  15.225  71.289  1.00  0.00    -0.416 C  
BRANCH  19  20
HETATM   20  C   UNL     1     -11.552  15.459  72.768  1.00  0.00    -0.464 C  
HETATM   21  C   UNL     1     -12.741  15.110  73.646  1.00  0.00    -0.683 C  
ENDBRANCH  19  20
ENDBRANCH  18  19
ENDBRANCH  17  18
ENDBRANCH  14  17
ENDBRANCH  13  14
ENDBRANCH   5  12
BRANCH   6  22
HETATM   22  C   UNL     1      -8.742   3.825  69.304  1.00  0.00    -0.131 C  
BRANCH  22  23
HETATM   23  C   UNL     1      -7.350   4.386  69.015  1.00  0.00    -0.055 C  
BRANCH  23  24
HETATM   24  C   UNL     1      -7.414   5.894  68.796  1.00  0.00    -0.086 C  
HETATM   25  C   UNL     1      -6.561   6.651  69.780  1.00  0.00    -0.048 C  
HETATM   26  O   UNL     1      -7.007   7.442  70.598  1.00  0.00    -0.051 OA 
HETATM   27  O   UNL     1      -5.238   6.410  69.654  1.00  0.00    -0.012 OA 
ENDBRANCH  23  24
ENDBRANCH  22  23
ENDBRANCH   6  22
TORSDOF 9
ENDMDL
MODEL      123
REMARK 921   NORMALIZED FREE ENERGY PREDICTED BY IDOCK:   -4.68 KCAL/MOL
REMARK 922        TOTAL FREE ENERGY PREDICTED BY IDOCK:   -8.29 KCAL/MOL
REMARK 923 INTER-LIGAND FREE ENERGY PREDICTED BY IDOCK:   -6.86 KCAL/MOL
REMARK 924 INTRA-LIGAND FREE ENERGY PREDICTED BY IDOCK:   -1.44 KCAL/MOL
REMARK 927      BINDING AFFINITY PREDICTED BY RF-SCORE:    0.00 PKD
ROOT
HETATM    1  C   UNL     1     -12.017   8.557  70.847  1.00  0.00    -0.181 C  
HETATM    2  C   UNL     1     -13.396   9.158  71.057  1.00  0.00    -0.089 C  
HETATM    3  C   UNL     1     -13.157  10.660  71.194  1.00  0.00    -0.322 C  
HETATM    4  O   UNL     1     -13.070  11.032  72.569  1.00  0.00    -0.376 OA 
HETATM    5  C   UNL     1     -11.810  10.959  70.503  1.00  0.00    -0.457 C  
HETATM    6  C   UNL     1      -9.021   8.361  72.670  1.00  0.00    -0.304 C  
HETATM    7  C   UNL     1     -11.242   9.592  70.054  1.00  0.00    -0.271 C  
HETATM    8  H   UNL     1     -12.922  11.966  72.654  1.00  0.00     0.000 HD 
HETATM    9  C   UNL     1      -9.812   9.342  70.489  1.00  0.00    -0.331 C  
HETATM   10  O   UNL     1     -11.330   8.375  72.087  1.00  0.00    -0.316 OA 
HETATM   11  C   UNL     1     -10.005   8.677  71.816  1.00  0.00    -0.301 C  
ENDROOT
BRANCH   5  12
HETATM   12  C   UNL     1     -11.970  11.864  69.299  1.00  0.00    -0.342 C  
HETATM   13  C   UNL     1     -10.939  12.462  68.680  1.00  0.00    -0.283 C  
BRANCH  13  14
HETATM   14  C   UNL     1     -11.057  13.249  67.405  1.00  0.00    -0.278 C  
HETATM   15  O   UNL     1      -9.745  13.621  67.003  1.00  0.00    -0.237 OA 
HETATM   16  H   UNL     1      -9.820  14.118  66.197  1.00  0.00     0.000 HD 
BRANCH  14  17
HETATM   17  C   UNL     1     -11.699  12.429  66.281  1.00  0.00    -0.457 C  
BRANCH  17  18
HETATM   18  C   UNL     1     -10.804  12.312  65.044  1.00  0.00    -0.337 C  
BRANCH  18  19
HETATM   19  C   UNL     1     -10.457  10.857  64.731  1.00  0.00    -0.373 C  
BRANCH  19  20
HETATM   20  C   UNL     1      -9.486  10.295  65.770  1.00  0.00    -0.255 C  
HETATM   21  C   UNL     1     -10.084   9.111  66.511  1.00  0.00    -0.357 C  
ENDBRANCH  19  20
ENDBRANCH  18  19
ENDBRANCH  17  18
ENDBRANCH  14  17
ENDBRANCH  13  14
ENDBRANCH   5  12
BRANCH   6  22
HETATM   22  C   UNL     1      -9.227   7.642  73.972  1.00  0.00    -0.239 C  
BRANCH  22  23
HETATM   23  C   UNL     1      -8.684   6.215  73.923  1.00  0.00    -0.124 C  
BRANCH  23  24
HETATM   24  C   UNL     1      -8.716   5.678  72.496  1.00  0.00    -0.124 C  
HETATM   25  C   UNL     1      -9.813   4.665  72.291  1.00  0.00    -0.167 C  
HETATM   26  O   UNL     1      -9.613   3.496  71.998  1.00  0.00    -0.123 OA 
HETATM   27  O   UNL     1     -11.057   5.175  72.423  1.00  0.00    -0.216 OA 
ENDBRANCH  23  24
ENDBRANCH  22  23
ENDBRANCH   6  22
TORSDOF 9
ENDMDL
MODEL      124
REMARK 921   NORMALIZED FREE ENERGY PREDICTED BY IDOCK:   -4.68 KCAL/MOL
REMARK 922        TOTAL FREE ENERGY PREDICTED BY IDOCK:   -8.29 KCAL/MOL
REMARK 923 INTER-LIGAND FREE ENERGY PREDICTED BY IDOCK:   -7.42 KCAL/MOL
REMARK 924 INTRA-LIGAND FREE ENERGY PREDICTED BY IDOCK:   -0.86 KCAL/MOL
REMARK 927      BINDING AFFINITY PREDICTED BY RF-SCORE:    0.00 PKD
ROOT
HETATM    1  C   UNL     1      -9.400  11.207  65.290  1.00  0.00    -0.219 C  
HETATM    2  C   UNL     1     -10.235  12.133  64.423  1.00  0.00    -0.333 C  
HETATM    3  C   UNL     1     -11.153  12.867  65.398  1.00  0.00    -0.281 C  
HETATM    4  O   UNL     1     -12.423  12.220  65.477  1.00  0.00    -0.597 OA 
HETATM    5  C   UNL     1     -10.469  12.808  66.781  1.00  0.00    -0.253 C  
HETATM    6  C   UNL     1     -10.008   8.498  67.442  1.00  0.00    -0.275 C  
HETATM    7  C   UNL     1      -9.195  11.950  66.596  1.00  0.00    -0.206 C  
HETATM    8  H   UNL     1     -12.994  12.676  66.084  1.00  0.00     0.000 HD 
HETATM    9  C   UNL     1      -9.054  10.825  67.601  1.00  0.00    -0.148 C  
HETATM   10  O   UNL     1     -10.103  10.001  65.597  1.00  0.00    -0.282 OA 
HETATM   11  C   UNL     1      -9.754   9.700  66.904  1.00  0.00    -0.186 C  
ENDROOT
BRANCH   5  12
HETATM   12  C   UNL     1     -10.087  14.182  67.292  1.00  0.00    -0.256 C  
HETATM   13  C   UNL     1     -10.950  15.012  67.900  1.00  0.00    -0.291 C  
BRANCH  13  14
HETATM   14  C   UNL     1     -10.564  16.318  68.536  1.00  0.00    -0.294 C  
HETATM   15  O   UNL     1     -11.077  17.365  67.724  1.00  0.00    -0.240 OA 
HETATM   16  H   UNL     1     -10.834  18.189  68.126  1.00  0.00     0.000 HD 
BRANCH  14  17
HETATM   17  C   UNL     1     -11.147  16.463  69.947  1.00  0.00    -0.313 C  
BRANCH  17  18
HETATM   18  C   UNL     1     -12.371  15.574  70.179  1.00  0.00    -0.384 C  
BRANCH  18  19
HETATM   19  C   UNL     1     -12.102  14.504  71.238  1.00  0.00    -0.419 C  
BRANCH  19  20
HETATM   20  C   UNL     1     -13.208  14.496  72.294  1.00  0.00    -0.477 C  
HETATM   21  C   UNL     1     -12.696  14.974  73.642  1.00  0.00    -0.650 C  
ENDBRANCH  19  20
ENDBRANCH  18  19
ENDBRANCH  17  18
ENDBRANCH  14  17
ENDBRANCH  13  14
ENDBRANCH   5  12
BRANCH   6  22
HETATM   22  C   UNL     1     -10.660   7.361  66.710  1.00  0.00    -0.281 C  
BRANCH  22  23
HETATM   23  C   UNL     1     -10.697   6.090  67.557  1.00  0.00    -0.383 C  
BRANCH  23  24
HETATM   24  C   UNL     1     -10.354   4.870  66.709  1.00  0.00    -0.264 C  
HETATM   25  C   UNL     1      -9.030   5.017  66.004  1.00  0.00    -0.136 C  
HETATM   26  O   UNL     1      -8.906   5.043  64.789  1.00  0.00    -0.153 OA 
HETATM   27  O   UNL     1      -7.971   5.079  66.841  1.00  0.00    -0.102 OA 
ENDBRANCH  23  24
ENDBRANCH  22  23
ENDBRANCH   6  22
TORSDOF 9
ENDMDL
MODEL      125
REMARK 921   NORMALIZED FREE ENERGY PREDICTED BY IDOCK:   -4.67 KCAL/MOL
REMARK 922        TOTAL FREE ENERGY PREDICTED BY IDOCK:   -8.28 KCAL/MOL
REMARK 923 INTER-LIGAND FREE ENERGY PREDICTED BY IDOCK:   -6.64 KCAL/MOL
REMARK 924 INTRA-LIGAND FREE ENERGY PREDICTED BY IDOCK:   -1.64 KCAL/MOL
REMARK 927      BINDING AFFINITY PREDICTED BY RF-SCORE:    0.00 PKD
ROOT
HETATM    1  C   UNL     1     -11.886  10.512  68.884  1.00  0.00    -0.066 C  
HETATM    2  C   UNL     1     -10.887  10.918  67.816  1.00  0.00    -0.309 C  
HETATM    3  C   UNL     1      -9.537  10.949  68.528  1.00  0.00    -0.187 C  
HETATM    4  O   UNL     1      -9.224  12.273  68.957  1.00  0.00    -0.374 OA 
HETATM    5  C   UNL     1      -9.666  10.035  69.765  1.00  0.00    -0.259 C  
HETATM    6  C   UNL     1     -13.028  11.827  71.935  1.00  0.00    -0.435 C  
HETATM    7  C   UNL     1     -11.138   9.559  69.797  1.00  0.00    -0.216 C  
HETATM    8  H   UNL     1      -8.383  12.293  69.400  1.00  0.00     0.000 HD 
HETATM    9  C   UNL     1     -11.827   9.764  71.131  1.00  0.00    -0.466 C  
HETATM   10  O   UNL     1     -12.287  11.629  69.680  1.00  0.00    -0.216 OA 
HETATM   11  C   UNL     1     -12.412  11.133  70.968  1.00  0.00    -0.403 C  
ENDROOT
BRANCH   5  12
HETATM   12  C   UNL     1      -8.745   8.835  69.692  1.00  0.00    -0.136 C  
HETATM   13  C   UNL     1      -8.402   8.099  70.762  1.00  0.00    -0.120 C  
BRANCH  13  14
HETATM   14  C   UNL     1      -7.605   6.827  70.695  1.00  0.00    -0.095 C  
HETATM   15  O   UNL     1      -7.048   6.597  71.983  1.00  0.00    -0.077 OA 
HETATM   16  H   UNL     1      -6.544   5.793  71.940  1.00  0.00     0.000 HD 
BRANCH  14  17
HETATM   17  C   UNL     1      -8.474   5.623  70.317  1.00  0.00    -0.123 C  
BRANCH  17  18
HETATM   18  C   UNL     1      -8.507   5.364  68.808  1.00  0.00    -0.096 C  
BRANCH  18  19
HETATM   19  C   UNL     1      -9.912   5.006  68.324  1.00  0.00    -0.193 C  
BRANCH  19  20
HETATM   20  C   UNL     1     -10.187   5.626  66.954  1.00  0.00    -0.272 C  
HETATM   21  C   UNL     1     -10.857   6.984  67.079  1.00  0.00    -0.413 C  
ENDBRANCH  19  20
ENDBRANCH  18  19
ENDBRANCH  17  18
ENDBRANCH  14  17
ENDBRANCH  13  14
ENDBRANCH   5  12
BRANCH   6  22
HETATM   22  C   UNL     1     -13.659  13.176  71.739  1.00  0.00    -0.334 C  
BRANCH  22  23
HETATM   23  C   UNL     1     -12.666  14.308  71.995  1.00  0.00    -0.404 C  
BRANCH  23  24
HETATM   24  C   UNL     1     -12.804  15.394  70.932  1.00  0.00    -0.536 C  
HETATM   25  C   UNL     1     -11.529  15.599  70.155  1.00  0.00    -0.348 C  
HETATM   26  O   UNL     1     -10.892  16.641  70.158  1.00  0.00    -0.301 OA 
HETATM   27  O   UNL     1     -11.166  14.531  69.412  1.00  0.00    -0.261 OA 
ENDBRANCH  23  24
ENDBRANCH  22  23
ENDBRANCH   6  22
TORSDOF 9
ENDMDL
MODEL      126
REMARK 921   NORMALIZED FREE ENERGY PREDICTED BY IDOCK:   -4.66 KCAL/MOL
REMARK 922        TOTAL FREE ENERGY PREDICTED BY IDOCK:   -8.26 KCAL/MOL
REMARK 923 INTER-LIGAND FREE ENERGY PREDICTED BY IDOCK:   -7.31 KCAL/MOL
REMARK 924 INTRA-LIGAND FREE ENERGY PREDICTED BY IDOCK:   -0.95 KCAL/MOL
REMARK 927      BINDING AFFINITY PREDICTED BY RF-SCORE:    0.00 PKD
ROOT
HETATM    1  C   UNL     1      -9.344   7.169  71.443  1.00  0.00    -0.154 C  
HETATM    2  C   UNL     1      -9.347   7.410  69.944  1.00  0.00    -0.154 C  
HETATM    3  C   UNL     1     -10.757   7.902  69.625  1.00  0.00    -0.218 C  
HETATM    4  O   UNL     1     -11.581   6.821  69.191  1.00  0.00    -0.592 OA 
HETATM    5  C   UNL     1     -11.331   8.481  70.935  1.00  0.00    -0.304 C  
HETATM    6  C   UNL     1     -11.056   5.081  73.690  1.00  0.00    -0.336 C  
HETATM    7  C   UNL     1     -10.263   8.226  72.025  1.00  0.00    -0.339 C  
HETATM    8  H   UNL     1     -12.458   7.127  68.993  1.00  0.00     0.000 HD 
HETATM    9  C   UNL     1     -10.798   7.552  73.272  1.00  0.00    -0.409 C  
HETATM   10  O   UNL     1      -9.905   5.896  71.771  1.00  0.00    -0.162 OA 
HETATM   11  C   UNL     1     -10.617   6.103  72.942  1.00  0.00    -0.232 C  
ENDROOT
BRANCH   5  12
HETATM   12  C   UNL     1     -11.609   9.966  70.835  1.00  0.00    -0.456 C  
HETATM   13  C   UNL     1     -11.699  10.626  69.668  1.00  0.00    -0.368 C  
BRANCH  13  14
HETATM   14  C   UNL     1     -12.109  12.066  69.538  1.00  0.00    -0.212 C  
HETATM   15  O   UNL     1     -11.984  12.669  70.818  1.00  0.00    -0.494 OA 
HETATM   16  H   UNL     1     -12.244  13.579  70.736  1.00  0.00     0.000 HD 
BRANCH  14  17
HETATM   17  C   UNL     1     -11.222  12.829  68.548  1.00  0.00    -0.314 C  
BRANCH  17  18
HETATM   18  C   UNL     1     -11.973  13.260  67.286  1.00  0.00    -0.393 C  
BRANCH  18  19
HETATM   19  C   UNL     1     -11.751  12.282  66.132  1.00  0.00    -0.440 C  
BRANCH  19  20
HETATM   20  C   UNL     1     -12.423  12.789  64.855  1.00  0.00    -0.563 C  
HETATM   21  C   UNL     1     -12.021  14.220  64.542  1.00  0.00    -0.478 C  
ENDBRANCH  19  20
ENDBRANCH  18  19
ENDBRANCH  17  18
ENDBRANCH  14  17
ENDBRANCH  13  14
ENDBRANCH   5  12
BRANCH   6  22
HETATM   22  C   UNL     1     -10.816   3.633  73.372  1.00  0.00    -0.314 C  
BRANCH  22  23
HETATM   23  C   UNL     1      -9.519   3.124  73.999  1.00  0.00    -0.112 C  
BRANCH  23  24
HETATM   24  C   UNL     1      -8.881   2.054  73.119  1.00  0.00    -0.067 C  
HETATM   25  C   UNL     1      -8.571   2.562  71.735  1.00  0.00    -0.064 C  
HETATM   26  O   UNL     1      -9.084   2.119  70.718  1.00  0.00    -0.079 OA 
HETATM   27  O   UNL     1      -7.635   3.535  71.708  1.00  0.00    -0.051 OA 
ENDBRANCH  23  24
ENDBRANCH  22  23
ENDBRANCH   6  22
TORSDOF 9
ENDMDL
MODEL      127
REMARK 921   NORMALIZED FREE ENERGY PREDICTED BY IDOCK:   -4.65 KCAL/MOL
REMARK 922        TOTAL FREE ENERGY PREDICTED BY IDOCK:   -8.25 KCAL/MOL
REMARK 923 INTER-LIGAND FREE ENERGY PREDICTED BY IDOCK:   -6.94 KCAL/MOL
REMARK 924 INTRA-LIGAND FREE ENERGY PREDICTED BY IDOCK:   -1.30 KCAL/MOL
REMARK 927      BINDING AFFINITY PREDICTED BY RF-SCORE:    0.00 PKD
ROOT
HETATM    1  C   UNL     1     -11.779   6.912  71.380  1.00  0.00    -0.316 C  
HETATM    2  C   UNL     1     -11.623   7.880  72.539  1.00  0.00    -0.443 C  
HETATM    3  C   UNL     1     -10.389   8.712  72.196  1.00  0.00    -0.333 C  
HETATM    4  O   UNL     1      -9.228   8.173  72.828  1.00  0.00    -0.220 OA 
HETATM    5  C   UNL     1     -10.213   8.634  70.665  1.00  0.00    -0.237 C  
HETATM    6  C   UNL     1      -9.885   4.320  69.954  1.00  0.00    -0.267 C  
HETATM    7  C   UNL     1     -11.309   7.670  70.153  1.00  0.00    -0.147 C  
HETATM    8  H   UNL     1      -8.460   8.691  72.615  1.00  0.00     0.000 HD 
HETATM    9  C   UNL     1     -10.792   6.564  69.255  1.00  0.00    -0.361 C  
HETATM   10  O   UNL     1     -10.924   5.776  71.526  1.00  0.00    -0.262 OA 
HETATM   11  C   UNL     1     -10.488   5.482  70.244  1.00  0.00    -0.295 C  
ENDROOT
BRANCH   5  12
HETATM   12  C   UNL     1     -10.372   9.985  69.999  1.00  0.00    -0.323 C  
HETATM   13  C   UNL     1     -11.483  10.362  69.345  1.00  0.00    -0.292 C  
BRANCH  13  14
HETATM   14  C   UNL     1     -11.717  11.742  68.797  1.00  0.00    -0.329 C  
HETATM   15  O   UNL     1     -10.926  12.648  69.554  1.00  0.00    -0.447 OA 
HETATM   16  H   UNL     1     -11.074  13.520  69.208  1.00  0.00     0.000 HD 
BRANCH  14  17
HETATM   17  C   UNL     1     -11.310  11.851  67.323  1.00  0.00    -0.393 C  
BRANCH  17  18
HETATM   18  C   UNL     1     -12.108  12.914  66.563  1.00  0.00    -0.375 C  
BRANCH  18  19
HETATM   19  C   UNL     1     -12.046  12.696  65.051  1.00  0.00    -0.497 C  
BRANCH  19  20
HETATM   20  C   UNL     1     -10.612  12.414  64.602  1.00  0.00    -0.339 C  
HETATM   21  C   UNL     1     -10.575  11.741  63.240  1.00  0.00    -0.427 C  
ENDBRANCH  19  20
ENDBRANCH  18  19
ENDBRANCH  17  18
ENDBRANCH  14  17
ENDBRANCH  13  14
ENDBRANCH   5  12
BRANCH   6  22
HETATM   22  C   UNL     1      -9.638   3.221  70.947  1.00  0.00    -0.234 C  
BRANCH  22  23
HETATM   23  C   UNL     1      -8.232   3.299  71.539  1.00  0.00    -0.068 C  
BRANCH  23  24
HETATM   24  C   UNL     1      -8.260   3.986  72.901  1.00  0.00    -0.092 C  
HETATM   25  C   UNL     1      -7.273   5.121  72.989  1.00  0.00    -0.090 C  
HETATM   26  O   UNL     1      -6.328   5.142  73.763  1.00  0.00    -0.060 OA 
HETATM   27  O   UNL     1      -7.548   6.149  72.156  1.00  0.00    -0.094 OA 
ENDBRANCH  23  24
ENDBRANCH  22  23
ENDBRANCH   6  22
TORSDOF 9
ENDMDL
MODEL      128
REMARK 921   NORMALIZED FREE ENERGY PREDICTED BY IDOCK:   -4.64 KCAL/MOL
REMARK 922        TOTAL FREE ENERGY PREDICTED BY IDOCK:   -8.23 KCAL/MOL
REMARK 923 INTER-LIGAND FREE ENERGY PREDICTED BY IDOCK:   -6.86 KCAL/MOL
REMARK 924 INTRA-LIGAND FREE ENERGY PREDICTED BY IDOCK:   -1.38 KCAL/MOL
REMARK 927      BINDING AFFINITY PREDICTED BY RF-SCORE:    0.00 PKD
ROOT
HETATM    1  C   UNL     1      -8.735   9.172  68.032  1.00  0.00    -0.129 C  
HETATM    2  C   UNL     1      -7.918   9.312  66.760  1.00  0.00    -0.108 C  
HETATM    3  C   UNL     1      -8.920   9.124  65.623  1.00  0.00    -0.203 C  
HETATM    4  O   UNL     1      -8.916   7.771  65.168  1.00  0.00    -0.382 OA 
HETATM    5  C   UNL     1     -10.312   9.459  66.199  1.00  0.00    -0.162 C  
HETATM    6  C   UNL     1     -10.662   6.661  69.557  1.00  0.00    -0.305 C  
HETATM    7  C   UNL     1     -10.099   9.750  67.703  1.00  0.00    -0.236 C  
HETATM    8  H   UNL     1      -9.539   7.654  64.461  1.00  0.00     0.000 HD 
HETATM    9  C   UNL     1     -11.020   8.973  68.622  1.00  0.00     0.034 C  
HETATM   10  O   UNL     1      -8.932   7.800  68.381  1.00  0.00    -0.133 OA 
HETATM   11  C   UNL     1     -10.222   7.734  68.883  1.00  0.00    -0.211 C  
ENDROOT
BRANCH   5  12
HETATM   12  C   UNL     1     -10.935  10.667  65.531  1.00  0.00     0.128 C  
HETATM   13  C   UNL     1     -10.424  11.255  64.437  1.00  0.00    -0.407 C  
BRANCH  13  14
HETATM   14  C   UNL     1     -11.096  12.364  63.678  1.00  0.00    -0.473 C  
HETATM   15  O   UNL     1     -12.198  11.803  62.977  1.00  0.00    -0.895 OA 
HETATM   16  H   UNL     1     -12.623  12.504  62.497  1.00  0.00     0.000 HD 
BRANCH  14  17
HETATM   17  C   UNL     1     -11.618  13.463  64.610  1.00  0.00    -0.386 C  
BRANCH  17  18
HETATM   18  C   UNL     1     -10.499  14.336  65.185  1.00  0.00    -0.432 C  
BRANCH  18  19
HETATM   19  C   UNL     1     -10.883  14.931  66.540  1.00  0.00    -0.322 C  
BRANCH  19  20
HETATM   20  C   UNL     1     -11.988  14.107  67.200  1.00  0.00    -0.460 C  
HETATM   21  C   UNL     1     -11.434  13.193  68.280  1.00  0.00    -0.349 C  
ENDBRANCH  19  20
ENDBRANCH  18  19
ENDBRANCH  17  18
ENDBRANCH  14  17
ENDBRANCH  13  14
ENDBRANCH   5  12
BRANCH   6  22
HETATM   22  C   UNL     1      -9.828   5.449  69.859  1.00  0.00    -0.268 C  
BRANCH  22  23
HETATM   23  C   UNL     1     -10.024   4.974  71.298  1.00  0.00    -0.264 C  
BRANCH  23  24
HETATM   24  C   UNL     1      -9.127   5.759  72.250  1.00  0.00    -0.145 C  
HETATM   25  C   UNL     1      -9.902   6.381  73.383  1.00  0.00    -0.178 C  
HETATM   26  O   UNL     1      -9.990   7.585  73.566  1.00  0.00    -0.294 OA 
HETATM   27  O   UNL     1     -10.467   5.480  74.216  1.00  0.00    -0.276 OA 
ENDBRANCH  23  24
ENDBRANCH  22  23
ENDBRANCH   6  22
TORSDOF 9
ENDMDL
MODEL      129
REMARK 921   NORMALIZED FREE ENERGY PREDICTED BY IDOCK:   -4.64 KCAL/MOL
REMARK 922        TOTAL FREE ENERGY PREDICTED BY IDOCK:   -8.23 KCAL/MOL
REMARK 923 INTER-LIGAND FREE ENERGY PREDICTED BY IDOCK:   -7.57 KCAL/MOL
REMARK 924 INTRA-LIGAND FREE ENERGY PREDICTED BY IDOCK:   -0.67 KCAL/MOL
REMARK 927      BINDING AFFINITY PREDICTED BY RF-SCORE:    0.00 PKD
ROOT
HETATM    1  C   UNL     1     -11.324   5.823  72.087  1.00  0.00    -0.258 C  
HETATM    2  C   UNL     1     -10.872   6.440  73.398  1.00  0.00    -0.243 C  
HETATM    3  C   UNL     1     -10.350   7.825  73.025  1.00  0.00    -0.347 C  
HETATM    4  O   UNL     1      -8.934   7.799  72.850  1.00  0.00    -0.150 OA 
HETATM    5  C   UNL     1     -11.018   8.206  71.687  1.00  0.00    -0.306 C  
HETATM    6  C   UNL     1      -9.816   4.919  69.045  1.00  0.00    -0.250 C  
HETATM    7  C   UNL     1     -11.855   6.978  71.258  1.00  0.00    -0.371 C  
HETATM    8  H   UNL     1      -8.609   8.661  72.618  1.00  0.00     0.000 HD 
HETATM    9  C   UNL     1     -11.596   6.516  69.838  1.00  0.00    -0.433 C  
HETATM   10  O   UNL     1     -10.226   5.259  71.366  1.00  0.00    -0.198 OA 
HETATM   11  C   UNL     1     -10.489   5.528  70.032  1.00  0.00    -0.303 C  
ENDROOT
BRANCH   5  12
HETATM   12  C   UNL     1     -11.920   9.415  71.818  1.00  0.00    -0.452 C  
HETATM   13  C   UNL     1     -11.902  10.449  70.961  1.00  0.00    -0.458 C  
BRANCH  13  14
HETATM   14  C   UNL     1     -12.879  11.591  70.990  1.00  0.00    -0.263 C  
HETATM   15  O   UNL     1     -13.397  11.684  72.310  1.00  0.00    -0.625 OA 
HETATM   16  H   UNL     1     -14.014  12.406  72.328  1.00  0.00     0.000 HD 
BRANCH  14  17
HETATM   17  C   UNL     1     -12.214  12.925  70.631  1.00  0.00    -0.386 C  
BRANCH  17  18
HETATM   18  C   UNL     1     -12.837  14.116  71.363  1.00  0.00    -0.428 C  
BRANCH  18  19
HETATM   19  C   UNL     1     -12.654  15.419  70.585  1.00  0.00    -0.491 C  
BRANCH  19  20
HETATM   20  C   UNL     1     -11.728  16.375  71.338  1.00  0.00    -0.293 C  
HETATM   21  C   UNL     1     -11.821  16.174  72.841  1.00  0.00    -0.551 C  
ENDBRANCH  19  20
ENDBRANCH  18  19
ENDBRANCH  17  18
ENDBRANCH  14  17
ENDBRANCH  13  14
ENDBRANCH   5  12
BRANCH   6  22
HETATM   22  C   UNL     1      -8.746   3.887  69.258  1.00  0.00    -0.127 C  
BRANCH  22  23
HETATM   23  C   UNL     1      -8.668   2.906  68.090  1.00  0.00    -0.137 C  
BRANCH  23  24
HETATM   24  C   UNL     1      -9.530   3.385  66.927  1.00  0.00    -0.174 C  
HETATM   25  C   UNL     1      -8.727   3.594  65.668  1.00  0.00    -0.117 C  
HETATM   26  O   UNL     1      -8.592   4.677  65.120  1.00  0.00    -0.125 OA 
HETATM   27  O   UNL     1      -8.194   2.458  65.167  1.00  0.00    -0.081 OA 
ENDBRANCH  23  24
ENDBRANCH  22  23
ENDBRANCH   6  22
TORSDOF 9
ENDMDL
MODEL      130
REMARK 921   NORMALIZED FREE ENERGY PREDICTED BY IDOCK:   -4.63 KCAL/MOL
REMARK 922        TOTAL FREE ENERGY PREDICTED BY IDOCK:   -8.21 KCAL/MOL
REMARK 923 INTER-LIGAND FREE ENERGY PREDICTED BY IDOCK:   -6.59 KCAL/MOL
REMARK 924 INTRA-LIGAND FREE ENERGY PREDICTED BY IDOCK:   -1.62 KCAL/MOL
REMARK 927      BINDING AFFINITY PREDICTED BY RF-SCORE:    0.00 PKD
ROOT
HETATM    1  C   UNL     1      -9.722   8.994  68.446  1.00  0.00    -0.156 C  
HETATM    2  C   UNL     1      -8.439   9.793  68.306  1.00  0.00    -0.114 C  
HETATM    3  C   UNL     1      -7.842   9.352  66.971  1.00  0.00    -0.098 C  
HETATM    4  O   UNL     1      -6.873   8.323  67.169  1.00  0.00    -0.068 OA 
HETATM    5  C   UNL     1      -9.007   8.793  66.127  1.00  0.00    -0.225 C  
HETATM    6  C   UNL     1     -10.594   5.598  68.677  1.00  0.00    -0.268 C  
HETATM    7  C   UNL     1     -10.258   8.837  67.036  1.00  0.00    -0.351 C  
HETATM    8  H   UNL     1      -6.501   8.049  66.339  1.00  0.00     0.000 HD 
HETATM    9  C   UNL     1     -11.016   7.526  67.111  1.00  0.00    -0.164 C  
HETATM   10  O   UNL     1      -9.469   7.680  68.949  1.00  0.00    -0.149 OA 
HETATM   11  C   UNL     1     -10.356   6.855  68.275  1.00  0.00    -0.193 C  
ENDROOT
BRANCH   5  12
HETATM   12  C   UNL     1      -9.257   9.613  64.878  1.00  0.00    -0.306 C  
HETATM   13  C   UNL     1     -10.277  10.477  64.751  1.00  0.00    -0.373 C  
BRANCH  13  14
HETATM   14  C   UNL     1     -10.466  11.400  63.580  1.00  0.00    -0.414 C  
HETATM   15  O   UNL     1     -10.084  10.693  62.407  1.00  0.00    -0.729 OA 
HETATM   16  H   UNL     1     -10.204  11.276  61.667  1.00  0.00     0.000 HD 
BRANCH  14  17
HETATM   17  C   UNL     1     -11.924  11.846  63.430  1.00  0.00    -0.528 C  
BRANCH  17  18
HETATM   18  C   UNL     1     -12.086  13.368  63.458  1.00  0.00    -0.497 C  
BRANCH  18  19
HETATM   19  C   UNL     1     -11.458  13.982  64.710  1.00  0.00    -0.371 C  
BRANCH  19  20
HETATM   20  C   UNL     1     -12.456  13.991  65.869  1.00  0.00    -0.513 C  
HETATM   21  C   UNL     1     -11.915  13.247  67.078  1.00  0.00    -0.419 C  
ENDBRANCH  19  20
ENDBRANCH  18  19
ENDBRANCH  17  18
ENDBRANCH  14  17
ENDBRANCH  13  14
ENDBRANCH   5  12
BRANCH   6  22
HETATM   22  C   UNL     1      -9.965   4.960  69.881  1.00  0.00    -0.317 C  
BRANCH  22  23
HETATM   23  C   UNL     1      -8.835   4.008  69.492  1.00  0.00    -0.143 C  
BRANCH  23  24
HETATM   24  C   UNL     1      -7.477   4.667  69.716  1.00  0.00    -0.055 C  
HETATM   25  C   UNL     1      -6.676   4.773  68.444  1.00  0.00    -0.050 C  
HETATM   26  O   UNL     1      -5.607   4.211  68.265  1.00  0.00    -0.015 OA 
HETATM   27  O   UNL     1      -7.229   5.588  67.518  1.00  0.00    -0.072 OA 
ENDBRANCH  23  24
ENDBRANCH  22  23
ENDBRANCH   6  22
TORSDOF 9
ENDMDL
MODEL      131
REMARK 921   NORMALIZED FREE ENERGY PREDICTED BY IDOCK:   -4.61 KCAL/MOL
REMARK 922        TOTAL FREE ENERGY PREDICTED BY IDOCK:   -8.18 KCAL/MOL
REMARK 923 INTER-LIGAND FREE ENERGY PREDICTED BY IDOCK:   -6.23 KCAL/MOL
REMARK 924 INTRA-LIGAND FREE ENERGY PREDICTED BY IDOCK:   -1.96 KCAL/MOL
REMARK 927      BINDING AFFINITY PREDICTED BY RF-SCORE:    0.00 PKD
ROOT
HETATM    1  C   UNL     1      -8.570   6.779  67.506  1.00  0.00    -0.120 C  
HETATM    2  C   UNL     1      -9.710   7.514  66.824  1.00  0.00    -0.283 C  
HETATM    3  C   UNL     1     -10.958   6.696  67.150  1.00  0.00    -0.408 C  
HETATM    4  O   UNL     1     -11.254   5.787  66.090  1.00  0.00    -0.735 OA 
HETATM    5  C   UNL     1     -10.642   5.894  68.430  1.00  0.00    -0.314 C  
HETATM    6  C   UNL     1      -7.086   3.604  67.273  1.00  0.00    -0.059 C  
HETATM    7  C   UNL     1      -9.164   6.196  68.774  1.00  0.00    -0.124 C  
HETATM    8  H   UNL     1     -12.031   5.278  66.292  1.00  0.00     0.000 HD 
HETATM    9  C   UNL     1      -8.316   4.961  69.003  1.00  0.00    -0.082 C  
HETATM   10  O   UNL     1      -8.105   5.682  66.716  1.00  0.00    -0.101 OA 
HETATM   11  C   UNL     1      -7.800   4.682  67.625  1.00  0.00    -0.089 C  
ENDROOT
BRANCH   5  12
HETATM   12  C   UNL     1     -11.527   6.293  69.592  1.00  0.00    -0.425 C  
HETATM   13  C   UNL     1     -11.205   6.073  70.878  1.00  0.00    -0.335 C  
BRANCH  13  14
HETATM   14  C   UNL     1     -11.998   6.582  72.049  1.00  0.00    -0.326 C  
HETATM   15  O   UNL     1     -11.794   5.684  73.132  1.00  0.00    -0.518 OA 
HETATM   16  H   UNL     1     -12.295   6.006  73.872  1.00  0.00     0.000 HD 
BRANCH  14  17
HETATM   17  C   UNL     1     -11.549   7.982  72.482  1.00  0.00    -0.464 C  
BRANCH  17  18
HETATM   18  C   UNL     1     -10.069   8.037  72.871  1.00  0.00    -0.376 C  
BRANCH  18  19
HETATM   19  C   UNL     1      -9.211   8.629  71.752  1.00  0.00    -0.338 C  
BRANCH  19  20
HETATM   20  C   UNL     1     -10.052   9.514  70.833  1.00  0.00    -0.330 C  
HETATM   21  C   UNL     1      -9.267   9.954  69.609  1.00  0.00    -0.246 C  
ENDBRANCH  19  20
ENDBRANCH  18  19
ENDBRANCH  17  18
ENDBRANCH  14  17
ENDBRANCH  13  14
ENDBRANCH   5  12
BRANCH   6  22
HETATM   22  C   UNL     1      -6.528   3.367  65.900  1.00  0.00    -0.033 C  
BRANCH  22  23
HETATM   23  C   UNL     1      -7.077   2.084  65.279  1.00  0.00    -0.052 C  
BRANCH  23  24
HETATM   24  C   UNL     1      -8.598   2.146  65.175  1.00  0.00    -0.110 C  
HETATM   25  C   UNL     1      -9.061   3.193  64.194  1.00  0.00    -0.109 C  
HETATM   26  O   UNL     1      -9.727   4.168  64.504  1.00  0.00    -0.163 OA 
HETATM   27  O   UNL     1      -8.707   2.936  62.915  1.00  0.00    -0.085 OA 
ENDBRANCH  23  24
ENDBRANCH  22  23
ENDBRANCH   6  22
TORSDOF 9
ENDMDL
MODEL      132
REMARK 921   NORMALIZED FREE ENERGY PREDICTED BY IDOCK:   -4.59 KCAL/MOL
REMARK 922        TOTAL FREE ENERGY PREDICTED BY IDOCK:   -8.16 KCAL/MOL
REMARK 923 INTER-LIGAND FREE ENERGY PREDICTED BY IDOCK:   -6.75 KCAL/MOL
REMARK 924 INTRA-LIGAND FREE ENERGY PREDICTED BY IDOCK:   -1.41 KCAL/MOL
REMARK 927      BINDING AFFINITY PREDICTED BY RF-SCORE:    0.00 PKD
ROOT
HETATM    1  C   UNL     1      -9.366   9.325  69.015  1.00  0.00    -0.151 C  
HETATM    2  C   UNL     1      -8.964   8.573  67.759  1.00  0.00    -0.140 C  
HETATM    3  C   UNL     1     -10.156   8.715  66.815  1.00  0.00    -0.296 C  
HETATM    4  O   UNL     1     -11.011   7.576  66.909  1.00  0.00    -0.508 OA 
HETATM    5  C   UNL     1     -10.933   9.969  67.266  1.00  0.00    -0.225 C  
HETATM    6  C   UNL     1     -11.887   9.054  71.447  1.00  0.00    -0.395 C  
HETATM    7  C   UNL     1     -10.219  10.485  68.538  1.00  0.00    -0.190 C  
HETATM    8  H   UNL     1     -11.752   7.664  66.322  1.00  0.00     0.000 HD 
HETATM    9  C   UNL     1     -11.144  10.725  69.715  1.00  0.00    -0.346 C  
HETATM   10  O   UNL     1     -10.187   8.521  69.867  1.00  0.00    -0.194 OA 
HETATM   11  C   UNL     1     -11.122   9.395  70.401  1.00  0.00    -0.261 C  
ENDROOT
BRANCH   5  12
HETATM   12  C   UNL     1     -10.937  11.055  66.210  1.00  0.00    -0.184 C  
HETATM   13  C   UNL     1     -11.750  12.124  66.249  1.00  0.00    -0.389 C  
BRANCH  13  14
HETATM   14  C   UNL     1     -11.677  13.279  65.291  1.00  0.00    -0.330 C  
HETATM   15  O   UNL     1     -12.734  14.175  65.612  1.00  0.00    -0.514 OA 
HETATM   16  H   UNL     1     -12.687  14.905  65.006  1.00  0.00     0.000 HD 
BRANCH  14  17
HETATM   17  C   UNL     1     -10.347  14.033  65.401  1.00  0.00    -0.377 C  
BRANCH  17  18
HETATM   18  C   UNL     1     -10.120  14.640  66.789  1.00  0.00    -0.266 C  
BRANCH  18  19
HETATM   19  C   UNL     1      -8.635  14.687  67.151  1.00  0.00    -0.244 C  
BRANCH  19  20
HETATM   20  C   UNL     1      -8.200  13.386  67.825  1.00  0.00    -0.172 C  
HETATM   21  C   UNL     1      -6.965  13.589  68.687  1.00  0.00    -0.100 C  
ENDBRANCH  19  20
ENDBRANCH  18  19
ENDBRANCH  17  18
ENDBRANCH  14  17
ENDBRANCH  13  14
ENDBRANCH   5  12
BRANCH   6  22
HETATM   22  C   UNL     1     -11.811   7.734  72.159  1.00  0.00    -0.370 C  
BRANCH  22  23
HETATM   23  C   UNL     1     -10.725   7.734  73.233  1.00  0.00    -0.335 C  
BRANCH  23  24
HETATM   24  C   UNL     1     -10.372   6.306  73.639  1.00  0.00    -0.286 C  
HETATM   25  C   UNL     1      -9.744   5.530  72.511  1.00  0.00    -0.152 C  
HETATM   26  O   UNL     1     -10.243   4.534  72.010  1.00  0.00    -0.192 OA 
HETATM   27  O   UNL     1      -8.542   6.010  72.121  1.00  0.00    -0.128 OA 
ENDBRANCH  23  24
ENDBRANCH  22  23
ENDBRANCH   6  22
TORSDOF 9
ENDMDL
MODEL      133
REMARK 921   NORMALIZED FREE ENERGY PREDICTED BY IDOCK:   -4.59 KCAL/MOL
REMARK 922        TOTAL FREE ENERGY PREDICTED BY IDOCK:   -8.16 KCAL/MOL
REMARK 923 INTER-LIGAND FREE ENERGY PREDICTED BY IDOCK:   -7.10 KCAL/MOL
REMARK 924 INTRA-LIGAND FREE ENERGY PREDICTED BY IDOCK:   -1.06 KCAL/MOL
REMARK 927      BINDING AFFINITY PREDICTED BY RF-SCORE:    0.00 PKD
ROOT
HETATM    1  C   UNL     1     -10.923  15.331  67.010  1.00  0.00    -0.324 C  
HETATM    2  C   UNL     1     -11.611  14.547  65.906  1.00  0.00    -0.349 C  
HETATM    3  C   UNL     1     -10.636  13.427  65.550  1.00  0.00    -0.290 C  
HETATM    4  O   UNL     1      -9.832  13.797  64.430  1.00  0.00    -0.687 OA 
HETATM    5  C   UNL     1      -9.726  13.222  66.779  1.00  0.00    -0.258 C  
HETATM    6  C   UNL     1      -7.967  17.199  67.344  1.00  0.00    -0.197 C  
HETATM    7  C   UNL     1     -10.137  14.306  67.805  1.00  0.00    -0.231 C  
HETATM    8  H   UNL     1      -9.226  13.100  64.208  1.00  0.00     0.000 HD 
HETATM    9  C   UNL     1      -8.978  15.120  68.345  1.00  0.00    -0.183 C  
HETATM   10  O   UNL     1      -9.980  16.266  66.480  1.00  0.00    -0.250 OA 
HETATM   11  C   UNL     1      -8.917  16.254  67.369  1.00  0.00    -0.187 C  
ENDROOT
BRANCH   5  12
HETATM   12  C   UNL     1      -9.893  11.850  67.396  1.00  0.00    -0.192 C  
HETATM   13  C   UNL     1      -9.767  10.706  66.703  1.00  0.00    -0.225 C  
BRANCH  13  14
HETATM   14  C   UNL     1      -9.790   9.335  67.319  1.00  0.00    -0.182 C  
HETATM   15  O   UNL     1     -11.124   9.068  67.730  1.00  0.00    -0.497 OA 
HETATM   16  H   UNL     1     -11.139   8.202  68.119  1.00  0.00     0.000 HD 
BRANCH  14  17
HETATM   17  C   UNL     1      -9.359   8.251  66.324  1.00  0.00    -0.267 C  
BRANCH  17  18
HETATM   18  C   UNL     1      -8.270   8.729  65.360  1.00  0.00    -0.137 C  
BRANCH  18  19
HETATM   19  C   UNL     1      -7.959   7.680  64.292  1.00  0.00    -0.112 C  
BRANCH  19  20
HETATM   20  C   UNL     1      -8.297   8.209  62.898  1.00  0.00    -0.058 C  
HETATM   21  C   UNL     1      -8.777   9.650  62.948  1.00  0.00    -0.227 C  
ENDBRANCH  19  20
ENDBRANCH  18  19
ENDBRANCH  17  18
ENDBRANCH  14  17
ENDBRANCH  13  14
ENDBRANCH   5  12
BRANCH   6  22
HETATM   22  C   UNL     1      -7.952  18.362  66.395  1.00  0.00    -0.288 C  
BRANCH  22  23
HETATM   23  C   UNL     1      -7.815  19.693  67.133  1.00  0.00    -0.300 C  
BRANCH  23  24
HETATM   24  C   UNL     1      -9.128  20.469  67.088  1.00  0.00    -0.452 C  
HETATM   25  C   UNL     1     -10.267  19.704  67.711  1.00  0.00    -0.436 C  
HETATM   26  O   UNL     1     -11.256  19.337  67.096  1.00  0.00    -0.324 OA 
HETATM   27  O   UNL     1     -10.118  19.489  69.037  1.00  0.00    -0.442 OA 
ENDBRANCH  23  24
ENDBRANCH  22  23
ENDBRANCH   6  22
TORSDOF 9
ENDMDL
MODEL      134
REMARK 921   NORMALIZED FREE ENERGY PREDICTED BY IDOCK:   -4.58 KCAL/MOL
REMARK 922        TOTAL FREE ENERGY PREDICTED BY IDOCK:   -8.13 KCAL/MOL
REMARK 923 INTER-LIGAND FREE ENERGY PREDICTED BY IDOCK:   -6.80 KCAL/MOL
REMARK 924 INTRA-LIGAND FREE ENERGY PREDICTED BY IDOCK:   -1.33 KCAL/MOL
REMARK 927      BINDING AFFINITY PREDICTED BY RF-SCORE:    0.00 PKD
ROOT
HETATM    1  C   UNL     1      -9.863  11.755  66.012  1.00  0.00    -0.232 C  
HETATM    2  C   UNL     1     -10.448  12.484  64.815  1.00  0.00    -0.336 C  
HETATM    3  C   UNL     1     -11.848  12.907  65.255  1.00  0.00    -0.392 C  
HETATM    4  O   UNL     1     -12.820  11.956  64.822  1.00  0.00    -0.286 OA 
HETATM    5  C   UNL     1     -11.834  12.950  66.798  1.00  0.00    -0.452 C  
HETATM    6  C   UNL     1     -10.634   8.869  67.860  1.00  0.00    -0.244 C  
HETATM    7  C   UNL     1     -10.434  12.454  67.231  1.00  0.00    -0.237 C  
HETATM    8  H   UNL     1     -13.691  12.220  65.095  1.00  0.00     0.000 HD 
HETATM    9  C   UNL     1     -10.461  11.349  68.267  1.00  0.00    -0.221 C  
HETATM   10  O   UNL     1     -10.301  10.395  66.063  1.00  0.00    -0.241 OA 
HETATM   11  C   UNL     1     -10.485  10.122  67.409  1.00  0.00    -0.256 C  
ENDROOT
BRANCH   5  12
HETATM   12  C   UNL     1     -12.069  14.345  67.337  1.00  0.00    -0.348 C  
HETATM   13  C   UNL     1     -11.665  14.747  68.553  1.00  0.00    -0.347 C  
BRANCH  13  14
HETATM   14  C   UNL     1     -11.762  16.161  69.054  1.00  0.00    -0.254 C  
HETATM   15  O   UNL     1     -12.054  16.108  70.445  1.00  0.00    -0.418 OA 
HETATM   16  H   UNL     1     -12.115  17.001  70.761  1.00  0.00     0.000 HD 
BRANCH  14  17
HETATM   17  C   UNL     1     -10.452  16.931  68.858  1.00  0.00    -0.346 C  
BRANCH  17  18
HETATM   18  C   UNL     1     -10.568  18.046  67.816  1.00  0.00    -0.409 C  
BRANCH  18  19
HETATM   19  C   UNL     1      -9.533  17.892  66.702  1.00  0.00    -0.303 C  
BRANCH  19  20
HETATM   20  C   UNL     1      -9.535  16.465  66.154  1.00  0.00    -0.363 C  
HETATM   21  C   UNL     1      -8.224  15.753  66.442  1.00  0.00    -0.206 C  
ENDBRANCH  19  20
ENDBRANCH  18  19
ENDBRANCH  17  18
ENDBRANCH  14  17
ENDBRANCH  13  14
ENDBRANCH   5  12
BRANCH   6  22
HETATM   22  C   UNL     1     -10.598   7.645  66.991  1.00  0.00    -0.406 C  
BRANCH  22  23
HETATM   23  C   UNL     1      -9.488   6.683  67.414  1.00  0.00    -0.143 C  
BRANCH  23  24
HETATM   24  C   UNL     1      -8.118   7.265  67.080  1.00  0.00    -0.114 C  
HETATM   25  C   UNL     1      -7.462   6.556  65.924  1.00  0.00    -0.081 C  
HETATM   26  O   UNL     1      -6.416   5.932  66.014  1.00  0.00    -0.040 OA 
HETATM   27  O   UNL     1      -8.117   6.704  64.751  1.00  0.00    -0.122 OA 
ENDBRANCH  23  24
ENDBRANCH  22  23
ENDBRANCH   6  22
TORSDOF 9
ENDMDL
MODEL      135
REMARK 921   NORMALIZED FREE ENERGY PREDICTED BY IDOCK:   -4.56 KCAL/MOL
REMARK 922        TOTAL FREE ENERGY PREDICTED BY IDOCK:   -8.10 KCAL/MOL
REMARK 923 INTER-LIGAND FREE ENERGY PREDICTED BY IDOCK:   -6.92 KCAL/MOL
REMARK 924 INTRA-LIGAND FREE ENERGY PREDICTED BY IDOCK:   -1.18 KCAL/MOL
REMARK 927      BINDING AFFINITY PREDICTED BY RF-SCORE:    0.00 PKD
ROOT
HETATM    1  C   UNL     1     -11.349  11.073  67.122  1.00  0.00    -0.136 C  
HETATM    2  C   UNL     1     -11.398  10.938  68.633  1.00  0.00    -0.360 C  
HETATM    3  C   UNL     1     -10.209  11.750  69.142  1.00  0.00     0.076 C  
HETATM    4  O   UNL     1      -9.081  10.906  69.364  1.00  0.00    -0.390 OA 
HETATM    5  C   UNL     1      -9.866  12.773  68.039  1.00  0.00    -0.226 C  
HETATM    6  C   UNL     1      -9.102  10.214  64.561  1.00  0.00    -0.280 C  
HETATM    7  C   UNL     1     -10.817  12.468  66.857  1.00  0.00    -0.280 C  
HETATM    8  H   UNL     1      -8.341  11.411  69.680  1.00  0.00     0.000 HD 
HETATM    9  C   UNL     1     -10.116  12.310  65.522  1.00  0.00    -0.279 C  
HETATM   10  O   UNL     1     -10.421  10.152  66.543  1.00  0.00    -0.222 OA 
HETATM   11  C   UNL     1      -9.828  10.841  65.497  1.00  0.00    -0.255 C  
ENDROOT
BRANCH   5  12
HETATM   12  C   UNL     1     -10.067  14.203  68.496  1.00  0.00    -0.243 C  
HETATM   13  C   UNL     1     -10.818  14.542  69.557  1.00  0.00    -0.209 C  
BRANCH  13  14
HETATM   14  C   UNL     1     -10.920  15.935  70.112  1.00  0.00    -0.364 C  
HETATM   15  O   UNL     1     -11.126  16.822  69.020  1.00  0.00    -0.277 OA 
HETATM   16  H   UNL     1     -11.190  17.702  69.371  1.00  0.00     0.000 HD 
BRANCH  14  17
HETATM   17  C   UNL     1     -12.094  16.080  71.087  1.00  0.00    -0.406 C  
BRANCH  17  18
HETATM   18  C   UNL     1     -11.856  15.357  72.415  1.00  0.00    -0.558 C  
BRANCH  18  19
HETATM   19  C   UNL     1     -13.168  14.906  73.059  1.00  0.00    -0.596 C  
BRANCH  19  20
HETATM   20  C   UNL     1     -13.913  13.932  72.146  1.00  0.00    -0.639 C  
HETATM   21  C   UNL     1     -13.215  12.584  72.078  1.00  0.00    -0.524 C  
ENDBRANCH  19  20
ENDBRANCH  18  19
ENDBRANCH  17  18
ENDBRANCH  14  17
ENDBRANCH  13  14
ENDBRANCH   5  12
BRANCH   6  22
HETATM   22  C   UNL     1      -8.870   8.731  64.520  1.00  0.00    -0.011 C  
BRANCH  22  23
HETATM   23  C   UNL     1      -7.677   8.321  65.382  1.00  0.00    -0.103 C  
BRANCH  23  24
HETATM   24  C   UNL     1      -8.148   7.646  66.666  1.00  0.00    -0.119 C  
HETATM   25  C   UNL     1      -9.186   6.584  66.406  1.00  0.00    -0.153 C  
HETATM   26  O   UNL     1     -10.333   6.637  66.823  1.00  0.00    -0.219 OA 
HETATM   27  O   UNL     1      -8.723   5.533  65.694  1.00  0.00    -0.146 OA 
ENDBRANCH  23  24
ENDBRANCH  22  23
ENDBRANCH   6  22
TORSDOF 9
ENDMDL
MODEL      136
REMARK 921   NORMALIZED FREE ENERGY PREDICTED BY IDOCK:   -4.53 KCAL/MOL
REMARK 922        TOTAL FREE ENERGY PREDICTED BY IDOCK:   -8.06 KCAL/MOL
REMARK 923 INTER-LIGAND FREE ENERGY PREDICTED BY IDOCK:   -6.88 KCAL/MOL
REMARK 924 INTRA-LIGAND FREE ENERGY PREDICTED BY IDOCK:   -1.18 KCAL/MOL
REMARK 927      BINDING AFFINITY PREDICTED BY RF-SCORE:    0.00 PKD
ROOT
HETATM    1  C   UNL     1     -10.578  11.505  66.082  1.00  0.00    -0.266 C  
HETATM    2  C   UNL     1      -9.760  10.449  65.360  1.00  0.00    -0.325 C  
HETATM    3  C   UNL     1      -8.500  10.277  66.204  1.00  0.00    -0.141 C  
HETATM    4  O   UNL     1      -7.437  11.079  65.690  1.00  0.00    -0.354 OA 
HETATM    5  C   UNL     1      -8.851  10.757  67.628  1.00  0.00    -0.132 C  
HETATM    6  C   UNL     1     -10.171  14.883  66.954  1.00  0.00    -0.254 C  
HETATM    7  C   UNL     1     -10.301  11.290  67.558  1.00  0.00    -0.224 C  
HETATM    8  H   UNL     1      -6.653  10.973  66.215  1.00  0.00     0.000 HD 
HETATM    9  C   UNL     1     -10.479  12.680  68.136  1.00  0.00    -0.239 C  
HETATM   10  O   UNL     1     -10.133  12.824  65.758  1.00  0.00    -0.281 OA 
HETATM   11  C   UNL     1     -10.243  13.545  66.937  1.00  0.00    -0.256 C  
ENDROOT
BRANCH   5  12
HETATM   12  C   UNL     1      -8.769   9.640  68.648  1.00  0.00    -0.124 C  
HETATM   13  C   UNL     1      -9.637   8.616  68.697  1.00  0.00    -0.159 C  
BRANCH  13  14
HETATM   14  C   UNL     1      -9.497   7.429  69.607  1.00  0.00    -0.156 C  
HETATM   15  O   UNL     1      -8.145   7.374  70.042  1.00  0.00    -0.123 OA 
HETATM   16  H   UNL     1      -8.056   6.624  70.618  1.00  0.00     0.000 HD 
BRANCH  14  17
HETATM   17  C   UNL     1     -10.403   7.538  70.838  1.00  0.00    -0.203 C  
BRANCH  17  18
HETATM   18  C   UNL     1     -11.652   8.386  70.584  1.00  0.00    -0.205 C  
BRANCH  18  19
HETATM   19  C   UNL     1     -11.836   9.461  71.655  1.00  0.00    -0.464 C  
BRANCH  19  20
HETATM   20  C   UNL     1     -13.119   9.219  72.451  1.00  0.00    -0.481 C  
HETATM   21  C   UNL     1     -14.213   8.626  71.580  1.00  0.00    -0.463 C  
ENDBRANCH  19  20
ENDBRANCH  18  19
ENDBRANCH  17  18
ENDBRANCH  14  17
ENDBRANCH  13  14
ENDBRANCH   5  12
BRANCH   6  22
HETATM   22  C   UNL     1      -9.991  15.739  65.733  1.00  0.00    -0.389 C  
BRANCH  22  23
HETATM   23  C   UNL     1      -9.917  17.223  66.088  1.00  0.00    -0.288 C  
BRANCH  23  24
HETATM   24  C   UNL     1      -8.735  17.495  67.014  1.00  0.00    -0.254 C  
HETATM   25  C   UNL     1      -7.417  17.456  66.285  1.00  0.00    -0.319 C  
HETATM   26  O   UNL     1      -6.533  16.647  66.520  1.00  0.00    -0.248 OA 
HETATM   27  O   UNL     1      -7.276  18.433  65.362  1.00  0.00    -0.534 OA 
ENDBRANCH  23  24
ENDBRANCH  22  23
ENDBRANCH   6  22
TORSDOF 9
ENDMDL
MODEL      137
REMARK 921   NORMALIZED FREE ENERGY PREDICTED BY IDOCK:   -4.53 KCAL/MOL
REMARK 922        TOTAL FREE ENERGY PREDICTED BY IDOCK:   -8.06 KCAL/MOL
REMARK 923 INTER-LIGAND FREE ENERGY PREDICTED BY IDOCK:   -7.31 KCAL/MOL
REMARK 924 INTRA-LIGAND FREE ENERGY PREDICTED BY IDOCK:   -0.75 KCAL/MOL
REMARK 927      BINDING AFFINITY PREDICTED BY RF-SCORE:    0.00 PKD
ROOT
HETATM    1  C   UNL     1     -11.256  12.194  64.813  1.00  0.00    -0.323 C  
HETATM    2  C   UNL     1     -10.892  11.360  63.598  1.00  0.00    -0.459 C  
HETATM    3  C   UNL     1      -9.715  10.497  64.048  1.00  0.00    -0.323 C  
HETATM    4  O   UNL     1      -8.477  11.104  63.679  1.00  0.00    -0.377 OA 
HETATM    5  C   UNL     1      -9.794  10.407  65.587  1.00  0.00    -0.321 C  
HETATM    6  C   UNL     1      -9.673  14.617  66.803  1.00  0.00    -0.267 C  
HETATM    7  C   UNL     1     -10.978  11.307  66.011  1.00  0.00    -0.237 C  
HETATM    8  H   UNL     1      -7.745  10.567  63.958  1.00  0.00     0.000 HD 
HETATM    9  C   UNL     1     -10.638  12.309  67.096  1.00  0.00    -0.250 C  
HETATM   10  O   UNL     1     -10.411  13.341  64.933  1.00  0.00    -0.333 OA 
HETATM   11  C   UNL     1     -10.197  13.494  66.294  1.00  0.00    -0.299 C  
ENDROOT
BRANCH   5  12
HETATM   12  C   UNL     1     -10.034   8.991  66.068  1.00  0.00    -0.246 C  
HETATM   13  C   UNL     1      -9.652   8.545  67.276  1.00  0.00    -0.220 C  
BRANCH  13  14
HETATM   14  C   UNL     1      -9.999   7.191  67.828  1.00  0.00    -0.155 C  
HETATM   15  O   UNL     1     -11.060   7.362  68.759  1.00  0.00    -0.433 OA 
HETATM   16  H   UNL     1     -11.279   6.506  69.108  1.00  0.00     0.000 HD 
BRANCH  14  17
HETATM   17  C   UNL     1     -10.463   6.225  66.731  1.00  0.00    -0.311 C  
BRANCH  17  18
HETATM   18  C   UNL     1      -9.353   5.280  66.264  1.00  0.00    -0.159 C  
BRANCH  18  19
HETATM   19  C   UNL     1      -9.454   3.910  66.934  1.00  0.00    -0.225 C  
BRANCH  19  20
HETATM   20  C   UNL     1      -8.065   3.313  67.163  1.00  0.00    -0.083 C  
HETATM   21  C   UNL     1      -7.949   1.922  66.563  1.00  0.00    -0.076 C  
ENDBRANCH  19  20
ENDBRANCH  18  19
ENDBRANCH  17  18
ENDBRANCH  14  17
ENDBRANCH  13  14
ENDBRANCH   5  12
BRANCH   6  22
HETATM   22  C   UNL     1      -9.289  15.819  65.989  1.00  0.00    -0.384 C  
BRANCH  22  23
HETATM   23  C   UNL     1     -10.350  16.915  66.063  1.00  0.00    -0.335 C  
BRANCH  23  24
HETATM   24  C   UNL     1     -10.695  17.231  67.515  1.00  0.00    -0.278 C  
HETATM   25  C   UNL     1     -10.385  18.661  67.879  1.00  0.00    -0.398 C  
HETATM   26  O   UNL     1      -9.561  18.984  68.721  1.00  0.00    -0.370 OA 
HETATM   27  O   UNL     1     -11.134  19.567  67.213  1.00  0.00    -0.444 OA 
ENDBRANCH  23  24
ENDBRANCH  22  23
ENDBRANCH   6  22
TORSDOF 9
ENDMDL
MODEL      138
REMARK 921   NORMALIZED FREE ENERGY PREDICTED BY IDOCK:   -4.52 KCAL/MOL
REMARK 922        TOTAL FREE ENERGY PREDICTED BY IDOCK:   -8.05 KCAL/MOL
REMARK 923 INTER-LIGAND FREE ENERGY PREDICTED BY IDOCK:   -7.32 KCAL/MOL
REMARK 924 INTRA-LIGAND FREE ENERGY PREDICTED BY IDOCK:   -0.73 KCAL/MOL
REMARK 927      BINDING AFFINITY PREDICTED BY RF-SCORE:    0.00 PKD
ROOT
HETATM    1  C   UNL     1      -9.595  10.828  64.746  1.00  0.00    -0.262 C  
HETATM    2  C   UNL     1     -10.558  11.744  64.012  1.00  0.00    -0.425 C  
HETATM    3  C   UNL     1     -11.121  12.671  65.087  1.00  0.00    -0.294 C  
HETATM    4  O   UNL     1     -12.369  12.178  65.573  1.00  0.00    -0.548 OA 
HETATM    5  C   UNL     1     -10.098  12.684  66.242  1.00  0.00    -0.264 C  
HETATM    6  C   UNL     1      -9.811   8.442  67.315  1.00  0.00    -0.264 C  
HETATM    7  C   UNL     1      -8.991  11.677  65.849  1.00  0.00    -0.111 C  
HETATM    8  H   UNL     1     -12.719  12.755  66.241  1.00  0.00     0.000 HD 
HETATM    9  C   UNL     1      -8.673  10.654  66.921  1.00  0.00    -0.133 C  
HETATM   10  O   UNL     1     -10.281   9.745  65.378  1.00  0.00    -0.246 OA 
HETATM   11  C   UNL     1      -9.619   9.545  66.579  1.00  0.00    -0.201 C  
ENDROOT
BRANCH   5  12
HETATM   12  C   UNL     1      -9.488  14.053  66.456  1.00  0.00    -0.295 C  
HETATM   13  C   UNL     1      -8.650  14.341  67.465  1.00  0.00    -0.203 C  
BRANCH  13  14
HETATM   14  C   UNL     1      -7.926  15.649  67.618  1.00  0.00    -0.153 C  
HETATM   15  O   UNL     1      -6.734  15.577  66.847  1.00  0.00    -0.234 OA 
HETATM   16  H   UNL     1      -6.276  16.403  66.944  1.00  0.00     0.000 HD 
BRANCH  14  17
HETATM   17  C   UNL     1      -8.762  16.831  67.115  1.00  0.00    -0.218 C  
BRANCH  17  18
HETATM   18  C   UNL     1      -7.917  17.910  66.433  1.00  0.00    -0.302 C  
BRANCH  18  19
HETATM   19  C   UNL     1      -8.270  19.310  66.936  1.00  0.00    -0.296 C  
BRANCH  19  20
HETATM   20  C   UNL     1      -9.547  19.820  66.267  1.00  0.00    -0.515 C  
HETATM   21  C   UNL     1     -10.688  19.946  67.263  1.00  0.00    -0.460 C  
ENDBRANCH  19  20
ENDBRANCH  18  19
ENDBRANCH  17  18
ENDBRANCH  14  17
ENDBRANCH  13  14
ENDBRANCH   5  12
BRANCH   6  22
HETATM   22  C   UNL     1     -10.722   7.312  66.928  1.00  0.00    -0.346 C  
BRANCH  22  23
HETATM   23  C   UNL     1     -10.933   6.335  68.084  1.00  0.00    -0.412 C  
BRANCH  23  24
HETATM   24  C   UNL     1     -10.701   7.029  69.422  1.00  0.00    -0.259 C  
HETATM   25  C   UNL     1     -11.089   6.160  70.591  1.00  0.00    -0.317 C  
HETATM   26  O   UNL     1     -11.979   6.439  71.379  1.00  0.00    -0.325 OA 
HETATM   27  O   UNL     1     -10.330   5.049  70.720  1.00  0.00    -0.235 OA 
ENDBRANCH  23  24
ENDBRANCH  22  23
ENDBRANCH   6  22
TORSDOF 9
ENDMDL
MODEL      139
REMARK 921   NORMALIZED FREE ENERGY PREDICTED BY IDOCK:   -4.51 KCAL/MOL
REMARK 922        TOTAL FREE ENERGY PREDICTED BY IDOCK:   -8.03 KCAL/MOL
REMARK 923 INTER-LIGAND FREE ENERGY PREDICTED BY IDOCK:   -6.67 KCAL/MOL
REMARK 924 INTRA-LIGAND FREE ENERGY PREDICTED BY IDOCK:   -1.36 KCAL/MOL
REMARK 927      BINDING AFFINITY PREDICTED BY RF-SCORE:    0.00 PKD
ROOT
HETATM    1  C   UNL     1     -10.921  14.857  67.074  1.00  0.00    -0.327 C  
HETATM    2  C   UNL     1     -10.085  15.104  68.317  1.00  0.00    -0.223 C  
HETATM    3  C   UNL     1      -8.695  15.458  67.795  1.00  0.00    -0.164 C  
HETATM    4  O   UNL     1      -7.856  14.303  67.777  1.00  0.00    -0.135 OA 
HETATM    5  C   UNL     1      -8.880  15.971  66.351  1.00  0.00    -0.363 C  
HETATM    6  C   UNL     1     -10.876  12.600  64.383  1.00  0.00    -0.386 C  
HETATM    7  C   UNL     1     -10.385  15.816  66.028  1.00  0.00    -0.356 C  
HETATM    8  H   UNL     1      -6.991  14.523  67.452  1.00  0.00     0.000 HD 
HETATM    9  C   UNL     1     -10.668  15.086  64.730  1.00  0.00    -0.354 C  
HETATM   10  O   UNL     1     -10.731  13.533  66.569  1.00  0.00    -0.284 OA 
HETATM   11  C   UNL     1     -10.755  13.664  65.189  1.00  0.00    -0.353 C  
ENDROOT
BRANCH   5  12
HETATM   12  C   UNL     1      -8.475  17.422  66.200  1.00  0.00    -0.198 C  
HETATM   13  C   UNL     1      -7.199  17.843  66.238  1.00  0.00    -0.324 C  
BRANCH  13  14
HETATM   14  C   UNL     1      -6.764  19.253  65.953  1.00  0.00    -0.248 C  
HETATM   15  O   UNL     1      -7.860  19.933  65.355  1.00  0.00    -0.371 OA 
HETATM   16  H   UNL     1      -7.584  20.823  65.175  1.00  0.00     0.000 HD 
BRANCH  14  17
HETATM   17  C   UNL     1      -6.364  19.999  67.230  1.00  0.00    -0.224 C  
BRANCH  17  18
HETATM   18  C   UNL     1      -6.695  19.218  68.504  1.00  0.00    -0.305 C  
BRANCH  18  19
HETATM   19  C   UNL     1      -7.796  19.898  69.318  1.00  0.00     0.024 C  
BRANCH  19  20
HETATM   20  C   UNL     1      -9.148  19.233  69.064  1.00  0.00    -0.298 C  
HETATM   21  C   UNL     1     -10.033  20.088  68.172  1.00  0.00    -0.533 C  
ENDBRANCH  19  20
ENDBRANCH  18  19
ENDBRANCH  17  18
ENDBRANCH  14  17
ENDBRANCH  13  14
ENDBRANCH   5  12
BRANCH   6  22
HETATM   22  C   UNL     1     -11.019  11.184  64.862  1.00  0.00    -0.191 C  
BRANCH  22  23
HETATM   23  C   UNL     1      -9.750  10.371  64.612  1.00  0.00    -0.392 C  
BRANCH  23  24
HETATM   24  C   UNL     1      -9.572   9.308  65.692  1.00  0.00    -0.324 C  
HETATM   25  C   UNL     1      -8.511   9.682  66.694  1.00  0.00    -0.123 C  
HETATM   26  O   UNL     1      -7.481   9.047  66.863  1.00  0.00    -0.089 OA 
HETATM   27  O   UNL     1      -8.817  10.774  67.429  1.00  0.00    -0.129 OA 
ENDBRANCH  23  24
ENDBRANCH  22  23
ENDBRANCH   6  22
TORSDOF 9
ENDMDL
MODEL      140
REMARK 921   NORMALIZED FREE ENERGY PREDICTED BY IDOCK:   -4.51 KCAL/MOL
REMARK 922        TOTAL FREE ENERGY PREDICTED BY IDOCK:   -8.03 KCAL/MOL
REMARK 923 INTER-LIGAND FREE ENERGY PREDICTED BY IDOCK:   -6.33 KCAL/MOL
REMARK 924 INTRA-LIGAND FREE ENERGY PREDICTED BY IDOCK:   -1.70 KCAL/MOL
REMARK 927      BINDING AFFINITY PREDICTED BY RF-SCORE:    0.00 PKD
ROOT
HETATM    1  C   UNL     1      -7.602   9.988  66.897  1.00  0.00    -0.096 C  
HETATM    2  C   UNL     1      -7.375   9.924  65.397  1.00  0.00    -0.128 C  
HETATM    3  C   UNL     1      -8.745   9.605  64.803  1.00  0.00    -0.193 C  
HETATM    4  O   UNL     1      -8.882   8.202  64.580  1.00  0.00    -0.391 OA 
HETATM    5  C   UNL     1      -9.795  10.056  65.841  1.00  0.00    -0.330 C  
HETATM    6  C   UNL     1      -8.662   7.771  69.408  1.00  0.00    -0.135 C  
HETATM    7  C   UNL     1      -8.999  10.550  67.072  1.00  0.00    -0.149 C  
HETATM    8  H   UNL     1      -9.734   8.003  64.210  1.00  0.00     0.000 HD 
HETATM    9  C   UNL     1      -9.444   9.936  68.385  1.00  0.00    -0.142 C  
HETATM   10  O   UNL     1      -7.596   8.684  67.484  1.00  0.00    -0.092 OA 
HETATM   11  C   UNL     1      -8.568   8.725  68.471  1.00  0.00    -0.134 C  
ENDROOT
BRANCH   5  12
HETATM   12  C   UNL     1     -10.674  11.174  65.321  1.00  0.00    -0.271 C  
HETATM   13  C   UNL     1     -10.604  11.649  64.066  1.00  0.00    -0.426 C  
BRANCH  13  14
HETATM   14  C   UNL     1     -11.556  12.658  63.489  1.00  0.00    -0.514 C  
HETATM   15  O   UNL     1     -12.579  11.947  62.804  1.00  0.00    -0.599 OA 
HETATM   16  H   UNL     1     -13.180  12.585  62.439  1.00  0.00     0.000 HD 
BRANCH  14  17
HETATM   17  C   UNL     1     -12.205  13.523  64.575  1.00  0.00    -0.445 C  
BRANCH  17  18
HETATM   18  C   UNL     1     -11.361  14.745  64.946  1.00  0.00    -0.411 C  
BRANCH  18  19
HETATM   19  C   UNL     1     -11.017  14.766  66.435  1.00  0.00    -0.331 C  
BRANCH  19  20
HETATM   20  C   UNL     1     -12.101  14.063  67.252  1.00  0.00    -0.405 C  
HETATM   21  C   UNL     1     -11.507  13.276  68.409  1.00  0.00    -0.349 C  
ENDBRANCH  19  20
ENDBRANCH  18  19
ENDBRANCH  17  18
ENDBRANCH  14  17
ENDBRANCH  13  14
ENDBRANCH   5  12
BRANCH   6  22
HETATM   22  C   UNL     1      -7.738   6.592  69.513  1.00  0.00    -0.100 C  
BRANCH  22  23
HETATM   23  C   UNL     1      -8.431   5.293  69.102  1.00  0.00    -0.098 C  
BRANCH  23  24
HETATM   24  C   UNL     1      -8.463   5.159  67.583  1.00  0.00    -0.105 C  
HETATM   25  C   UNL     1      -9.866   5.018  67.051  1.00  0.00    -0.185 C  
HETATM   26  O   UNL     1     -10.273   4.029  66.461  1.00  0.00    -0.087 OA 
HETATM   27  O   UNL     1     -10.635   6.111  67.247  1.00  0.00    -0.214 OA 
ENDBRANCH  23  24
ENDBRANCH  22  23
ENDBRANCH   6  22
TORSDOF 9
ENDMDL
MODEL      141
REMARK 921   NORMALIZED FREE ENERGY PREDICTED BY IDOCK:   -4.49 KCAL/MOL
REMARK 922        TOTAL FREE ENERGY PREDICTED BY IDOCK:   -8.00 KCAL/MOL
REMARK 923 INTER-LIGAND FREE ENERGY PREDICTED BY IDOCK:   -7.30 KCAL/MOL
REMARK 924 INTRA-LIGAND FREE ENERGY PREDICTED BY IDOCK:   -0.69 KCAL/MOL
REMARK 927      BINDING AFFINITY PREDICTED BY RF-SCORE:    0.00 PKD
ROOT
HETATM    1  C   UNL     1      -9.436  11.606  66.615  1.00  0.00    -0.201 C  
HETATM    2  C   UNL     1      -8.027  11.183  66.989  1.00  0.00    -0.145 C  
HETATM    3  C   UNL     1      -8.148  10.603  68.396  1.00  0.00    -0.123 C  
HETATM    4  O   UNL     1      -7.833  11.592  69.376  1.00  0.00    -0.360 OA 
HETATM    5  C   UNL     1      -9.618  10.169  68.572  1.00  0.00    -0.158 C  
HETATM    6  C   UNL     1     -11.815  13.890  67.826  1.00  0.00    -0.415 C  
HETATM    7  C   UNL     1     -10.352  10.596  67.278  1.00  0.00    -0.265 C  
HETATM    8  H   UNL     1      -7.908  11.231  70.252  1.00  0.00     0.000 HD 
HETATM    9  C   UNL     1     -11.616  11.397  67.518  1.00  0.00    -0.298 C  
HETATM   10  O   UNL     1      -9.760  12.888  67.157  1.00  0.00    -0.212 OA 
HETATM   11  C   UNL     1     -11.093  12.800  67.527  1.00  0.00    -0.263 C  
ENDROOT
BRANCH   5  12
HETATM   12  C   UNL     1      -9.757   8.673  68.765  1.00  0.00    -0.171 C  
HETATM   13  C   UNL     1     -10.615   8.115  69.635  1.00  0.00    -0.223 C  
BRANCH  13  14
HETATM   14  C   UNL     1     -10.869   6.638  69.745  1.00  0.00    -0.286 C  
HETATM   15  O   UNL     1      -9.612   5.977  69.681  1.00  0.00    -0.144 OA 
HETATM   16  H   UNL     1      -9.772   5.043  69.751  1.00  0.00     0.000 HD 
BRANCH  14  17
HETATM   17  C   UNL     1     -11.548   6.269  71.068  1.00  0.00    -0.337 C  
BRANCH  17  18
HETATM   18  C   UNL     1     -10.639   5.463  71.999  1.00  0.00    -0.284 C  
BRANCH  18  19
HETATM   19  C   UNL     1     -11.405   4.911  73.203  1.00  0.00    -0.395 C  
BRANCH  19  20
HETATM   20  C   UNL     1     -10.446   4.280  74.213  1.00  0.00    -0.307 C  
HETATM   21  C   UNL     1     -10.418   2.766  74.086  1.00  0.00    -0.227 C  
ENDBRANCH  19  20
ENDBRANCH  18  19
ENDBRANCH  17  18
ENDBRANCH  14  17
ENDBRANCH  13  14
ENDBRANCH   5  12
BRANCH   6  22
HETATM   22  C   UNL     1     -11.290  15.295  67.775  1.00  0.00    -0.331 C  
BRANCH  22  23
HETATM   23  C   UNL     1     -11.646  16.078  69.037  1.00  0.00    -0.350 C  
BRANCH  23  24
HETATM   24  C   UNL     1     -11.535  15.187  70.271  1.00  0.00    -0.315 C  
HETATM   25  C   UNL     1     -12.414  15.662  71.400  1.00  0.00    -0.439 C  
HETATM   26  O   UNL     1     -11.987  16.041  72.479  1.00  0.00    -0.464 OA 
HETATM   27  O   UNL     1     -13.735  15.592  71.127  1.00  0.00    -0.591 OA 
ENDBRANCH  23  24
ENDBRANCH  22  23
ENDBRANCH   6  22
TORSDOF 9
ENDMDL
MODEL      142
REMARK 921   NORMALIZED FREE ENERGY PREDICTED BY IDOCK:   -4.48 KCAL/MOL
REMARK 922        TOTAL FREE ENERGY PREDICTED BY IDOCK:   -7.98 KCAL/MOL
REMARK 923 INTER-LIGAND FREE ENERGY PREDICTED BY IDOCK:   -7.09 KCAL/MOL
REMARK 924 INTRA-LIGAND FREE ENERGY PREDICTED BY IDOCK:   -0.89 KCAL/MOL
REMARK 927      BINDING AFFINITY PREDICTED BY RF-SCORE:    0.00 PKD
ROOT
HETATM    1  C   UNL     1     -11.272  14.793  66.810  1.00  0.00    -0.344 C  
HETATM    2  C   UNL     1     -11.949  14.179  65.598  1.00  0.00    -0.401 C  
HETATM    3  C   UNL     1     -11.072  12.988  65.216  1.00  0.00    -0.286 C  
HETATM    4  O   UNL     1     -10.148  13.353  64.191  1.00  0.00    -0.734 OA 
HETATM    5  C   UNL     1     -10.288  12.589  66.484  1.00  0.00    -0.254 C  
HETATM    6  C   UNL     1      -8.171  16.289  67.509  1.00  0.00    -0.165 C  
HETATM    7  C   UNL     1     -10.662  13.628  67.567  1.00  0.00    -0.266 C  
HETATM    8  H   UNL     1      -9.603  12.612  63.953  1.00  0.00     0.000 HD 
HETATM    9  C   UNL     1      -9.471  14.264  68.254  1.00  0.00    -0.209 C  
HETATM   10  O   UNL     1     -10.197  15.656  66.430  1.00  0.00    -0.266 OA 
HETATM   11  C   UNL     1      -9.214  15.456  67.387  1.00  0.00    -0.197 C  
ENDROOT
BRANCH   5  12
HETATM   12  C   UNL     1     -10.646  11.199  66.967  1.00  0.00    -0.295 C  
HETATM   13  C   UNL     1      -9.735  10.293  67.359  1.00  0.00    -0.189 C  
BRANCH  13  14
HETATM   14  C   UNL     1     -10.071   8.963  67.971  1.00  0.00    -0.195 C  
HETATM   15  O   UNL     1     -11.057   8.347  67.153  1.00  0.00    -0.372 OA 
HETATM   16  H   UNL     1     -11.269   7.506  67.539  1.00  0.00     0.000 HD 
BRANCH  14  17
HETATM   17  C   UNL     1      -8.850   8.039  68.045  1.00  0.00    -0.128 C  
BRANCH  17  18
HETATM   18  C   UNL     1      -8.627   7.244  66.755  1.00  0.00    -0.127 C  
BRANCH  18  19
HETATM   19  C   UNL     1      -8.527   5.743  67.025  1.00  0.00    -0.107 C  
BRANCH  19  20
HETATM   20  C   UNL     1      -9.304   4.950  65.973  1.00  0.00    -0.158 C  
HETATM   21  C   UNL     1      -8.843   3.504  65.910  1.00  0.00    -0.128 C  
ENDBRANCH  19  20
ENDBRANCH  18  19
ENDBRANCH  17  18
ENDBRANCH  14  17
ENDBRANCH  13  14
ENDBRANCH   5  12
BRANCH   6  22
HETATM   22  C   UNL     1      -7.960  17.514  66.666  1.00  0.00    -0.288 C  
BRANCH  22  23
HETATM   23  C   UNL     1      -7.957  18.787  67.511  1.00  0.00    -0.260 C  
BRANCH  23  24
HETATM   24  C   UNL     1      -8.930  19.813  66.939  1.00  0.00    -0.414 C  
HETATM   25  C   UNL     1     -10.270  19.208  66.609  1.00  0.00    -0.411 C  
HETATM   26  O   UNL     1     -10.733  19.154  65.480  1.00  0.00    -0.507 OA 
HETATM   27  O   UNL     1     -10.946  18.758  67.690  1.00  0.00    -0.384 OA 
ENDBRANCH  23  24
ENDBRANCH  22  23
ENDBRANCH   6  22
TORSDOF 9
ENDMDL
MODEL      143
REMARK 921   NORMALIZED FREE ENERGY PREDICTED BY IDOCK:   -4.46 KCAL/MOL
REMARK 922        TOTAL FREE ENERGY PREDICTED BY IDOCK:   -7.96 KCAL/MOL
REMARK 923 INTER-LIGAND FREE ENERGY PREDICTED BY IDOCK:   -6.95 KCAL/MOL
REMARK 924 INTRA-LIGAND FREE ENERGY PREDICTED BY IDOCK:   -1.01 KCAL/MOL
REMARK 927      BINDING AFFINITY PREDICTED BY RF-SCORE:    0.00 PKD
ROOT
HETATM    1  C   UNL     1     -11.066  10.230  68.281  1.00  0.00    -0.254 C  
HETATM    2  C   UNL     1     -10.771  11.494  69.068  1.00  0.00    -0.233 C  
HETATM    3  C   UNL     1      -9.540  12.099  68.398  1.00  0.00    -0.186 C  
HETATM    4  O   UNL     1      -8.350  11.706  69.082  1.00  0.00    -0.369 OA 
HETATM    5  C   UNL     1      -9.501  11.545  66.958  1.00  0.00    -0.193 C  
HETATM    6  C   UNL     1      -9.408   7.208  67.600  1.00  0.00    -0.135 C  
HETATM    7  C   UNL     1     -10.675  10.543  66.849  1.00  0.00    -0.281 C  
HETATM    8  H   UNL     1      -7.584  12.083  68.665  1.00  0.00     0.000 HD 
HETATM    9  C   UNL     1     -10.283   9.184  66.305  1.00  0.00    -0.257 C  
HETATM   10  O   UNL     1     -10.247   9.140  68.712  1.00  0.00    -0.198 OA 
HETATM   11  C   UNL     1      -9.936   8.439  67.557  1.00  0.00    -0.200 C  
ENDROOT
BRANCH   5  12
HETATM   12  C   UNL     1      -9.664  12.633  65.918  1.00  0.00    -0.212 C  
HETATM   13  C   UNL     1     -10.145  13.857  66.195  1.00  0.00    -0.317 C  
BRANCH  13  14
HETATM   14  C   UNL     1     -10.186  14.993  65.213  1.00  0.00    -0.377 C  
HETATM   15  O   UNL     1     -11.547  15.227  64.877  1.00  0.00    -0.352 OA 
HETATM   16  H   UNL     1     -11.573  15.945  64.257  1.00  0.00     0.000 HD 
BRANCH  14  17
HETATM   17  C   UNL     1      -9.599  16.282  65.800  1.00  0.00    -0.266 C  
BRANCH  17  18
HETATM   18  C   UNL     1     -10.479  16.890  66.896  1.00  0.00    -0.271 C  
BRANCH  18  19
HETATM   19  C   UNL     1      -9.646  17.424  68.061  1.00  0.00    -0.276 C  
BRANCH  19  20
HETATM   20  C   UNL     1      -9.665  18.952  68.086  1.00  0.00    -0.396 C  
HETATM   21  C   UNL     1     -10.880  19.508  67.361  1.00  0.00    -0.536 C  
ENDBRANCH  19  20
ENDBRANCH  18  19
ENDBRANCH  17  18
ENDBRANCH  14  17
ENDBRANCH  13  14
ENDBRANCH   5  12
BRANCH   6  22
HETATM   22  C   UNL     1      -9.120   6.453  68.866  1.00  0.00    -0.129 C  
BRANCH  22  23
HETATM   23  C   UNL     1     -10.299   5.575  69.281  1.00  0.00    -0.335 C  
BRANCH  23  24
HETATM   24  C   UNL     1     -10.497   5.623  70.793  1.00  0.00    -0.335 C  
HETATM   25  C   UNL     1     -11.223   6.867  71.236  1.00  0.00    -0.268 C  
HETATM   26  O   UNL     1     -10.733   7.718  71.962  1.00  0.00    -0.213 OA 
HETATM   27  O   UNL     1     -12.496   6.944  70.788  1.00  0.00    -0.356 OA 
ENDBRANCH  23  24
ENDBRANCH  22  23
ENDBRANCH   6  22
TORSDOF 9
ENDMDL
MODEL      144
REMARK 921   NORMALIZED FREE ENERGY PREDICTED BY IDOCK:   -4.45 KCAL/MOL
REMARK 922        TOTAL FREE ENERGY PREDICTED BY IDOCK:   -7.94 KCAL/MOL
REMARK 923 INTER-LIGAND FREE ENERGY PREDICTED BY IDOCK:   -7.28 KCAL/MOL
REMARK 924 INTRA-LIGAND FREE ENERGY PREDICTED BY IDOCK:   -0.65 KCAL/MOL
REMARK 927      BINDING AFFINITY PREDICTED BY RF-SCORE:    0.00 PKD
ROOT
HETATM    1  C   UNL     1     -12.333  13.334  66.014  1.00  0.00    -0.386 C  
HETATM    2  C   UNL     1     -11.712  14.215  64.945  1.00  0.00    -0.395 C  
HETATM    3  C   UNL     1     -10.221  13.887  64.980  1.00  0.00    -0.358 C  
HETATM    4  O   UNL     1      -9.519  14.826  65.793  1.00  0.00    -0.462 OA 
HETATM    5  C   UNL     1     -10.089  12.481  65.602  1.00  0.00    -0.285 C  
HETATM    6  C   UNL     1     -12.045  12.969  69.496  1.00  0.00    -0.289 C  
HETATM    7  C   UNL     1     -11.520  12.053  66.007  1.00  0.00    -0.399 C  
HETATM    8  H   UNL     1      -8.591  14.623  65.815  1.00  0.00     0.000 HD 
HETATM    9  C   UNL     1     -11.642  11.573  67.439  1.00  0.00    -0.307 C  
HETATM   10  O   UNL     1     -12.196  13.912  67.315  1.00  0.00    -0.394 OA 
HETATM   11  C   UNL     1     -11.958  12.843  68.165  1.00  0.00    -0.261 C  
ENDROOT
BRANCH   5  12
HETATM   12  C   UNL     1      -9.513  11.474  64.630  1.00  0.00    -0.120 C  
HETATM   13  C   UNL     1      -8.437  10.715  64.900  1.00  0.00    -0.116 C  
BRANCH  13  14
HETATM   14  C   UNL     1      -7.932   9.614  64.011  1.00  0.00    -0.140 C  
HETATM   15  O   UNL     1      -6.530   9.499  64.218  1.00  0.00    -0.090 OA 
HETATM   16  H   UNL     1      -6.211   8.804  63.656  1.00  0.00     0.000 HD 
BRANCH  14  17
HETATM   17  C   UNL     1      -8.586   8.267  64.336  1.00  0.00     0.065 C  
BRANCH  17  18
HETATM   18  C   UNL     1      -8.170   7.718  65.703  1.00  0.00    -0.135 C  
BRANCH  18  19
HETATM   19  C   UNL     1      -7.260   6.496  65.570  1.00  0.00    -0.073 C  
BRANCH  19  20
HETATM   20  C   UNL     1      -7.405   5.860  64.187  1.00  0.00    -0.064 C  
HETATM   21  C   UNL     1      -7.433   4.343  64.270  1.00  0.00    -0.071 C  
ENDBRANCH  19  20
ENDBRANCH  18  19
ENDBRANCH  17  18
ENDBRANCH  14  17
ENDBRANCH  13  14
ENDBRANCH   5  12
BRANCH   6  22
HETATM   22  C   UNL     1     -12.420  14.239  70.206  1.00  0.00    -0.422 C  
BRANCH  22  23
HETATM   23  C   UNL     1     -13.021  13.960  71.582  1.00  0.00    -0.433 C  
BRANCH  23  24
HETATM   24  C   UNL     1     -13.652  15.224  72.158  1.00  0.00    -0.576 C  
HETATM   25  C   UNL     1     -12.711  15.968  73.071  1.00  0.00    -0.493 C  
HETATM   26  O   UNL     1     -12.918  16.146  74.261  1.00  0.00    -0.646 OA 
HETATM   27  O   UNL     1     -11.622  16.464  72.444  1.00  0.00    -0.435 OA 
ENDBRANCH  23  24
ENDBRANCH  22  23
ENDBRANCH   6  22
TORSDOF 9
ENDMDL
MODEL      145
REMARK 921   NORMALIZED FREE ENERGY PREDICTED BY IDOCK:   -4.41 KCAL/MOL
REMARK 922        TOTAL FREE ENERGY PREDICTED BY IDOCK:   -7.88 KCAL/MOL
REMARK 923 INTER-LIGAND FREE ENERGY PREDICTED BY IDOCK:   -7.71 KCAL/MOL
REMARK 924 INTRA-LIGAND FREE ENERGY PREDICTED BY IDOCK:   -0.17 KCAL/MOL
REMARK 927      BINDING AFFINITY PREDICTED BY RF-SCORE:    0.00 PKD
ROOT
HETATM    1  C   UNL     1     -12.167   7.592  71.225  1.00  0.00    -0.315 C  
HETATM    2  C   UNL     1     -13.653   7.902  71.211  1.00  0.00    -0.225 C  
HETATM    3  C   UNL     1     -13.792   9.213  71.981  1.00  0.00    -0.420 C  
HETATM    4  O   UNL     1     -14.122   8.962  73.346  1.00  0.00    -1.256 OA 
HETATM    5  C   UNL     1     -12.419   9.915  71.913  1.00  0.00    -0.435 C  
HETATM    6  C   UNL     1      -9.728   6.929  73.665  1.00  0.00    -0.266 C  
HETATM    7  C   UNL     1     -11.472   8.940  71.174  1.00  0.00    -0.364 C  
HETATM    8  H   UNL     1     -14.209   9.778  73.825  1.00  0.00     0.000 HD 
HETATM    9  C   UNL     1     -10.169   8.671  71.900  1.00  0.00    -0.404 C  
HETATM   10  O   UNL     1     -11.774   6.962  72.447  1.00  0.00    -0.270 OA 
HETATM   11  C   UNL     1     -10.523   7.483  72.739  1.00  0.00    -0.295 C  
ENDROOT
BRANCH   5  12
HETATM   12  C   UNL     1     -12.481  11.229  71.164  1.00  0.00    -0.479 C  
HETATM   13  C   UNL     1     -12.789  12.400  71.746  1.00  0.00    -0.350 C  
BRANCH  13  14
HETATM   14  C   UNL     1     -12.722  13.733  71.056  1.00  0.00    -0.343 C  
HETATM   15  O   UNL     1     -11.736  14.514  71.718  1.00  0.00    -0.409 OA 
HETATM   16  H   UNL     1     -11.694  15.357  71.281  1.00  0.00     0.000 HD 
BRANCH  14  17
HETATM   17  C   UNL     1     -12.329  13.597  69.581  1.00  0.00    -0.257 C  
BRANCH  17  18
HETATM   18  C   UNL     1     -11.139  12.657  69.367  1.00  0.00    -0.130 C  
BRANCH  18  19
HETATM   19  C   UNL     1     -11.048  12.179  67.918  1.00  0.00    -0.295 C  
BRANCH  19  20
HETATM   20  C   UNL     1     -10.916  10.657  67.856  1.00  0.00    -0.351 C  
HETATM   21  C   UNL     1     -10.431  10.193  66.493  1.00  0.00    -0.236 C  
ENDBRANCH  19  20
ENDBRANCH  18  19
ENDBRANCH  17  18
ENDBRANCH  14  17
ENDBRANCH  13  14
ENDBRANCH   5  12
BRANCH   6  22
HETATM   22  C   UNL     1     -10.076   5.702  74.458  1.00  0.00    -0.296 C  
BRANCH  22  23
HETATM   23  C   UNL     1      -8.976   4.645  74.375  1.00  0.00    -0.111 C  
BRANCH  23  24
HETATM   24  C   UNL     1      -7.913   5.055  73.361  1.00  0.00    -0.104 C  
HETATM   25  C   UNL     1      -6.529   4.629  73.781  1.00  0.00    -0.053 C  
HETATM   26  O   UNL     1      -5.622   5.410  74.022  1.00  0.00    -0.026 OA 
HETATM   27  O   UNL     1      -6.362   3.289  73.829  1.00  0.00    -0.021 OA 
ENDBRANCH  23  24
ENDBRANCH  22  23
ENDBRANCH   6  22
TORSDOF 9
ENDMDL
MODEL      146
REMARK 921   NORMALIZED FREE ENERGY PREDICTED BY IDOCK:   -4.40 KCAL/MOL
REMARK 922        TOTAL FREE ENERGY PREDICTED BY IDOCK:   -7.86 KCAL/MOL
REMARK 923 INTER-LIGAND FREE ENERGY PREDICTED BY IDOCK:   -6.80 KCAL/MOL
REMARK 924 INTRA-LIGAND FREE ENERGY PREDICTED BY IDOCK:   -1.07 KCAL/MOL
REMARK 927      BINDING AFFINITY PREDICTED BY RF-SCORE:    0.00 PKD
ROOT
HETATM    1  C   UNL     1      -9.222  14.816  68.842  1.00  0.00    -0.177 C  
HETATM    2  C   UNL     1      -7.718  14.690  69.011  1.00  0.00    -0.134 C  
HETATM    3  C   UNL     1      -7.153  14.776  67.595  1.00  0.00    -0.184 C  
HETATM    4  O   UNL     1      -6.940  13.471  67.058  1.00  0.00    -0.403 OA 
HETATM    5  C   UNL     1      -8.207  15.509  66.739  1.00  0.00    -0.277 C  
HETATM    6  C   UNL     1     -11.765  12.996  67.241  1.00  0.00    -0.429 C  
HETATM    7  C   UNL     1      -9.420  15.755  67.667  1.00  0.00    -0.218 C  
HETATM    8  H   UNL     1      -6.588  13.525  66.177  1.00  0.00     0.000 HD 
HETATM    9  C   UNL     1     -10.745  15.295  67.092  1.00  0.00    -0.316 C  
HETATM   10  O   UNL     1      -9.816  13.566  68.486  1.00  0.00    -0.232 OA 
HETATM   11  C   UNL     1     -10.821  13.883  67.585  1.00  0.00    -0.254 C  
ENDROOT
BRANCH   5  12
HETATM   12  C   UNL     1      -7.698  16.832  66.207  1.00  0.00    -0.310 C  
HETATM   13  C   UNL     1      -7.187  17.798  66.989  1.00  0.00    -0.209 C  
BRANCH  13  14
HETATM   14  C   UNL     1      -6.551  19.058  66.473  1.00  0.00    -0.193 C  
HETATM   15  O   UNL     1      -6.950  19.221  65.118  1.00  0.00    -0.445 OA 
HETATM   16  H   UNL     1      -6.547  20.017  64.792  1.00  0.00     0.000 HD 
BRANCH  14  17
HETATM   17  C   UNL     1      -6.995  20.292  67.265  1.00  0.00    -0.308 C  
BRANCH  17  18
HETATM   18  C   UNL     1      -7.080  20.033  68.771  1.00  0.00    -0.279 C  
BRANCH  18  19
HETATM   19  C   UNL     1      -5.908  20.665  69.523  1.00  0.00    -0.371 C  
BRANCH  19  20
HETATM   20  C   UNL     1      -5.302  19.674  70.517  1.00  0.00    -0.256 C  
HETATM   21  C   UNL     1      -5.536  18.236  70.084  1.00  0.00    -0.248 C  
ENDBRANCH  19  20
ENDBRANCH  18  19
ENDBRANCH  17  18
ENDBRANCH  14  17
ENDBRANCH  13  14
ENDBRANCH   5  12
BRANCH   6  22
HETATM   22  C   UNL     1     -11.859  11.602  67.790  1.00  0.00    -0.247 C  
BRANCH  22  23
HETATM   23  C   UNL     1     -10.970  10.629  67.017  1.00  0.00    -0.274 C  
BRANCH  23  24
HETATM   24  C   UNL     1     -10.715   9.368  67.837  1.00  0.00    -0.269 C  
HETATM   25  C   UNL     1     -10.163   8.243  66.999  1.00  0.00    -0.310 C  
HETATM   26  O   UNL     1     -10.741   7.183  66.819  1.00  0.00    -0.307 OA 
HETATM   27  O   UNL     1      -8.937   8.495  66.490  1.00  0.00    -0.143 OA 
ENDBRANCH  23  24
ENDBRANCH  22  23
ENDBRANCH   6  22
TORSDOF 9
ENDMDL
MODEL      147
REMARK 921   NORMALIZED FREE ENERGY PREDICTED BY IDOCK:   -4.38 KCAL/MOL
REMARK 922        TOTAL FREE ENERGY PREDICTED BY IDOCK:   -7.84 KCAL/MOL
REMARK 923 INTER-LIGAND FREE ENERGY PREDICTED BY IDOCK:   -6.49 KCAL/MOL
REMARK 924 INTRA-LIGAND FREE ENERGY PREDICTED BY IDOCK:   -1.34 KCAL/MOL
REMARK 927      BINDING AFFINITY PREDICTED BY RF-SCORE:    0.00 PKD
ROOT
HETATM    1  C   UNL     1     -10.571   9.070  68.961  1.00  0.00    -0.190 C  
HETATM    2  C   UNL     1     -10.434  10.443  69.594  1.00  0.00    -0.279 C  
HETATM    3  C   UNL     1      -9.457  11.197  68.697  1.00  0.00    -0.193 C  
HETATM    4  O   UNL     1      -8.130  11.112  69.215  1.00  0.00    -0.344 OA 
HETATM    5  C   UNL     1      -9.504  10.513  67.314  1.00  0.00    -0.179 C  
HETATM    6  C   UNL     1      -8.440   6.365  68.261  1.00  0.00    -0.115 C  
HETATM    7  C   UNL     1     -10.452   9.300  67.466  1.00  0.00    -0.338 C  
HETATM    8  H   UNL     1      -7.521  11.582  68.657  1.00  0.00     0.000 HD 
HETATM    9  C   UNL     1      -9.869   7.991  66.972  1.00  0.00    -0.295 C  
HETATM   10  O   UNL     1      -9.496   8.207  69.340  1.00  0.00    -0.161 OA 
HETATM   11  C   UNL     1      -9.210   7.462  68.208  1.00  0.00    -0.137 C  
ENDROOT
BRANCH   5  12
HETATM   12  C   UNL     1     -10.026  11.435  66.233  1.00  0.00    -0.259 C  
HETATM   13  C   UNL     1     -11.280  11.915  66.211  1.00  0.00    -0.392 C  
BRANCH  13  14
HETATM   14  C   UNL     1     -11.779  12.937  65.229  1.00  0.00    -0.364 C  
HETATM   15  O   UNL     1     -12.836  12.345  64.487  1.00  0.00    -0.680 OA 
HETATM   16  H   UNL     1     -13.152  12.991  63.866  1.00  0.00     0.000 HD 
BRANCH  14  17
HETATM   17  C   UNL     1     -12.316  14.191  65.929  1.00  0.00    -0.486 C  
BRANCH  17  18
HETATM   18  C   UNL     1     -11.983  14.228  67.422  1.00  0.00    -0.426 C  
BRANCH  18  19
HETATM   19  C   UNL     1     -11.058  15.395  67.769  1.00  0.00    -0.320 C  
BRANCH  19  20
HETATM   20  C   UNL     1      -9.600  14.936  67.814  1.00  0.00    -0.208 C  
HETATM   21  C   UNL     1      -8.796  15.517  66.664  1.00  0.00    -0.325 C  
ENDBRANCH  19  20
ENDBRANCH  18  19
ENDBRANCH  17  18
ENDBRANCH  14  17
ENDBRANCH  13  14
ENDBRANCH   5  12
BRANCH   6  22
HETATM   22  C   UNL     1      -7.833   5.816  69.520  1.00  0.00    -0.093 C  
BRANCH  22  23
HETATM   23  C   UNL     1      -8.547   4.548  69.986  1.00  0.00    -0.103 C  
BRANCH  23  24
HETATM   24  C   UNL     1      -9.638   4.152  68.996  1.00  0.00    -0.232 C  
HETATM   25  C   UNL     1      -9.465   2.744  68.487  1.00  0.00    -0.134 C  
HETATM   26  O   UNL     1      -9.256   2.466  67.317  1.00  0.00    -0.157 OA 
HETATM   27  O   UNL     1      -9.603   1.799  69.443  1.00  0.00    -0.084 OA 
ENDBRANCH  23  24
ENDBRANCH  22  23
ENDBRANCH   6  22
TORSDOF 9
ENDMDL
MODEL      148
REMARK 921   NORMALIZED FREE ENERGY PREDICTED BY IDOCK:   -4.37 KCAL/MOL
REMARK 922        TOTAL FREE ENERGY PREDICTED BY IDOCK:   -7.81 KCAL/MOL
REMARK 923 INTER-LIGAND FREE ENERGY PREDICTED BY IDOCK:   -7.80 KCAL/MOL
REMARK 924 INTRA-LIGAND FREE ENERGY PREDICTED BY IDOCK:   -0.01 KCAL/MOL
REMARK 927      BINDING AFFINITY PREDICTED BY RF-SCORE:    0.00 PKD
ROOT
HETATM    1  C   UNL     1      -9.972  12.009  64.462  1.00  0.00    -0.213 C  
HETATM    2  C   UNL     1     -11.032  12.453  63.470  1.00  0.00    -0.506 C  
HETATM    3  C   UNL     1     -11.893  13.456  64.234  1.00  0.00    -0.423 C  
HETATM    4  O   UNL     1     -13.045  12.815  64.781  1.00  0.00    -0.813 OA 
HETATM    5  C   UNL     1     -11.023  14.002  65.385  1.00  0.00    -0.321 C  
HETATM    6  C   UNL     1      -9.918  10.360  67.563  1.00  0.00    -0.215 C  
HETATM    7  C   UNL     1      -9.687  13.225  65.321  1.00  0.00     0.008 C  
HETATM    8  H   UNL     1     -13.581  13.439  65.257  1.00  0.00     0.000 HD 
HETATM    9  C   UNL     1      -9.263  12.610  66.640  1.00  0.00    -0.218 C  
HETATM   10  O   UNL     1     -10.462  10.985  65.330  1.00  0.00    -0.266 OA 
HETATM   11  C   UNL     1      -9.900  11.257  66.567  1.00  0.00    -0.208 C  
ENDROOT
BRANCH   5  12
HETATM   12  C   UNL     1     -10.756  15.486  65.251  1.00  0.00    -0.440 C  
HETATM   13  C   UNL     1     -10.639  16.316  66.301  1.00  0.00    -0.256 C  
BRANCH  13  14
HETATM   14  C   UNL     1     -10.238  17.761  66.198  1.00  0.00    -0.339 C  
HETATM   15  O   UNL     1     -11.066  18.371  65.217  1.00  0.00    -0.417 OA 
HETATM   16  H   UNL     1     -10.812  19.284  65.152  1.00  0.00     0.000 HD 
BRANCH  14  17
HETATM   17  C   UNL     1     -10.424  18.504  67.526  1.00  0.00    -0.453 C  
BRANCH  17  18
HETATM   18  C   UNL     1      -9.506  17.981  68.633  1.00  0.00    -0.317 C  
BRANCH  18  19
HETATM   19  C   UNL     1      -9.872  16.556  69.048  1.00  0.00    -0.266 C  
BRANCH  19  20
HETATM   20  C   UNL     1     -11.350  16.463  69.425  1.00  0.00    -0.213 C  
HETATM   21  C   UNL     1     -11.542  15.779  70.769  1.00  0.00    -0.429 C  
ENDBRANCH  19  20
ENDBRANCH  18  19
ENDBRANCH  17  18
ENDBRANCH  14  17
ENDBRANCH  13  14
ENDBRANCH   5  12
BRANCH   6  22
HETATM   22  C   UNL     1     -10.512   8.985  67.454  1.00  0.00    -0.338 C  
BRANCH  22  23
HETATM   23  C   UNL     1      -9.455   7.896  67.634  1.00  0.00    -0.170 C  
BRANCH  23  24
HETATM   24  C   UNL     1      -9.482   7.352  69.059  1.00  0.00    -0.148 C  
HETATM   25  C   UNL     1     -10.464   6.220  69.220  1.00  0.00    -0.244 C  
HETATM   26  O   UNL     1     -11.442   6.267  69.950  1.00  0.00    -0.422 OA 
HETATM   27  O   UNL     1     -10.145   5.117  68.509  1.00  0.00    -0.171 OA 
ENDBRANCH  23  24
ENDBRANCH  22  23
ENDBRANCH   6  22
TORSDOF 9
ENDMDL
MODEL      149
REMARK 921   NORMALIZED FREE ENERGY PREDICTED BY IDOCK:   -4.36 KCAL/MOL
REMARK 922        TOTAL FREE ENERGY PREDICTED BY IDOCK:   -7.81 KCAL/MOL
REMARK 923 INTER-LIGAND FREE ENERGY PREDICTED BY IDOCK:   -6.82 KCAL/MOL
REMARK 924 INTRA-LIGAND FREE ENERGY PREDICTED BY IDOCK:   -0.99 KCAL/MOL
REMARK 927      BINDING AFFINITY PREDICTED BY RF-SCORE:    0.00 PKD
ROOT
HETATM    1  C   UNL     1     -11.879   6.676  71.149  1.00  0.00    -0.360 C  
HETATM    2  C   UNL     1     -13.284   7.247  71.209  1.00  0.00    -0.352 C  
HETATM    3  C   UNL     1     -13.116   8.653  71.781  1.00  0.00    -0.361 C  
HETATM    4  O   UNL     1     -13.337   8.652  73.191  1.00  0.00    -0.865 OA 
HETATM    5  C   UNL     1     -11.659   9.076  71.498  1.00  0.00    -0.413 C  
HETATM    6  C   UNL     1      -9.343   5.909  73.457  1.00  0.00    -0.134 C  
HETATM    7  C   UNL     1     -10.975   7.854  70.840  1.00  0.00    -0.256 C  
HETATM    8  H   UNL     1     -13.232   9.527  73.547  1.00  0.00     0.000 HD 
HETATM    9  C   UNL     1      -9.667   7.450  71.490  1.00  0.00    -0.170 C  
HETATM   10  O   UNL     1     -11.471   6.154  72.416  1.00  0.00    -0.285 OA 
HETATM   11  C   UNL     1     -10.126   6.470  72.525  1.00  0.00    -0.172 C  
ENDROOT
BRANCH   5  12
HETATM   12  C   UNL     1     -11.576  10.267  70.567  1.00  0.00    -0.424 C  
HETATM   13  C   UNL     1     -12.253  11.410  70.764  1.00  0.00    -0.475 C  
BRANCH  13  14
HETATM   14  C   UNL     1     -12.081  12.651  69.933  1.00  0.00    -0.252 C  
HETATM   15  O   UNL     1     -11.554  13.667  70.776  1.00  0.00    -0.505 OA 
HETATM   16  H   UNL     1     -11.445  14.451  70.251  1.00  0.00     0.000 HD 
BRANCH  14  17
HETATM   17  C   UNL     1     -11.112  12.431  68.767  1.00  0.00    -0.307 C  
BRANCH  17  18
HETATM   18  C   UNL     1      -9.973  13.455  68.739  1.00  0.00    -0.063 C  
BRANCH  18  19
HETATM   19  C   UNL     1      -9.196  13.404  67.423  1.00  0.00    -0.213 C  
BRANCH  19  20
HETATM   20  C   UNL     1      -7.893  14.196  67.532  1.00  0.00    -0.207 C  
HETATM   21  C   UNL     1      -7.997  15.303  68.568  1.00  0.00    -0.141 C  
ENDBRANCH  19  20
ENDBRANCH  18  19
ENDBRANCH  17  18
ENDBRANCH  14  17
ENDBRANCH  13  14
ENDBRANCH   5  12
BRANCH   6  22
HETATM   22  C   UNL     1      -9.809   4.884  74.451  1.00  0.00    -0.200 C  
BRANCH  22  23
HETATM   23  C   UNL     1      -9.310   3.485  74.095  1.00  0.00    -0.108 C  
BRANCH  23  24
HETATM   24  C   UNL     1     -10.189   2.859  73.017  1.00  0.00    -0.227 C  
HETATM   25  C   UNL     1      -9.551   2.918  71.653  1.00  0.00    -0.152 C  
HETATM   26  O   UNL     1     -10.019   3.537  70.710  1.00  0.00    -0.115 OA 
HETATM   27  O   UNL     1      -8.421   2.185  71.548  1.00  0.00    -0.059 OA 
ENDBRANCH  23  24
ENDBRANCH  22  23
ENDBRANCH   6  22
TORSDOF 9
ENDMDL
MODEL      150
REMARK 921   NORMALIZED FREE ENERGY PREDICTED BY IDOCK:   -4.35 KCAL/MOL
REMARK 922        TOTAL FREE ENERGY PREDICTED BY IDOCK:   -7.79 KCAL/MOL
REMARK 923 INTER-LIGAND FREE ENERGY PREDICTED BY IDOCK:   -6.89 KCAL/MOL
REMARK 924 INTRA-LIGAND FREE ENERGY PREDICTED BY IDOCK:   -0.90 KCAL/MOL
REMARK 927      BINDING AFFINITY PREDICTED BY RF-SCORE:    0.00 PKD
ROOT
HETATM    1  C   UNL     1      -9.527  10.828  64.975  1.00  0.00    -0.241 C  
HETATM    2  C   UNL     1     -10.456  11.843  64.332  1.00  0.00    -0.356 C  
HETATM    3  C   UNL     1     -10.973  12.695  65.490  1.00  0.00    -0.279 C  
HETATM    4  O   UNL     1     -12.237  12.212  65.943  1.00  0.00    -0.604 OA 
HETATM    5  C   UNL     1      -9.943  12.564  66.631  1.00  0.00    -0.243 C  
HETATM    6  C   UNL     1      -9.825   8.236  67.327  1.00  0.00    -0.258 C  
HETATM    7  C   UNL     1      -8.881  11.552  66.141  1.00  0.00    -0.167 C  
HETATM    8  H   UNL     1     -12.560  12.742  66.663  1.00  0.00     0.000 HD 
HETATM    9  C   UNL     1      -8.599  10.427  67.116  1.00  0.00    -0.130 C  
HETATM   10  O   UNL     1     -10.253   9.722  65.516  1.00  0.00    -0.256 OA 
HETATM   11  C   UNL     1      -9.592   9.392  66.688  1.00  0.00    -0.192 C  
ENDROOT
BRANCH   5  12
HETATM   12  C   UNL     1      -9.276  13.884  66.958  1.00  0.00    -0.257 C  
HETATM   13  C   UNL     1      -9.796  14.788  67.804  1.00  0.00    -0.214 C  
BRANCH  13  14
HETATM   14  C   UNL     1      -9.089  16.037  68.249  1.00  0.00    -0.191 C  
HETATM   15  O   UNL     1      -8.337  15.718  69.413  1.00  0.00    -0.244 OA 
HETATM   16  H   UNL     1      -7.891  16.508  69.693  1.00  0.00     0.000 HD 
BRANCH  14  17
HETATM   17  C   UNL     1      -8.130  16.567  67.177  1.00  0.00    -0.213 C  
BRANCH  17  18
HETATM   18  C   UNL     1      -8.574  17.910  66.594  1.00  0.00    -0.283 C  
BRANCH  18  19
HETATM   19  C   UNL     1      -8.661  18.995  67.668  1.00  0.00    -0.317 C  
BRANCH  19  20
HETATM   20  C   UNL     1      -9.962  19.786  67.536  1.00  0.00    -0.540 C  
HETATM   21  C   UNL     1     -10.602  19.585  66.173  1.00  0.00    -0.585 C  
ENDBRANCH  19  20
ENDBRANCH  18  19
ENDBRANCH  17  18
ENDBRANCH  14  17
ENDBRANCH  13  14
ENDBRANCH   5  12
BRANCH   6  22
HETATM   22  C   UNL     1     -10.784   7.183  66.852  1.00  0.00    -0.363 C  
BRANCH  22  23
HETATM   23  C   UNL     1     -10.596   5.867  67.605  1.00  0.00    -0.335 C  
BRANCH  23  24
HETATM   24  C   UNL     1     -10.335   4.723  66.631  1.00  0.00    -0.258 C  
HETATM   25  C   UNL     1      -8.933   4.752  66.078  1.00  0.00    -0.126 C  
HETATM   26  O   UNL     1      -8.672   4.909  64.895  1.00  0.00    -0.143 OA 
HETATM   27  O   UNL     1      -7.976   4.547  67.009  1.00  0.00    -0.100 OA 
ENDBRANCH  23  24
ENDBRANCH  22  23
ENDBRANCH   6  22
TORSDOF 9
ENDMDL
MODEL      151
REMARK 921   NORMALIZED FREE ENERGY PREDICTED BY IDOCK:   -4.32 KCAL/MOL
REMARK 922        TOTAL FREE ENERGY PREDICTED BY IDOCK:   -7.74 KCAL/MOL
REMARK 923 INTER-LIGAND FREE ENERGY PREDICTED BY IDOCK:   -7.80 KCAL/MOL
REMARK 924 INTRA-LIGAND FREE ENERGY PREDICTED BY IDOCK:    0.06 KCAL/MOL
REMARK 927      BINDING AFFINITY PREDICTED BY RF-SCORE:    0.00 PKD
ROOT
HETATM    1  C   UNL     1     -11.589  11.287  67.242  1.00  0.00    -0.086 C  
HETATM    2  C   UNL     1     -11.401  12.381  68.279  1.00  0.00    -0.332 C  
HETATM    3  C   UNL     1     -10.075  13.047  67.915  1.00  0.00    -0.235 C  
HETATM    4  O   UNL     1      -9.008  12.494  68.684  1.00  0.00    -0.367 OA 
HETATM    5  C   UNL     1      -9.826  12.753  66.421  1.00  0.00    -0.269 C  
HETATM    6  C   UNL     1      -9.883   8.371  66.280  1.00  0.00    -0.257 C  
HETATM    7  C   UNL     1     -10.982  11.833  65.963  1.00  0.00    -0.355 C  
HETATM    8  H   UNL     1      -8.183  12.908  68.458  1.00  0.00     0.000 HD 
HETATM    9  C   UNL     1     -10.529  10.576  65.247  1.00  0.00    -0.232 C  
HETATM   10  O   UNL     1     -10.857  10.108  67.585  1.00  0.00    -0.265 OA 
HETATM   11  C   UNL     1     -10.384   9.610  66.382  1.00  0.00    -0.176 C  
ENDROOT
BRANCH   5  12
HETATM   12  C   UNL     1      -9.817  14.013  65.581  1.00  0.00    -0.255 C  
HETATM   13  C   UNL     1     -10.518  15.116  65.892  1.00  0.00    -0.350 C  
BRANCH  13  14
HETATM   14  C   UNL     1     -10.418  16.421  65.153  1.00  0.00    -0.192 C  
HETATM   15  O   UNL     1     -11.553  16.526  64.304  1.00  0.00    -1.083 OA 
HETATM   16  H   UNL     1     -11.490  17.351  63.837  1.00  0.00     0.000 HD 
BRANCH  14  17
HETATM   17  C   UNL     1     -10.407  17.622  66.106  1.00  0.00    -0.334 C  
BRANCH  17  18
HETATM   18  C   UNL     1     -10.618  17.222  67.568  1.00  0.00    -0.329 C  
BRANCH  18  19
HETATM   19  C   UNL     1     -10.187  18.331  68.528  1.00  0.00    -0.402 C  
BRANCH  19  20
HETATM   20  C   UNL     1     -10.407  19.708  67.900  1.00  0.00    -0.583 C  
HETATM   21  C   UNL     1      -9.209  20.142  67.072  1.00  0.00    -0.503 C  
ENDBRANCH  19  20
ENDBRANCH  18  19
ENDBRANCH  17  18
ENDBRANCH  14  17
ENDBRANCH  13  14
ENDBRANCH   5  12
BRANCH   6  22
HETATM   22  C   UNL     1      -9.798   7.395  67.417  1.00  0.00    -0.219 C  
BRANCH  22  23
HETATM   23  C   UNL     1     -10.872   6.313  67.315  1.00  0.00    -0.457 C  
BRANCH  23  24
HETATM   24  C   UNL     1     -10.264   4.930  67.531  1.00  0.00    -0.152 C  
HETATM   25  C   UNL     1      -9.510   4.442  66.321  1.00  0.00    -0.174 C  
HETATM   26  O   UNL     1      -9.823   3.451  65.679  1.00  0.00    -0.075 OA 
HETATM   27  O   UNL     1      -8.418   5.181  66.024  1.00  0.00    -0.114 OA 
ENDBRANCH  23  24
ENDBRANCH  22  23
ENDBRANCH   6  22
TORSDOF 9
ENDMDL
MODEL      152
REMARK 921   NORMALIZED FREE ENERGY PREDICTED BY IDOCK:   -4.30 KCAL/MOL
REMARK 922        TOTAL FREE ENERGY PREDICTED BY IDOCK:   -7.72 KCAL/MOL
REMARK 923 INTER-LIGAND FREE ENERGY PREDICTED BY IDOCK:   -6.71 KCAL/MOL
REMARK 924 INTRA-LIGAND FREE ENERGY PREDICTED BY IDOCK:   -1.00 KCAL/MOL
REMARK 927      BINDING AFFINITY PREDICTED BY RF-SCORE:    0.00 PKD
ROOT
HETATM    1  C   UNL     1      -9.162  11.360  67.930  1.00  0.00    -0.164 C  
HETATM    2  C   UNL     1      -8.345  10.533  68.906  1.00  0.00    -0.147 C  
HETATM    3  C   UNL     1      -9.319   9.494  69.457  1.00  0.00    -0.190 C  
HETATM    4  O   UNL     1      -9.874   9.933  70.696  1.00  0.00    -0.353 OA 
HETATM    5  C   UNL     1     -10.452   9.353  68.418  1.00  0.00    -0.256 C  
HETATM    6  C   UNL     1     -11.980  13.450  68.102  1.00  0.00    -0.356 C  
HETATM    7  C   UNL     1     -10.156  10.394  67.313  1.00  0.00    -0.244 C  
HETATM    8  H   UNL     1     -10.480   9.287  71.039  1.00  0.00     0.000 HD 
HETATM    9  C   UNL     1     -11.329  11.293  66.977  1.00  0.00    -0.262 C  
HETATM   10  O   UNL     1      -9.919  12.369  68.603  1.00  0.00    -0.196 OA 
HETATM   11  C   UNL     1     -11.125  12.434  67.923  1.00  0.00    -0.239 C  
ENDROOT
BRANCH   5  12
HETATM   12  C   UNL     1     -10.505   7.967  67.810  1.00  0.00    -0.280 C  
HETATM   13  C   UNL     1      -9.647   7.537  66.869  1.00  0.00    -0.242 C  
BRANCH  13  14
HETATM   14  C   UNL     1      -9.593   6.127  66.352  1.00  0.00    -0.127 C  
HETATM   15  O   UNL     1      -9.230   6.183  64.979  1.00  0.00    -0.334 OA 
HETATM   16  H   UNL     1      -9.196   5.292  64.653  1.00  0.00     0.000 HD 
BRANCH  14  17
HETATM   17  C   UNL     1      -8.555   5.282  67.098  1.00  0.00    -0.105 C  
BRANCH  17  18
HETATM   18  C   UNL     1      -9.043   4.819  68.474  1.00  0.00    -0.150 C  
BRANCH  18  19
HETATM   19  C   UNL     1      -8.000   5.078  69.562  1.00  0.00    -0.075 C  
BRANCH  19  20
HETATM   20  C   UNL     1      -8.608   4.888  70.952  1.00  0.00    -0.128 C  
HETATM   21  C   UNL     1     -10.127   4.880  70.901  1.00  0.00    -0.292 C  
ENDBRANCH  19  20
ENDBRANCH  18  19
ENDBRANCH  17  18
ENDBRANCH  14  17
ENDBRANCH  13  14
ENDBRANCH   5  12
BRANCH   6  22
HETATM   22  C   UNL     1     -11.733  14.617  69.014  1.00  0.00    -0.339 C  
BRANCH  22  23
HETATM   23  C   UNL     1     -12.335  14.390  70.399  1.00  0.00    -0.406 C  
BRANCH  23  24
HETATM   24  C   UNL     1     -13.029  15.653  70.898  1.00  0.00    -0.471 C  
HETATM   25  C   UNL     1     -13.001  15.766  72.400  1.00  0.00    -0.465 C  
HETATM   26  O   UNL     1     -14.002  15.764  73.101  1.00  0.00    -0.445 OA 
HETATM   27  O   UNL     1     -11.760  15.912  72.913  1.00  0.00    -0.446 OA 
ENDBRANCH  23  24
ENDBRANCH  22  23
ENDBRANCH   6  22
TORSDOF 9
ENDMDL
MODEL      153
REMARK 921   NORMALIZED FREE ENERGY PREDICTED BY IDOCK:   -4.29 KCAL/MOL
REMARK 922        TOTAL FREE ENERGY PREDICTED BY IDOCK:   -7.70 KCAL/MOL
REMARK 923 INTER-LIGAND FREE ENERGY PREDICTED BY IDOCK:   -6.04 KCAL/MOL
REMARK 924 INTRA-LIGAND FREE ENERGY PREDICTED BY IDOCK:   -1.66 KCAL/MOL
REMARK 927      BINDING AFFINITY PREDICTED BY RF-SCORE:    0.00 PKD
ROOT
HETATM    1  C   UNL     1     -11.301   6.036  70.596  1.00  0.00    -0.231 C  
HETATM    2  C   UNL     1     -10.557   5.775  69.299  1.00  0.00    -0.376 C  
HETATM    3  C   UNL     1      -9.195   6.441  69.483  1.00  0.00    -0.144 C  
HETATM    4  O   UNL     1      -9.195   7.751  68.916  1.00  0.00    -0.141 OA 
HETATM    5  C   UNL     1      -8.955   6.548  71.003  1.00  0.00    -0.146 C  
HETATM    6  C   UNL     1     -12.426   8.857  72.362  1.00  0.00    -0.405 C  
HETATM    7  C   UNL     1     -10.241   6.019  71.681  1.00  0.00    -0.245 C  
HETATM    8  H   UNL     1      -8.348   8.165  69.030  1.00  0.00     0.000 HD 
HETATM    9  C   UNL     1     -10.819   6.951  72.727  1.00  0.00    -0.305 C  
HETATM   10  O   UNL     1     -11.894   7.337  70.608  1.00  0.00    -0.303 OA 
HETATM   11  C   UNL     1     -11.753   7.789  71.910  1.00  0.00    -0.292 C  
ENDROOT
BRANCH   5  12
HETATM   12  C   UNL     1      -7.766   5.727  71.457  1.00  0.00    -0.107 C  
HETATM   13  C   UNL     1      -7.669   5.177  72.679  1.00  0.00    -0.098 C  
BRANCH  13  14
HETATM   14  C   UNL     1      -6.568   4.247  73.104  1.00  0.00    -0.047 C  
HETATM   15  O   UNL     1      -5.974   4.786  74.278  1.00  0.00    -0.031 OA 
HETATM   16  H   UNL     1      -5.279   4.198  74.547  1.00  0.00     0.000 HD 
BRANCH  14  17
HETATM   17  C   UNL     1      -7.093   2.843  73.423  1.00  0.00    -0.040 C  
BRANCH  17  18
HETATM   18  C   UNL     1      -7.403   2.025  72.167  1.00  0.00    -0.039 C  
BRANCH  18  19
HETATM   19  C   UNL     1      -8.828   1.471  72.187  1.00  0.00    -0.090 C  
BRANCH  19  20
HETATM   20  C   UNL     1      -9.767   2.357  71.368  1.00  0.00    -0.217 C  
HETATM   21  C   UNL     1      -9.331   2.439  69.915  1.00  0.00    -0.174 C  
ENDBRANCH  19  20
ENDBRANCH  18  19
ENDBRANCH  17  18
ENDBRANCH  14  17
ENDBRANCH  13  14
ENDBRANCH   5  12
BRANCH   6  22
HETATM   22  C   UNL     1     -13.403   9.652  71.545  1.00  0.00    -0.468 C  
BRANCH  22  23
HETATM   23  C   UNL     1     -12.844  11.025  71.174  1.00  0.00    -0.491 C  
BRANCH  23  24
HETATM   24  C   UNL     1     -11.641  10.883  70.247  1.00  0.00    -0.426 C  
HETATM   25  C   UNL     1     -11.792  11.693  68.986  1.00  0.00    -0.328 C  
HETATM   26  O   UNL     1     -11.846  11.205  67.867  1.00  0.00    -0.601 OA 
HETATM   27  O   UNL     1     -11.823  13.027  69.195  1.00  0.00    -0.297 OA 
ENDBRANCH  23  24
ENDBRANCH  22  23
ENDBRANCH   6  22
TORSDOF 9
ENDMDL
MODEL      154
REMARK 921   NORMALIZED FREE ENERGY PREDICTED BY IDOCK:   -4.28 KCAL/MOL
REMARK 922        TOTAL FREE ENERGY PREDICTED BY IDOCK:   -7.69 KCAL/MOL
REMARK 923 INTER-LIGAND FREE ENERGY PREDICTED BY IDOCK:   -6.30 KCAL/MOL
REMARK 924 INTRA-LIGAND FREE ENERGY PREDICTED BY IDOCK:   -1.39 KCAL/MOL
REMARK 927      BINDING AFFINITY PREDICTED BY RF-SCORE:    0.00 PKD
ROOT
HETATM    1  C   UNL     1      -8.415  15.288  66.983  1.00  0.00    -0.228 C  
HETATM    2  C   UNL     1      -7.115  14.595  67.350  1.00  0.00    -0.157 C  
HETATM    3  C   UNL     1      -7.473  13.670  68.510  1.00  0.00    -0.119 C  
HETATM    4  O   UNL     1      -7.188  14.297  69.760  1.00  0.00    -0.351 OA 
HETATM    5  C   UNL     1      -8.989  13.402  68.413  1.00  0.00    -0.136 C  
HETATM    6  C   UNL     1     -10.688  17.441  68.576  1.00  0.00    -0.279 C  
HETATM    7  C   UNL     1      -9.505  14.264  67.236  1.00  0.00    -0.220 C  
HETATM    8  H   UNL     1      -7.410  13.721  70.482  1.00  0.00     0.000 HD 
HETATM    9  C   UNL     1     -10.702  15.128  67.578  1.00  0.00    -0.284 C  
HETATM   10  O   UNL     1      -8.676  16.401  67.842  1.00  0.00    -0.177 OA 
HETATM   11  C   UNL     1     -10.047  16.391  68.043  1.00  0.00    -0.248 C  
ENDROOT
BRANCH   5  12
HETATM   12  C   UNL     1      -9.301  11.944  68.150  1.00  0.00    -0.191 C  
HETATM   13  C   UNL     1      -8.469  10.939  68.471  1.00  0.00    -0.147 C  
BRANCH  13  14
HETATM   14  C   UNL     1      -8.814   9.481  68.347  1.00  0.00    -0.124 C  
HETATM   15  O   UNL     1      -8.727   8.904  69.643  1.00  0.00    -0.132 OA 
HETATM   16  H   UNL     1      -8.945   7.983  69.564  1.00  0.00     0.000 HD 
BRANCH  14  17
HETATM   17  C   UNL     1     -10.234   9.270  67.811  1.00  0.00    -0.271 C  
BRANCH  17  18
HETATM   18  C   UNL     1     -10.256   8.757  66.369  1.00  0.00    -0.256 C  
BRANCH  18  19
HETATM   19  C   UNL     1     -10.132   9.898  65.359  1.00  0.00    -0.270 C  
BRANCH  19  20
HETATM   20  C   UNL     1      -8.938   9.675  64.431  1.00  0.00    -0.276 C  
HETATM   21  C   UNL     1      -8.171   8.416  64.801  1.00  0.00    -0.162 C  
ENDBRANCH  19  20
ENDBRANCH  18  19
ENDBRANCH  17  18
ENDBRANCH  14  17
ENDBRANCH  13  14
ENDBRANCH   5  12
BRANCH   6  22
HETATM   22  C   UNL     1     -10.023  18.723  68.985  1.00  0.00    -0.348 C  
BRANCH  22  23
HETATM   23  C   UNL     1     -10.566  19.917  68.202  1.00  0.00    -0.357 C  
BRANCH  23  24
HETATM   24  C   UNL     1      -9.496  20.482  67.272  1.00  0.00    -0.559 C  
HETATM   25  C   UNL     1      -9.306  19.636  66.040  1.00  0.00    -0.271 C  
HETATM   26  O   UNL     1      -8.266  19.058  65.766  1.00  0.00    -0.449 OA 
HETATM   27  O   UNL     1     -10.387  19.604  65.229  1.00  0.00    -0.286 OA 
ENDBRANCH  23  24
ENDBRANCH  22  23
ENDBRANCH   6  22
TORSDOF 9
ENDMDL
MODEL      155
REMARK 921   NORMALIZED FREE ENERGY PREDICTED BY IDOCK:   -4.26 KCAL/MOL
REMARK 922        TOTAL FREE ENERGY PREDICTED BY IDOCK:   -7.65 KCAL/MOL
REMARK 923 INTER-LIGAND FREE ENERGY PREDICTED BY IDOCK:   -6.49 KCAL/MOL
REMARK 924 INTRA-LIGAND FREE ENERGY PREDICTED BY IDOCK:   -1.16 KCAL/MOL
REMARK 927      BINDING AFFINITY PREDICTED BY RF-SCORE:    0.00 PKD
ROOT
HETATM    1  C   UNL     1     -10.210   5.486  66.465  1.00  0.00    -0.228 C  
HETATM    2  C   UNL     1      -9.898   4.225  67.253  1.00  0.00    -0.193 C  
HETATM    3  C   UNL     1      -9.539   4.713  68.654  1.00  0.00    -0.162 C  
HETATM    4  O   UNL     1      -8.124   4.839  68.795  1.00  0.00    -0.082 OA 
HETATM    5  C   UNL     1     -10.189   6.103  68.821  1.00  0.00    -0.226 C  
HETATM    6  C   UNL     1      -8.465   8.375  65.490  1.00  0.00    -0.184 C  
HETATM    7  C   UNL     1     -10.844   6.439  67.461  1.00  0.00    -0.438 C  
HETATM    8  H   UNL     1      -7.900   5.142  69.667  1.00  0.00     0.000 HD 
HETATM    9  C   UNL     1     -10.466   7.798  66.909  1.00  0.00    -0.388 C  
HETATM   10  O   UNL     1      -9.018   6.112  65.985  1.00  0.00    -0.155 OA 
HETATM   11  C   UNL     1      -9.253   7.474  66.094  1.00  0.00    -0.105 C  
ENDROOT
BRANCH   5  12
HETATM   12  C   UNL     1     -11.241   6.119  69.910  1.00  0.00    -0.484 C  
HETATM   13  C   UNL     1     -11.321   7.076  70.849  1.00  0.00    -0.334 C  
BRANCH  13  14
HETATM   14  C   UNL     1     -12.435   7.189  71.852  1.00  0.00    -0.306 C  
HETATM   15  O   UNL     1     -11.858   7.546  73.101  1.00  0.00    -0.577 OA 
HETATM   16  H   UNL     1     -12.562   7.617  73.734  1.00  0.00     0.000 HD 
BRANCH  14  17
HETATM   17  C   UNL     1     -13.455   8.263  71.459  1.00  0.00    -0.320 C  
BRANCH  17  18
HETATM   18  C   UNL     1     -13.523   9.414  72.466  1.00  0.00    -0.437 C  
BRANCH  18  19
HETATM   19  C   UNL     1     -13.204  10.759  71.812  1.00  0.00    -0.523 C  
BRANCH  19  20
HETATM   20  C   UNL     1     -12.060  10.616  70.808  1.00  0.00    -0.474 C  
HETATM   21  C   UNL     1     -11.914  11.859  69.946  1.00  0.00    -0.398 C  
ENDBRANCH  19  20
ENDBRANCH  18  19
ENDBRANCH  17  18
ENDBRANCH  14  17
ENDBRANCH  13  14
ENDBRANCH   5  12
BRANCH   6  22
HETATM   22  C   UNL     1      -7.285   8.029  64.630  1.00  0.00    -0.079 C  
BRANCH  22  23
HETATM   23  C   UNL     1      -7.662   7.967  63.151  1.00  0.00    -0.139 C  
BRANCH  23  24
HETATM   24  C   UNL     1      -6.948   6.808  62.462  1.00  0.00    -0.048 C  
HETATM   25  C   UNL     1      -7.464   5.468  62.917  1.00  0.00    -0.053 C  
HETATM   26  O   UNL     1      -6.783   4.640  63.503  1.00  0.00    -0.036 OA 
HETATM   27  O   UNL     1      -8.752   5.237  62.581  1.00  0.00    -0.121 OA 
ENDBRANCH  23  24
ENDBRANCH  22  23
ENDBRANCH   6  22
TORSDOF 9
ENDMDL
MODEL      156
REMARK 921   NORMALIZED FREE ENERGY PREDICTED BY IDOCK:   -4.24 KCAL/MOL
REMARK 922        TOTAL FREE ENERGY PREDICTED BY IDOCK:   -7.62 KCAL/MOL
REMARK 923 INTER-LIGAND FREE ENERGY PREDICTED BY IDOCK:   -6.40 KCAL/MOL
REMARK 924 INTRA-LIGAND FREE ENERGY PREDICTED BY IDOCK:   -1.21 KCAL/MOL
REMARK 927      BINDING AFFINITY PREDICTED BY RF-SCORE:    0.00 PKD
ROOT
HETATM    1  C   UNL     1      -9.499  10.501  65.675  1.00  0.00    -0.210 C  
HETATM    2  C   UNL     1      -7.986  10.399  65.600  1.00  0.00    -0.153 C  
HETATM    3  C   UNL     1      -7.508  10.538  67.043  1.00  0.00    -0.100 C  
HETATM    4  O   UNL     1      -7.144  11.889  67.325  1.00  0.00    -0.121 OA 
HETATM    5  C   UNL     1      -8.695  10.137  67.944  1.00  0.00    -0.122 C  
HETATM    6  C   UNL     1     -11.841  12.917  66.681  1.00  0.00    -0.461 C  
HETATM    7  C   UNL     1      -9.883   9.858  66.994  1.00  0.00    -0.241 C  
HETATM    8  H   UNL     1      -6.846  11.975  68.223  1.00  0.00     0.000 HD 
HETATM    9  C   UNL     1     -11.158  10.590  67.363  1.00  0.00    -0.322 C  
HETATM   10  O   UNL     1      -9.931  11.862  65.728  1.00  0.00    -0.225 OA 
HETATM   11  C   UNL     1     -11.013  11.867  66.594  1.00  0.00    -0.291 C  
ENDROOT
BRANCH   5  12
HETATM   12  C   UNL     1      -8.401   8.900  68.766  1.00  0.00    -0.123 C  
HETATM   13  C   UNL     1      -7.965   7.745  68.237  1.00  0.00    -0.122 C  
BRANCH  13  14
HETATM   14  C   UNL     1      -7.535   6.552  69.044  1.00  0.00    -0.095 C  
HETATM   15  O   UNL     1      -6.411   6.938  69.823  1.00  0.00    -0.036 OA 
HETATM   16  H   UNL     1      -6.139   6.184  70.332  1.00  0.00     0.000 HD 
BRANCH  14  17
HETATM   17  C   UNL     1      -8.642   6.068  69.988  1.00  0.00    -0.131 C  
BRANCH  17  18
HETATM   18  C   UNL     1      -9.819   5.430  69.247  1.00  0.00    -0.249 C  
BRANCH  18  19
HETATM   19  C   UNL     1     -11.148   6.089  69.619  1.00  0.00    -0.474 C  
BRANCH  19  20
HETATM   20  C   UNL     1     -11.037   6.813  70.961  1.00  0.00    -0.317 C  
HETATM   21  C   UNL     1     -12.220   6.503  71.862  1.00  0.00    -0.373 C  
ENDBRANCH  19  20
ENDBRANCH  18  19
ENDBRANCH  17  18
ENDBRANCH  14  17
ENDBRANCH  13  14
ENDBRANCH   5  12
BRANCH   6  22
HETATM   22  C   UNL     1     -11.714  14.168  65.861  1.00  0.00    -0.369 C  
BRANCH  22  23
HETATM   23  C   UNL     1     -11.029  15.289  66.641  1.00  0.00    -0.297 C  
BRANCH  23  24
HETATM   24  C   UNL     1     -10.204  16.167  65.705  1.00  0.00    -0.397 C  
HETATM   25  C   UNL     1     -10.118  17.593  66.187  1.00  0.00    -0.301 C  
HETATM   26  O   UNL     1     -10.568  18.547  65.572  1.00  0.00    -0.621 OA 
HETATM   27  O   UNL     1      -9.454  17.734  67.356  1.00  0.00    -0.249 OA 
ENDBRANCH  23  24
ENDBRANCH  22  23
ENDBRANCH   6  22
TORSDOF 9
ENDMDL
MODEL      157
REMARK 921   NORMALIZED FREE ENERGY PREDICTED BY IDOCK:   -4.24 KCAL/MOL
REMARK 922        TOTAL FREE ENERGY PREDICTED BY IDOCK:   -7.61 KCAL/MOL
REMARK 923 INTER-LIGAND FREE ENERGY PREDICTED BY IDOCK:   -6.08 KCAL/MOL
REMARK 924 INTRA-LIGAND FREE ENERGY PREDICTED BY IDOCK:   -1.53 KCAL/MOL
REMARK 927      BINDING AFFINITY PREDICTED BY RF-SCORE:    0.00 PKD
ROOT
HETATM    1  C   UNL     1      -9.061   7.769  67.332  1.00  0.00    -0.126 C  
HETATM    2  C   UNL     1     -10.482   7.975  66.836  1.00  0.00    -0.387 C  
HETATM    3  C   UNL     1     -11.234   6.714  67.257  1.00  0.00    -0.228 C  
HETATM    4  O   UNL     1     -11.273   5.771  66.186  1.00  0.00    -0.735 OA 
HETATM    5  C   UNL     1     -10.452   6.104  68.439  1.00  0.00    -0.280 C  
HETATM    6  C   UNL     1      -6.461   5.485  66.732  1.00  0.00    -0.047 C  
HETATM    7  C   UNL     1      -9.193   6.985  68.623  1.00  0.00    -0.131 C  
HETATM    8  H   UNL     1     -11.742   4.987  66.448  1.00  0.00     0.000 HD 
HETATM    9  C   UNL     1      -7.893   6.206  68.674  1.00  0.00    -0.101 C  
HETATM   10  O   UNL     1      -8.301   6.965  66.427  1.00  0.00    -0.114 OA 
HETATM   11  C   UNL     1      -7.497   6.173  67.231  1.00  0.00    -0.081 C  
ENDROOT
BRANCH   5  12
HETATM   12  C   UNL     1     -11.259   6.097  69.720  1.00  0.00    -0.494 C  
HETATM   13  C   UNL     1     -11.155   7.045  70.667  1.00  0.00    -0.307 C  
BRANCH  13  14
HETATM   14  C   UNL     1     -12.041   7.134  71.877  1.00  0.00    -0.321 C  
HETATM   15  O   UNL     1     -11.204   7.280  73.017  1.00  0.00    -0.450 OA 
HETATM   16  H   UNL     1     -11.764   7.336  73.782  1.00  0.00     0.000 HD 
BRANCH  14  17
HETATM   17  C   UNL     1     -12.988   8.337  71.809  1.00  0.00    -0.367 C  
BRANCH  17  18
HETATM   18  C   UNL     1     -12.247   9.670  71.671  1.00  0.00    -0.484 C  
BRANCH  18  19
HETATM   19  C   UNL     1     -12.745  10.475  70.470  1.00  0.00    -0.385 C  
BRANCH  19  20
HETATM   20  C   UNL     1     -11.612  11.305  69.867  1.00  0.00    -0.413 C  
HETATM   21  C   UNL     1     -10.398  10.449  69.551  1.00  0.00    -0.264 C  
ENDBRANCH  19  20
ENDBRANCH  18  19
ENDBRANCH  17  18
ENDBRANCH  14  17
ENDBRANCH  13  14
ENDBRANCH   5  12
BRANCH   6  22
HETATM   22  C   UNL     1      -6.043   5.508  65.290  1.00  0.00    -0.026 C  
BRANCH  22  23
HETATM   23  C   UNL     1      -5.200   6.740  64.965  1.00  0.00    -0.026 C  
BRANCH  23  24
HETATM   24  C   UNL     1      -5.673   7.389  63.668  1.00  0.00    -0.041 C  
HETATM   25  C   UNL     1      -6.597   8.554  63.915  1.00  0.00    -0.076 C  
HETATM   26  O   UNL     1      -7.763   8.586  63.554  1.00  0.00    -0.127 OA 
HETATM   27  O   UNL     1      -6.005   9.594  64.544  1.00  0.00    -0.076 OA 
ENDBRANCH  23  24
ENDBRANCH  22  23
ENDBRANCH   6  22
TORSDOF 9
ENDMDL
MODEL      158
REMARK 921   NORMALIZED FREE ENERGY PREDICTED BY IDOCK:   -4.23 KCAL/MOL
REMARK 922        TOTAL FREE ENERGY PREDICTED BY IDOCK:   -7.60 KCAL/MOL
REMARK 923 INTER-LIGAND FREE ENERGY PREDICTED BY IDOCK:   -5.77 KCAL/MOL
REMARK 924 INTRA-LIGAND FREE ENERGY PREDICTED BY IDOCK:   -1.83 KCAL/MOL
REMARK 927      BINDING AFFINITY PREDICTED BY RF-SCORE:    0.00 PKD
ROOT
HETATM    1  C   UNL     1     -10.164   5.802  66.577  1.00  0.00    -0.189 C  
HETATM    2  C   UNL     1      -9.864   4.577  67.422  1.00  0.00    -0.204 C  
HETATM    3  C   UNL     1      -9.592   5.121  68.823  1.00  0.00    -0.143 C  
HETATM    4  O   UNL     1      -8.190   5.288  69.034  1.00  0.00    -0.085 OA 
HETATM    5  C   UNL     1     -10.283   6.498  68.908  1.00  0.00    -0.206 C  
HETATM    6  C   UNL     1      -8.440   8.702  65.595  1.00  0.00    -0.171 C  
HETATM    7  C   UNL     1     -10.873   6.771  67.504  1.00  0.00    -0.388 C  
HETATM    8  H   UNL     1      -8.020   5.625  69.905  1.00  0.00     0.000 HD 
HETATM    9  C   UNL     1     -10.499   8.121  66.926  1.00  0.00    -0.379 C  
HETATM   10  O   UNL     1      -8.964   6.443  66.138  1.00  0.00    -0.154 OA 
HETATM   11  C   UNL     1      -9.237   7.801  66.188  1.00  0.00    -0.128 C  
ENDROOT
BRANCH   5  12
HETATM   12  C   UNL     1     -11.392   6.522  69.939  1.00  0.00    -0.469 C  
HETATM   13  C   UNL     1     -11.191   6.809  71.236  1.00  0.00    -0.319 C  
BRANCH  13  14
HETATM   14  C   UNL     1     -12.290   6.975  72.247  1.00  0.00    -0.092 C  
HETATM   15  O   UNL     1     -11.730   7.595  73.397  1.00  0.00    -0.615 OA 
HETATM   16  H   UNL     1     -12.425   7.700  74.036  1.00  0.00     0.000 HD 
BRANCH  14  17
HETATM   17  C   UNL     1     -13.427   7.858  71.720  1.00  0.00    -0.379 C  
BRANCH  17  18
HETATM   18  C   UNL     1     -13.228   9.340  72.046  1.00  0.00    -0.519 C  
BRANCH  18  19
HETATM   19  C   UNL     1     -12.836  10.147  70.808  1.00  0.00    -0.388 C  
BRANCH  19  20
HETATM   20  C   UNL     1     -11.325  10.375  70.765  1.00  0.00    -0.370 C  
HETATM   21  C   UNL     1     -10.876  10.888  69.407  1.00  0.00    -0.286 C  
ENDBRANCH  19  20
ENDBRANCH  18  19
ENDBRANCH  17  18
ENDBRANCH  14  17
ENDBRANCH  13  14
ENDBRANCH   5  12
BRANCH   6  22
HETATM   22  C   UNL     1      -7.208   8.358  64.810  1.00  0.00    -0.082 C  
BRANCH  22  23
HETATM   23  C   UNL     1      -6.177   7.625  65.667  1.00  0.00    -0.038 C  
BRANCH  23  24
HETATM   24  C   UNL     1      -5.817   8.452  66.898  1.00  0.00    -0.049 C  
HETATM   25  C   UNL     1      -6.160   7.743  68.183  1.00  0.00    -0.041 C  
HETATM   26  O   UNL     1      -6.977   8.158  68.990  1.00  0.00    -0.058 OA 
HETATM   27  O   UNL     1      -5.447   6.614  68.390  1.00  0.00    -0.014 OA 
ENDBRANCH  23  24
ENDBRANCH  22  23
ENDBRANCH   6  22
TORSDOF 9
ENDMDL
MODEL      159
REMARK 921   NORMALIZED FREE ENERGY PREDICTED BY IDOCK:   -4.22 KCAL/MOL
REMARK 922        TOTAL FREE ENERGY PREDICTED BY IDOCK:   -7.60 KCAL/MOL
REMARK 923 INTER-LIGAND FREE ENERGY PREDICTED BY IDOCK:   -6.39 KCAL/MOL
REMARK 924 INTRA-LIGAND FREE ENERGY PREDICTED BY IDOCK:   -1.21 KCAL/MOL
REMARK 927      BINDING AFFINITY PREDICTED BY RF-SCORE:    0.00 PKD
ROOT
HETATM    1  C   UNL     1      -8.272   9.816  65.426  1.00  0.00    -0.131 C  
HETATM    2  C   UNL     1      -8.170  10.587  64.122  1.00  0.00    -0.058 C  
HETATM    3  C   UNL     1      -9.614  10.790  63.668  1.00  0.00    -0.305 C  
HETATM    4  O   UNL     1      -9.995   9.777  62.737  1.00  0.00    -0.431 OA 
HETATM    5  C   UNL     1     -10.496  10.675  64.929  1.00  0.00    -0.282 C  
HETATM    6  C   UNL     1      -9.494   6.682  66.440  1.00  0.00    -0.166 C  
HETATM    7  C   UNL     1      -9.542  10.311  66.091  1.00  0.00    -0.248 C  
HETATM    8  H   UNL     1     -10.893   9.903  62.454  1.00  0.00     0.000 HD 
HETATM    9  C   UNL     1      -9.983   9.110  66.903  1.00  0.00    -0.304 C  
HETATM   10  O   UNL     1      -8.437   8.415  65.194  1.00  0.00    -0.168 OA 
HETATM   11  C   UNL     1      -9.315   7.984  66.177  1.00  0.00    -0.147 C  
ENDROOT
BRANCH   5  12
HETATM   12  C   UNL     1     -11.216  11.968  65.248  1.00  0.00    -0.374 C  
HETATM   13  C   UNL     1     -11.019  13.112  64.571  1.00  0.00    -0.392 C  
BRANCH  13  14
HETATM   14  C   UNL     1     -11.818  14.368  64.778  1.00  0.00    -0.433 C  
HETATM   15  O   UNL     1     -13.150  13.986  65.094  1.00  0.00    -0.776 OA 
HETATM   16  H   UNL     1     -13.655  14.779  65.225  1.00  0.00     0.000 HD 
BRANCH  14  17
HETATM   17  C   UNL     1     -11.267  15.216  65.929  1.00  0.00    -0.280 C  
BRANCH  17  18
HETATM   18  C   UNL     1      -9.797  15.597  65.737  1.00  0.00    -0.386 C  
BRANCH  18  19
HETATM   19  C   UNL     1      -9.080  15.789  67.074  1.00  0.00    -0.240 C  
BRANCH  19  20
HETATM   20  C   UNL     1      -7.906  14.819  67.205  1.00  0.00    -0.180 C  
HETATM   21  C   UNL     1      -8.381  13.381  67.333  1.00  0.00    -0.193 C  
ENDBRANCH  19  20
ENDBRANCH  18  19
ENDBRANCH  17  18
ENDBRANCH  14  17
ENDBRANCH  13  14
ENDBRANCH   5  12
BRANCH   6  22
HETATM   22  C   UNL     1      -8.772   5.568  65.740  1.00  0.00    -0.151 C  
BRANCH  22  23
HETATM   23  C   UNL     1      -8.285   4.504  66.722  1.00  0.00    -0.102 C  
BRANCH  23  24
HETATM   24  C   UNL     1      -9.461   3.884  67.469  1.00  0.00    -0.236 C  
HETATM   25  C   UNL     1      -9.057   2.670  68.265  1.00  0.00    -0.179 C  
HETATM   26  O   UNL     1      -9.483   1.545  68.054  1.00  0.00    -0.172 OA 
HETATM   27  O   UNL     1      -8.201   2.941  69.275  1.00  0.00    -0.054 OA 
ENDBRANCH  23  24
ENDBRANCH  22  23
ENDBRANCH   6  22
TORSDOF 9
ENDMDL
MODEL      160
REMARK 921   NORMALIZED FREE ENERGY PREDICTED BY IDOCK:   -4.22 KCAL/MOL
REMARK 922        TOTAL FREE ENERGY PREDICTED BY IDOCK:   -7.59 KCAL/MOL
REMARK 923 INTER-LIGAND FREE ENERGY PREDICTED BY IDOCK:   -6.59 KCAL/MOL
REMARK 924 INTRA-LIGAND FREE ENERGY PREDICTED BY IDOCK:   -1.00 KCAL/MOL
REMARK 927      BINDING AFFINITY PREDICTED BY RF-SCORE:    0.00 PKD
ROOT
HETATM    1  C   UNL     1     -11.524   7.056  70.214  1.00  0.00    -0.287 C  
HETATM    2  C   UNL     1     -12.808   7.084  71.026  1.00  0.00    -0.258 C  
HETATM    3  C   UNL     1     -12.643   8.260  71.985  1.00  0.00    -0.349 C  
HETATM    4  O   UNL     1     -12.160   7.812  73.251  1.00  0.00    -0.498 OA 
HETATM    5  C   UNL     1     -11.603   9.207  71.353  1.00  0.00    -0.411 C  
HETATM    6  C   UNL     1      -8.103   6.608  70.877  1.00  0.00    -0.119 C  
HETATM    7  C   UNL     1     -11.108   8.507  70.065  1.00  0.00    -0.152 C  
HETATM    8  H   UNL     1     -12.058   8.544  73.849  1.00  0.00     0.000 HD 
HETATM    9  C   UNL     1      -9.600   8.411  69.951  1.00  0.00    -0.171 C  
HETATM   10  O   UNL     1     -10.474   6.387  70.917  1.00  0.00    -0.215 OA 
HETATM   11  C   UNL     1      -9.323   7.098  70.614  1.00  0.00    -0.158 C  
ENDROOT
BRANCH   5  12
HETATM   12  C   UNL     1     -12.192  10.558  71.002  1.00  0.00    -0.505 C  
HETATM   13  C   UNL     1     -12.913  11.297  71.861  1.00  0.00    -0.471 C  
BRANCH  13  14
HETATM   14  C   UNL     1     -13.388  12.695  71.584  1.00  0.00    -0.223 C  
HETATM   15  O   UNL     1     -14.055  13.165  72.749  1.00  0.00    -0.737 OA 
HETATM   16  H   UNL     1     -14.355  14.048  72.573  1.00  0.00     0.000 HD 
BRANCH  14  17
HETATM   17  C   UNL     1     -12.227  13.645  71.269  1.00  0.00    -0.261 C  
BRANCH  17  18
HETATM   18  C   UNL     1     -12.304  14.229  69.856  1.00  0.00    -0.377 C  
BRANCH  18  19
HETATM   19  C   UNL     1     -11.348  13.520  68.896  1.00  0.00    -0.332 C  
BRANCH  19  20
HETATM   20  C   UNL     1     -10.317  14.500  68.336  1.00  0.00    -0.241 C  
HETATM   21  C   UNL     1     -10.913  15.883  68.135  1.00  0.00    -0.335 C  
ENDBRANCH  19  20
ENDBRANCH  18  19
ENDBRANCH  17  18
ENDBRANCH  14  17
ENDBRANCH  13  14
ENDBRANCH   5  12
BRANCH   6  22
HETATM   22  C   UNL     1      -7.843   5.263  71.491  1.00  0.00    -0.113 C  
BRANCH  22  23
HETATM   23  C   UNL     1      -7.389   4.243  70.447  1.00  0.00    -0.045 C  
BRANCH  23  24
HETATM   24  C   UNL     1      -8.583   3.465  69.902  1.00  0.00    -0.109 C  
HETATM   25  C   UNL     1      -8.257   2.742  68.621  1.00  0.00    -0.063 C  
HETATM   26  O   UNL     1      -8.795   2.979  67.550  1.00  0.00    -0.112 OA 
HETATM   27  O   UNL     1      -7.333   1.766  68.765  1.00  0.00    -0.043 OA 
ENDBRANCH  23  24
ENDBRANCH  22  23
ENDBRANCH   6  22
TORSDOF 9
ENDMDL
MODEL      161
REMARK 921   NORMALIZED FREE ENERGY PREDICTED BY IDOCK:   -4.21 KCAL/MOL
REMARK 922        TOTAL FREE ENERGY PREDICTED BY IDOCK:   -7.57 KCAL/MOL
REMARK 923 INTER-LIGAND FREE ENERGY PREDICTED BY IDOCK:   -6.81 KCAL/MOL
REMARK 924 INTRA-LIGAND FREE ENERGY PREDICTED BY IDOCK:   -0.76 KCAL/MOL
REMARK 927      BINDING AFFINITY PREDICTED BY RF-SCORE:    0.00 PKD
ROOT
HETATM    1  C   UNL     1      -9.161   8.630  69.123  1.00  0.00    -0.142 C  
HETATM    2  C   UNL     1      -9.088   7.906  67.791  1.00  0.00    -0.138 C  
HETATM    3  C   UNL     1     -10.410   8.223  67.095  1.00  0.00    -0.317 C  
HETATM    4  O   UNL     1     -11.357   7.179  67.316  1.00  0.00    -0.584 OA 
HETATM    5  C   UNL     1     -10.941   9.528  67.725  1.00  0.00    -0.165 C  
HETATM    6  C   UNL     1     -11.200   8.505  71.981  1.00  0.00    -0.418 C  
HETATM    7  C   UNL     1      -9.949   9.898  68.853  1.00  0.00    -0.188 C  
HETATM    8  H   UNL     1     -12.179   7.375  66.883  1.00  0.00     0.000 HD 
HETATM    9  C   UNL     1     -10.605  10.174  70.191  1.00  0.00    -0.337 C  
HETATM   10  O   UNL     1      -9.895   7.876  70.090  1.00  0.00    -0.183 OA 
HETATM   11  C   UNL     1     -10.608   8.815  70.819  1.00  0.00    -0.220 C  
ENDROOT
BRANCH   5  12
HETATM   12  C   UNL     1     -11.016  10.661  66.723  1.00  0.00    -0.182 C  
HETATM   13  C   UNL     1     -11.533  11.868  67.007  1.00  0.00    -0.384 C  
BRANCH  13  14
HETATM   14  C   UNL     1     -11.494  13.047  66.076  1.00  0.00    -0.335 C  
HETATM   15  O   UNL     1     -11.318  14.216  66.865  1.00  0.00    -0.307 OA 
HETATM   16  H   UNL     1     -11.293  14.961  66.276  1.00  0.00     0.000 HD 
BRANCH  14  17
HETATM   17  C   UNL     1     -10.334  12.952  65.078  1.00  0.00    -0.334 C  
BRANCH  17  18
HETATM   18  C   UNL     1     -10.792  12.566  63.669  1.00  0.00    -0.486 C  
BRANCH  18  19
HETATM   19  C   UNL     1      -9.949  11.429  63.089  1.00  0.00    -0.402 C  
BRANCH  19  20
HETATM   20  C   UNL     1      -9.599  10.408  64.172  1.00  0.00    -0.381 C  
HETATM   21  C   UNL     1      -8.679   9.322  63.638  1.00  0.00    -0.188 C  
ENDBRANCH  19  20
ENDBRANCH  18  19
ENDBRANCH  17  18
ENDBRANCH  14  17
ENDBRANCH  13  14
ENDBRANCH   5  12
BRANCH   6  22
HETATM   22  C   UNL     1     -11.145   7.149  72.625  1.00  0.00    -0.330 C  
BRANCH  22  23
HETATM   23  C   UNL     1     -10.021   7.059  73.656  1.00  0.00    -0.348 C  
BRANCH  23  24
HETATM   24  C   UNL     1      -8.881   6.190  73.132  1.00  0.00    -0.130 C  
HETATM   25  C   UNL     1      -8.870   4.821  73.763  1.00  0.00    -0.104 C  
HETATM   26  O   UNL     1      -7.958   4.401  74.458  1.00  0.00    -0.086 OA 
HETATM   27  O   UNL     1      -9.952   4.072  73.458  1.00  0.00    -0.119 OA 
ENDBRANCH  23  24
ENDBRANCH  22  23
ENDBRANCH   6  22
TORSDOF 9
ENDMDL
MODEL      162
REMARK 921   NORMALIZED FREE ENERGY PREDICTED BY IDOCK:   -4.20 KCAL/MOL
REMARK 922        TOTAL FREE ENERGY PREDICTED BY IDOCK:   -7.55 KCAL/MOL
REMARK 923 INTER-LIGAND FREE ENERGY PREDICTED BY IDOCK:   -6.44 KCAL/MOL
REMARK 924 INTRA-LIGAND FREE ENERGY PREDICTED BY IDOCK:   -1.12 KCAL/MOL
REMARK 927      BINDING AFFINITY PREDICTED BY RF-SCORE:    0.00 PKD
ROOT
HETATM    1  C   UNL     1      -9.671  10.241  65.475  1.00  0.00    -0.265 C  
HETATM    2  C   UNL     1     -10.893  11.143  65.490  1.00  0.00    -0.205 C  
HETATM    3  C   UNL     1     -11.055  11.564  66.949  1.00  0.00    -0.307 C  
HETATM    4  O   UNL     1     -11.993  10.719  67.615  1.00  0.00    -0.616 OA 
HETATM    5  C   UNL     1      -9.672  11.406  67.614  1.00  0.00    -0.183 C  
HETATM    6  C   UNL     1      -8.753   7.175  66.922  1.00  0.00    -0.126 C  
HETATM    7  C   UNL     1      -8.742  10.800  66.536  1.00  0.00    -0.154 C  
HETATM    8  H   UNL     1     -12.095  10.981  68.522  1.00  0.00     0.000 HD 
HETATM    9  C   UNL     1      -7.981   9.572  66.993  1.00  0.00    -0.109 C  
HETATM   10  O   UNL     1     -10.000   8.906  65.865  1.00  0.00    -0.245 OA 
HETATM   11  C   UNL     1      -8.920   8.469  66.615  1.00  0.00    -0.148 C  
ENDROOT
BRANCH   5  12
HETATM   12  C   UNL     1      -9.106  12.729  68.087  1.00  0.00    -0.203 C  
HETATM   13  C   UNL     1      -8.247  13.468  67.366  1.00  0.00    -0.187 C  
BRANCH  13  14
HETATM   14  C   UNL     1      -7.782  14.844  67.752  1.00  0.00    -0.161 C  
HETATM   15  O   UNL     1      -6.836  15.269  66.781  1.00  0.00    -0.242 OA 
HETATM   16  H   UNL     1      -6.542  16.139  67.025  1.00  0.00     0.000 HD 
BRANCH  14  17
HETATM   17  C   UNL     1      -8.936  15.852  67.786  1.00  0.00    -0.176 C  
BRANCH  17  18
HETATM   18  C   UNL     1      -9.019  16.703  66.516  1.00  0.00    -0.310 C  
BRANCH  18  19
HETATM   19  C   UNL     1     -10.133  16.224  65.585  1.00  0.00    -0.340 C  
BRANCH  19  20
HETATM   20  C   UNL     1     -11.102  15.303  66.326  1.00  0.00    -0.273 C  
HETATM   21  C   UNL     1     -11.984  14.527  65.362  1.00  0.00    -0.332 C  
ENDBRANCH  19  20
ENDBRANCH  18  19
ENDBRANCH  17  18
ENDBRANCH  14  17
ENDBRANCH  13  14
ENDBRANCH   5  12
BRANCH   6  22
HETATM   22  C   UNL     1      -9.675   6.073  66.486  1.00  0.00    -0.183 C  
BRANCH  22  23
HETATM   23  C   UNL     1     -10.811   5.858  67.485  1.00  0.00    -0.335 C  
BRANCH  23  24
HETATM   24  C   UNL     1     -10.704   6.847  68.641  1.00  0.00    -0.256 C  
HETATM   25  C   UNL     1     -11.162   6.251  69.947  1.00  0.00    -0.429 C  
HETATM   26  O   UNL     1     -12.119   6.663  70.584  1.00  0.00    -0.394 OA 
HETATM   27  O   UNL     1     -10.388   5.232  70.382  1.00  0.00    -0.258 OA 
ENDBRANCH  23  24
ENDBRANCH  22  23
ENDBRANCH   6  22
TORSDOF 9
ENDMDL
MODEL      163
REMARK 921   NORMALIZED FREE ENERGY PREDICTED BY IDOCK:   -4.19 KCAL/MOL
REMARK 922        TOTAL FREE ENERGY PREDICTED BY IDOCK:   -7.54 KCAL/MOL
REMARK 923 INTER-LIGAND FREE ENERGY PREDICTED BY IDOCK:   -6.17 KCAL/MOL
REMARK 924 INTRA-LIGAND FREE ENERGY PREDICTED BY IDOCK:   -1.37 KCAL/MOL
REMARK 927      BINDING AFFINITY PREDICTED BY RF-SCORE:    0.00 PKD
ROOT
HETATM    1  C   UNL     1      -8.918   9.702  67.333  1.00  0.00    -0.131 C  
HETATM    2  C   UNL     1     -10.098  10.169  66.500  1.00  0.00    -0.296 C  
HETATM    3  C   UNL     1     -10.828  11.181  67.380  1.00  0.00    -0.266 C  
HETATM    4  O   UNL     1     -11.903  10.556  68.080  1.00  0.00    -0.762 OA 
HETATM    5  C   UNL     1      -9.797  11.706  68.402  1.00  0.00    -0.202 C  
HETATM    6  C   UNL     1      -8.462   8.034  70.391  1.00  0.00    -0.130 C  
HETATM    7  C   UNL     1      -8.496  10.909  68.150  1.00  0.00    -0.131 C  
HETATM    8  H   UNL     1     -12.358  11.185  68.628  1.00  0.00     0.000 HD 
HETATM    9  C   UNL     1      -7.903  10.279  69.394  1.00  0.00    -0.157 C  
HETATM   10  O   UNL     1      -9.300   8.681  68.258  1.00  0.00    -0.138 OA 
HETATM   11  C   UNL     1      -8.567   8.937  69.406  1.00  0.00    -0.133 C  
ENDROOT
BRANCH   5  12
HETATM   12  C   UNL     1      -9.527  13.187  68.237  1.00  0.00    -0.210 C  
HETATM   13  C   UNL     1      -9.449  13.798  67.043  1.00  0.00    -0.255 C  
BRANCH  13  14
HETATM   14  C   UNL     1      -9.320  15.283  66.858  1.00  0.00    -0.237 C  
HETATM   15  O   UNL     1      -8.062  15.536  66.248  1.00  0.00    -0.315 OA 
HETATM   16  H   UNL     1      -7.980  16.475  66.131  1.00  0.00     0.000 HD 
BRANCH  14  17
HETATM   17  C   UNL     1     -10.423  15.848  65.956  1.00  0.00    -0.357 C  
BRANCH  17  18
HETATM   18  C   UNL     1     -10.676  14.987  64.716  1.00  0.00    -0.354 C  
BRANCH  18  19
HETATM   19  C   UNL     1     -12.153  14.622  64.569  1.00  0.00    -0.490 C  
BRANCH  19  20
HETATM   20  C   UNL     1     -12.394  13.165  64.965  1.00  0.00    -0.511 C  
HETATM   21  C   UNL     1     -12.589  12.280  63.745  1.00  0.00    -0.577 C  
ENDBRANCH  19  20
ENDBRANCH  18  19
ENDBRANCH  17  18
ENDBRANCH  14  17
ENDBRANCH  13  14
ENDBRANCH   5  12
BRANCH   6  22
HETATM   22  C   UNL     1      -9.088   6.669  70.361  1.00  0.00    -0.152 C  
BRANCH  22  23
HETATM   23  C   UNL     1      -8.034   5.566  70.277  1.00  0.00    -0.101 C  
BRANCH  23  24
HETATM   24  C   UNL     1      -8.055   4.907  68.902  1.00  0.00    -0.083 C  
HETATM   25  C   UNL     1      -7.166   5.617  67.914  1.00  0.00    -0.072 C  
HETATM   26  O   UNL     1      -7.576   6.164  66.901  1.00  0.00    -0.095 OA 
HETATM   27  O   UNL     1      -5.853   5.564  68.226  1.00  0.00    -0.015 OA 
ENDBRANCH  23  24
ENDBRANCH  22  23
ENDBRANCH   6  22
TORSDOF 9
ENDMDL
MODEL      164
REMARK 921   NORMALIZED FREE ENERGY PREDICTED BY IDOCK:   -4.18 KCAL/MOL
REMARK 922        TOTAL FREE ENERGY PREDICTED BY IDOCK:   -7.53 KCAL/MOL
REMARK 923 INTER-LIGAND FREE ENERGY PREDICTED BY IDOCK:   -6.15 KCAL/MOL
REMARK 924 INTRA-LIGAND FREE ENERGY PREDICTED BY IDOCK:   -1.38 KCAL/MOL
REMARK 927      BINDING AFFINITY PREDICTED BY RF-SCORE:    0.00 PKD
ROOT
HETATM    1  C   UNL     1     -11.282  11.079  66.781  1.00  0.00    -0.089 C  
HETATM    2  C   UNL     1     -11.497  11.438  68.241  1.00  0.00    -0.369 C  
HETATM    3  C   UNL     1     -10.291  12.295  68.619  1.00  0.00    -0.188 C  
HETATM    4  O   UNL     1      -9.281  11.496  69.235  1.00  0.00    -0.385 OA 
HETATM    5  C   UNL     1      -9.737  12.886  67.306  1.00  0.00    -0.220 C  
HETATM    6  C   UNL     1      -8.885   9.305  64.923  1.00  0.00    -0.233 C  
HETATM    7  C   UNL     1     -10.588  12.279  66.166  1.00  0.00    -0.281 C  
HETATM    8  H   UNL     1      -8.530  12.028  69.471  1.00  0.00     0.000 HD 
HETATM    9  C   UNL     1      -9.776  11.658  65.048  1.00  0.00    -0.237 C  
HETATM   10  O   UNL     1     -10.398   9.964  66.641  1.00  0.00    -0.231 OA 
HETATM   11  C   UNL     1      -9.635  10.244  65.517  1.00  0.00    -0.242 C  
ENDROOT
BRANCH   5  12
HETATM   12  C   UNL     1      -9.838  14.397  67.268  1.00  0.00    -0.247 C  
HETATM   13  C   UNL     1     -10.262  15.137  68.305  1.00  0.00    -0.223 C  
BRANCH  13  14
HETATM   14  C   UNL     1     -10.241  16.640  68.339  1.00  0.00    -0.284 C  
HETATM   15  O   UNL     1     -10.907  17.056  69.523  1.00  0.00    -0.373 OA 
HETATM   16  H   UNL     1     -10.893  18.005  69.545  1.00  0.00     0.000 HD 
BRANCH  14  17
HETATM   17  C   UNL     1      -8.811  17.193  68.362  1.00  0.00    -0.255 C  
BRANCH  17  18
HETATM   18  C   UNL     1      -8.541  18.187  67.229  1.00  0.00    -0.240 C  
BRANCH  18  19
HETATM   19  C   UNL     1      -8.648  19.635  67.708  1.00  0.00    -0.366 C  
BRANCH  19  20
HETATM   20  C   UNL     1      -9.929  20.286  67.186  1.00  0.00    -0.593 C  
HETATM   21  C   UNL     1     -10.500  19.524  66.002  1.00  0.00    -0.611 C  
ENDBRANCH  19  20
ENDBRANCH  18  19
ENDBRANCH  17  18
ENDBRANCH  14  17
ENDBRANCH  13  14
ENDBRANCH   5  12
BRANCH   6  22
HETATM   22  C   UNL     1      -8.801   7.876  65.375  1.00  0.00    -0.020 C  
BRANCH  22  23
HETATM   23  C   UNL     1      -7.360   7.459  65.666  1.00  0.00    -0.074 C  
BRANCH  23  24
HETATM   24  C   UNL     1      -6.805   8.237  66.854  1.00  0.00    -0.069 C  
HETATM   25  C   UNL     1      -7.571   7.967  68.123  1.00  0.00    -0.116 C  
HETATM   26  O   UNL     1      -8.198   8.819  68.734  1.00  0.00    -0.113 OA 
HETATM   27  O   UNL     1      -7.472   6.691  68.558  1.00  0.00    -0.088 OA 
ENDBRANCH  23  24
ENDBRANCH  22  23
ENDBRANCH   6  22
TORSDOF 9
ENDMDL
MODEL      165
REMARK 921   NORMALIZED FREE ENERGY PREDICTED BY IDOCK:   -4.17 KCAL/MOL
REMARK 922        TOTAL FREE ENERGY PREDICTED BY IDOCK:   -7.52 KCAL/MOL
REMARK 923 INTER-LIGAND FREE ENERGY PREDICTED BY IDOCK:   -6.31 KCAL/MOL
REMARK 924 INTRA-LIGAND FREE ENERGY PREDICTED BY IDOCK:   -1.21 KCAL/MOL
REMARK 927      BINDING AFFINITY PREDICTED BY RF-SCORE:    0.00 PKD
ROOT
HETATM    1  C   UNL     1      -8.658   7.158  66.182  1.00  0.00    -0.146 C  
HETATM    2  C   UNL     1      -7.287   6.709  66.656  1.00  0.00    -0.078 C  
HETATM    3  C   UNL     1      -7.046   7.475  67.955  1.00  0.00    -0.085 C  
HETATM    4  O   UNL     1      -6.286   8.658  67.708  1.00  0.00    -0.055 OA 
HETATM    5  C   UNL     1      -8.434   7.871  68.501  1.00  0.00    -0.128 C  
HETATM    6  C   UNL     1     -10.143  10.183  65.190  1.00  0.00    -0.329 C  
HETATM    7  C   UNL     1      -9.463   7.400  67.445  1.00  0.00    -0.170 C  
HETATM    8  H   UNL     1      -6.136   9.134  68.516  1.00  0.00     0.000 HD 
HETATM    9  C   UNL     1     -10.444   8.472  67.014  1.00  0.00    -0.362 C  
HETATM   10  O   UNL     1      -8.589   8.403  65.482  1.00  0.00    -0.165 OA 
HETATM   11  C   UNL     1      -9.733   9.092  65.852  1.00  0.00    -0.266 C  
ENDROOT
BRANCH   5  12
HETATM   12  C   UNL     1      -8.737   7.216  69.832  1.00  0.00    -0.142 C  
HETATM   13  C   UNL     1      -9.916   6.644  70.126  1.00  0.00    -0.190 C  
BRANCH  13  14
HETATM   14  C   UNL     1     -10.193   5.870  71.384  1.00  0.00    -0.211 C  
HETATM   15  O   UNL     1     -11.566   6.044  71.706  1.00  0.00    -0.287 OA 
HETATM   16  H   UNL     1     -11.741   5.554  72.501  1.00  0.00     0.000 HD 
BRANCH  14  17
HETATM   17  C   UNL     1      -9.917   4.372  71.209  1.00  0.00    -0.245 C  
BRANCH  17  18
HETATM   18  C   UNL     1      -8.659   3.909  71.947  1.00  0.00    -0.115 C  
BRANCH  18  19
HETATM   19  C   UNL     1      -7.415   4.005  71.064  1.00  0.00    -0.041 C  
BRANCH  19  20
HETATM   20  C   UNL     1      -7.657   3.336  69.711  1.00  0.00    -0.044 C  
HETATM   21  C   UNL     1      -7.092   1.925  69.676  1.00  0.00    -0.033 C  
ENDBRANCH  19  20
ENDBRANCH  18  19
ENDBRANCH  17  18
ENDBRANCH  14  17
ENDBRANCH  13  14
ENDBRANCH   5  12
BRANCH   6  22
HETATM   22  C   UNL     1      -9.448  10.758  63.990  1.00  0.00    -0.312 C  
BRANCH  22  23
HETATM   23  C   UNL     1     -10.356  11.711  63.214  1.00  0.00    -0.444 C  
BRANCH  23  24
HETATM   24  C   UNL     1     -10.768  12.891  64.088  1.00  0.00    -0.443 C  
HETATM   25  C   UNL     1     -12.224  13.243  63.923  1.00  0.00    -0.425 C  
HETATM   26  O   UNL     1     -12.620  14.312  63.485  1.00  0.00    -0.814 OA 
HETATM   27  O   UNL     1     -13.069  12.278  64.347  1.00  0.00    -0.780 OA 
ENDBRANCH  23  24
ENDBRANCH  22  23
ENDBRANCH   6  22
TORSDOF 9
ENDMDL
MODEL      166
REMARK 921   NORMALIZED FREE ENERGY PREDICTED BY IDOCK:   -4.17 KCAL/MOL
REMARK 922        TOTAL FREE ENERGY PREDICTED BY IDOCK:   -7.52 KCAL/MOL
REMARK 923 INTER-LIGAND FREE ENERGY PREDICTED BY IDOCK:   -7.13 KCAL/MOL
REMARK 924 INTRA-LIGAND FREE ENERGY PREDICTED BY IDOCK:   -0.39 KCAL/MOL
REMARK 927      BINDING AFFINITY PREDICTED BY RF-SCORE:    0.00 PKD
ROOT
HETATM    1  C   UNL     1     -12.297  13.545  66.748  1.00  0.00    -0.274 C  
HETATM    2  C   UNL     1     -11.962  12.683  65.544  1.00  0.00    -0.509 C  
HETATM    3  C   UNL     1     -10.679  11.948  65.929  1.00  0.00    -0.284 C  
HETATM    4  O   UNL     1      -9.535  12.638  65.426  1.00  0.00    -0.459 OA 
HETATM    5  C   UNL     1     -10.622  11.931  67.471  1.00  0.00    -0.250 C  
HETATM    6  C   UNL     1     -10.777  16.194  68.484  1.00  0.00    -0.300 C  
HETATM    7  C   UNL     1     -11.843  12.748  67.956  1.00  0.00    -0.386 C  
HETATM    8  H   UNL     1      -8.737  12.181  65.665  1.00  0.00     0.000 HD 
HETATM    9  C   UNL     1     -11.504  13.830  68.962  1.00  0.00    -0.349 C  
HETATM   10  O   UNL     1     -11.550  14.765  66.744  1.00  0.00    -0.364 OA 
HETATM   11  C   UNL     1     -11.238  15.005  68.073  1.00  0.00    -0.316 C  
ENDROOT
BRANCH   5  12
HETATM   12  C   UNL     1     -10.693  10.527  68.033  1.00  0.00    -0.287 C  
HETATM   13  C   UNL     1     -10.044  10.140  69.144  1.00  0.00    -0.226 C  
BRANCH  13  14
HETATM   14  C   UNL     1     -10.209   8.796  69.796  1.00  0.00    -0.202 C  
HETATM   15  O   UNL     1     -11.392   8.205  69.278  1.00  0.00    -0.406 OA 
HETATM   16  H   UNL     1     -11.496   7.356  69.690  1.00  0.00     0.000 HD 
BRANCH  14  17
HETATM   17  C   UNL     1      -9.027   7.866  69.501  1.00  0.00    -0.142 C  
BRANCH  17  18
HETATM   18  C   UNL     1      -8.426   7.248  70.766  1.00  0.00    -0.132 C  
BRANCH  18  19
HETATM   19  C   UNL     1      -8.079   8.312  71.808  1.00  0.00    -0.179 C  
BRANCH  19  20
HETATM   20  C   UNL     1      -6.701   8.913  71.530  1.00  0.00    -0.081 C  
HETATM   21  C   UNL     1      -6.183   8.512  70.159  1.00  0.00    -0.034 C  
ENDBRANCH  19  20
ENDBRANCH  18  19
ENDBRANCH  17  18
ENDBRANCH  14  17
ENDBRANCH  13  14
ENDBRANCH   5  12
BRANCH   6  22
HETATM   22  C   UNL     1     -10.570  17.380  67.587  1.00  0.00    -0.350 C  
BRANCH  22  23
HETATM   23  C   UNL     1      -9.154  17.417  67.016  1.00  0.00    -0.251 C  
BRANCH  23  24
HETATM   24  C   UNL     1      -8.887  18.752  66.327  1.00  0.00    -0.242 C  
HETATM   25  C   UNL     1      -9.031  19.920  67.269  1.00  0.00    -0.334 C  
HETATM   26  O   UNL     1      -9.868  20.799  67.138  1.00  0.00    -0.463 OA 
HETATM   27  O   UNL     1      -8.116  19.934  68.263  1.00  0.00    -0.307 OA 
ENDBRANCH  23  24
ENDBRANCH  22  23
ENDBRANCH   6  22
TORSDOF 9
ENDMDL
MODEL      167
REMARK 921   NORMALIZED FREE ENERGY PREDICTED BY IDOCK:   -4.16 KCAL/MOL
REMARK 922        TOTAL FREE ENERGY PREDICTED BY IDOCK:   -7.49 KCAL/MOL
REMARK 923 INTER-LIGAND FREE ENERGY PREDICTED BY IDOCK:   -6.61 KCAL/MOL
REMARK 924 INTRA-LIGAND FREE ENERGY PREDICTED BY IDOCK:   -0.88 KCAL/MOL
REMARK 927      BINDING AFFINITY PREDICTED BY RF-SCORE:    0.00 PKD
ROOT
HETATM    1  C   UNL     1      -9.073  10.658  65.883  1.00  0.00    -0.180 C  
HETATM    2  C   UNL     1     -10.568  10.791  65.654  1.00  0.00    -0.199 C  
HETATM    3  C   UNL     1     -11.106  11.443  66.926  1.00  0.00    -0.295 C  
HETATM    4  O   UNL     1     -11.596  10.453  67.830  1.00  0.00    -0.654 OA 
HETATM    5  C   UNL     1      -9.922  12.183  67.581  1.00  0.00    -0.199 C  
HETATM    6  C   UNL     1      -6.985   8.978  68.154  1.00  0.00    -0.077 C  
HETATM    7  C   UNL     1      -8.681  11.865  66.713  1.00  0.00    -0.193 C  
HETATM    8  H   UNL     1     -11.931  10.858  68.621  1.00  0.00     0.000 HD 
HETATM    9  C   UNL     1      -7.488  11.357  67.498  1.00  0.00    -0.113 C  
HETATM   10  O   UNL     1      -8.763   9.496  66.657  1.00  0.00    -0.132 OA 
HETATM   11  C   UNL     1      -7.716   9.878  67.481  1.00  0.00    -0.091 C  
ENDROOT
BRANCH   5  12
HETATM   12  C   UNL     1     -10.136  13.681  67.631  1.00  0.00    -0.242 C  
HETATM   13  C   UNL     1     -10.013  14.411  68.753  1.00  0.00    -0.223 C  
BRANCH  13  14
HETATM   14  C   UNL     1     -10.085  15.911  68.800  1.00  0.00    -0.221 C  
HETATM   15  O   UNL     1     -10.353  16.373  67.483  1.00  0.00    -0.275 OA 
HETATM   16  H   UNL     1     -10.398  17.322  67.513  1.00  0.00     0.000 HD 
BRANCH  14  17
HETATM   17  C   UNL     1     -11.201  16.403  69.728  1.00  0.00    -0.252 C  
BRANCH  17  18
HETATM   18  C   UNL     1     -12.166  15.289  70.141  1.00  0.00    -0.402 C  
BRANCH  18  19
HETATM   19  C   UNL     1     -12.872  15.609  71.459  1.00  0.00    -0.538 C  
BRANCH  19  20
HETATM   20  C   UNL     1     -11.943  15.355  72.647  1.00  0.00    -0.553 C  
HETATM   21  C   UNL     1     -12.500  15.951  73.929  1.00  0.00    -0.744 C  
ENDBRANCH  19  20
ENDBRANCH  18  19
ENDBRANCH  17  18
ENDBRANCH  14  17
ENDBRANCH  13  14
ENDBRANCH   5  12
BRANCH   6  22
HETATM   22  C   UNL     1      -7.191   7.492  68.081  1.00  0.00    -0.090 C  
BRANCH  22  23
HETATM   23  C   UNL     1      -7.811   6.943  69.365  1.00  0.00    -0.113 C  
BRANCH  23  24
HETATM   24  C   UNL     1      -9.288   7.314  69.450  1.00  0.00    -0.151 C  
HETATM   25  C   UNL     1     -10.118   6.219  70.069  1.00  0.00    -0.175 C  
HETATM   26  O   UNL     1     -11.006   5.624  69.479  1.00  0.00    -0.334 OA 
HETATM   27  O   UNL     1      -9.819   5.974  71.364  1.00  0.00    -0.170 OA 
ENDBRANCH  23  24
ENDBRANCH  22  23
ENDBRANCH   6  22
TORSDOF 9
ENDMDL
MODEL      168
REMARK 921   NORMALIZED FREE ENERGY PREDICTED BY IDOCK:   -4.16 KCAL/MOL
REMARK 922        TOTAL FREE ENERGY PREDICTED BY IDOCK:   -7.49 KCAL/MOL
REMARK 923 INTER-LIGAND FREE ENERGY PREDICTED BY IDOCK:   -6.41 KCAL/MOL
REMARK 924 INTRA-LIGAND FREE ENERGY PREDICTED BY IDOCK:   -1.08 KCAL/MOL
REMARK 927      BINDING AFFINITY PREDICTED BY RF-SCORE:    0.00 PKD
ROOT
HETATM    1  C   UNL     1     -11.061  11.629  65.447  1.00  0.00    -0.239 C  
HETATM    2  C   UNL     1     -10.448  10.800  64.332  1.00  0.00    -0.344 C  
HETATM    3  C   UNL     1      -9.240  10.114  64.967  1.00  0.00    -0.217 C  
HETATM    4  O   UNL     1      -8.049  10.859  64.715  1.00  0.00    -0.365 OA 
HETATM    5  C   UNL     1      -9.500  10.076  66.488  1.00  0.00    -0.222 C  
HETATM    6  C   UNL     1     -10.048  14.313  67.475  1.00  0.00    -0.236 C  
HETATM    7  C   UNL     1     -10.829  10.833  66.718  1.00  0.00    -0.256 C  
HETATM    8  H   UNL     1      -7.298  10.433  65.109  1.00  0.00     0.000 HD 
HETATM    9  C   UNL     1     -10.753  11.913  67.778  1.00  0.00    -0.243 C  
HETATM   10  O   UNL     1     -10.384  12.878  65.604  1.00  0.00    -0.274 OA 
HETATM   11  C   UNL     1     -10.362  13.111  66.970  1.00  0.00    -0.249 C  
ENDROOT
BRANCH   5  12
HETATM   12  C   UNL     1      -9.623   8.662  67.015  1.00  0.00    -0.240 C  
HETATM   13  C   UNL     1     -10.782   7.983  67.054  1.00  0.00    -0.263 C  
BRANCH  13  14
HETATM   14  C   UNL     1     -10.904   6.537  67.442  1.00  0.00    -0.373 C  
HETATM   15  O   UNL     1     -11.077   5.782  66.250  1.00  0.00    -0.733 OA 
HETATM   16  H   UNL     1     -11.154   4.868  66.495  1.00  0.00     0.000 HD 
BRANCH  14  17
HETATM   17  C   UNL     1      -9.653   6.028  68.166  1.00  0.00    -0.122 C  
BRANCH  17  18
HETATM   18  C   UNL     1      -9.795   6.055  69.690  1.00  0.00    -0.205 C  
BRANCH  18  19
HETATM   19  C   UNL     1      -8.837   7.059  70.331  1.00  0.00    -0.155 C  
BRANCH  19  20
HETATM   20  C   UNL     1      -7.383   6.668  70.064  1.00  0.00    -0.089 C  
HETATM   21  C   UNL     1      -7.010   5.380  70.780  1.00  0.00    -0.056 C  
ENDBRANCH  19  20
ENDBRANCH  18  19
ENDBRANCH  17  18
ENDBRANCH  14  17
ENDBRANCH  13  14
ENDBRANCH   5  12
BRANCH   6  22
HETATM   22  C   UNL     1      -9.715  15.520  66.647  1.00  0.00    -0.264 C  
BRANCH  22  23
HETATM   23  C   UNL     1      -8.262  15.954  66.839  1.00  0.00    -0.283 C  
BRANCH  23  24
HETATM   24  C   UNL     1      -7.969  17.218  66.037  1.00  0.00    -0.196 C  
HETATM   25  C   UNL     1      -8.115  18.468  66.867  1.00  0.00    -0.245 C  
HETATM   26  O   UNL     1      -8.939  19.340  66.643  1.00  0.00    -0.309 OA 
HETATM   27  O   UNL     1      -7.216  18.563  67.871  1.00  0.00    -0.230 OA 
ENDBRANCH  23  24
ENDBRANCH  22  23
ENDBRANCH   6  22
TORSDOF 9
ENDMDL
MODEL      169
REMARK 921   NORMALIZED FREE ENERGY PREDICTED BY IDOCK:   -4.15 KCAL/MOL
REMARK 922        TOTAL FREE ENERGY PREDICTED BY IDOCK:   -7.48 KCAL/MOL
REMARK 923 INTER-LIGAND FREE ENERGY PREDICTED BY IDOCK:   -6.63 KCAL/MOL
REMARK 924 INTRA-LIGAND FREE ENERGY PREDICTED BY IDOCK:   -0.85 KCAL/MOL
REMARK 927      BINDING AFFINITY PREDICTED BY RF-SCORE:    0.00 PKD
ROOT
HETATM    1  C   UNL     1      -9.915  12.280  67.123  1.00  0.00    -0.205 C  
HETATM    2  C   UNL     1      -8.413  12.066  67.062  1.00  0.00    -0.183 C  
HETATM    3  C   UNL     1      -8.069  11.308  68.343  1.00  0.00    -0.143 C  
HETATM    4  O   UNL     1      -7.638  12.211  69.361  1.00  0.00    -0.327 OA 
HETATM    5  C   UNL     1      -9.364  10.607  68.804  1.00  0.00    -0.183 C  
HETATM    6  C   UNL     1     -12.166  13.951  69.239  1.00  0.00    -0.319 C  
HETATM    7  C   UNL     1     -10.471  11.052  67.820  1.00  0.00    -0.232 C  
HETATM    8  H   UNL     1      -7.424  11.740  70.157  1.00  0.00     0.000 HD 
HETATM    9  C   UNL     1     -11.720  11.587  68.491  1.00  0.00    -0.379 C  
HETATM   10  O   UNL     1     -10.252  13.411  67.929  1.00  0.00    -0.229 OA 
HETATM   11  C   UNL     1     -11.410  13.048  68.598  1.00  0.00    -0.291 C  
ENDROOT
BRANCH   5  12
HETATM   12  C   UNL     1      -9.240   9.098  68.781  1.00  0.00    -0.136 C  
HETATM   13  C   UNL     1      -9.364   8.327  69.874  1.00  0.00    -0.159 C  
BRANCH  13  14
HETATM   14  C   UNL     1      -9.383   6.824  69.854  1.00  0.00    -0.157 C  
HETATM   15  O   UNL     1      -8.186   6.385  69.225  1.00  0.00    -0.112 OA 
HETATM   16  H   UNL     1      -8.198   5.435  69.213  1.00  0.00     0.000 HD 
BRANCH  14  17
HETATM   17  C   UNL     1      -9.440   6.232  71.266  1.00  0.00    -0.171 C  
BRANCH  17  18
HETATM   18  C   UNL     1      -8.086   5.702  71.744  1.00  0.00    -0.118 C  
BRANCH  18  19
HETATM   19  C   UNL     1      -7.619   6.405  73.018  1.00  0.00    -0.095 C  
BRANCH  19  20
HETATM   20  C   UNL     1      -8.236   7.800  73.125  1.00  0.00    -0.197 C  
HETATM   21  C   UNL     1      -7.682   8.566  74.316  1.00  0.00    -0.175 C  
ENDBRANCH  19  20
ENDBRANCH  18  19
ENDBRANCH  17  18
ENDBRANCH  14  17
ENDBRANCH  13  14
ENDBRANCH   5  12
BRANCH   6  22
HETATM   22  C   UNL     1     -11.871  15.423  69.288  1.00  0.00    -0.365 C  
BRANCH  22  23
HETATM   23  C   UNL     1     -11.651  15.908  70.720  1.00  0.00    -0.441 C  
BRANCH  23  24
HETATM   24  C   UNL     1     -11.995  14.807  71.719  1.00  0.00    -0.409 C  
HETATM   25  C   UNL     1     -12.622  15.351  72.976  1.00  0.00    -0.434 C  
HETATM   26  O   UNL     1     -12.119  15.254  74.084  1.00  0.00    -0.585 OA 
HETATM   27  O   UNL     1     -13.827  15.930  72.777  1.00  0.00    -0.584 OA 
ENDBRANCH  23  24
ENDBRANCH  22  23
ENDBRANCH   6  22
TORSDOF 9
ENDMDL
MODEL      170
REMARK 921   NORMALIZED FREE ENERGY PREDICTED BY IDOCK:   -4.14 KCAL/MOL
REMARK 922        TOTAL FREE ENERGY PREDICTED BY IDOCK:   -7.47 KCAL/MOL
REMARK 923 INTER-LIGAND FREE ENERGY PREDICTED BY IDOCK:   -6.54 KCAL/MOL
REMARK 924 INTRA-LIGAND FREE ENERGY PREDICTED BY IDOCK:   -0.93 KCAL/MOL
REMARK 927      BINDING AFFINITY PREDICTED BY RF-SCORE:    0.00 PKD
ROOT
HETATM    1  C   UNL     1      -8.857   9.223  68.007  1.00  0.00    -0.128 C  
HETATM    2  C   UNL     1      -7.971  10.410  67.671  1.00  0.00    -0.106 C  
HETATM    3  C   UNL     1      -8.149  10.623  66.169  1.00  0.00    -0.154 C  
HETATM    4  O   UNL     1      -7.109   9.971  65.442  1.00  0.00    -0.123 OA 
HETATM    5  C   UNL     1      -9.504   9.991  65.789  1.00  0.00    -0.270 C  
HETATM    6  C   UNL     1      -9.026   5.834  67.100  1.00  0.00    -0.113 C  
HETATM    7  C   UNL     1     -10.050   9.333  67.078  1.00  0.00    -0.313 C  
HETATM    8  H   UNL     1      -7.219  10.104  64.508  1.00  0.00     0.000 HD 
HETATM    9  C   UNL     1     -10.473   7.887  66.906  1.00  0.00    -0.388 C  
HETATM   10  O   UNL     1      -8.207   7.984  67.714  1.00  0.00    -0.125 OA 
HETATM   11  C   UNL     1      -9.206   7.156  67.227  1.00  0.00    -0.130 C  
ENDROOT
BRANCH   5  12
HETATM   12  C   UNL     1     -10.496  11.017  65.283  1.00  0.00    -0.316 C  
HETATM   13  C   UNL     1     -10.665  11.306  63.981  1.00  0.00    -0.444 C  
BRANCH  13  14
HETATM   14  C   UNL     1     -11.734  12.216  63.447  1.00  0.00    -0.444 C  
HETATM   15  O   UNL     1     -12.698  11.408  62.784  1.00  0.00    -0.927 OA 
HETATM   16  H   UNL     1     -13.374  11.983  62.446  1.00  0.00     0.000 HD 
BRANCH  14  17
HETATM   17  C   UNL     1     -12.436  12.996  64.564  1.00  0.00    -0.427 C  
BRANCH  17  18
HETATM   18  C   UNL     1     -12.070  14.482  64.571  1.00  0.00    -0.501 C  
BRANCH  18  19
HETATM   19  C   UNL     1     -10.617  14.707  64.989  1.00  0.00    -0.461 C  
BRANCH  19  20
HETATM   20  C   UNL     1     -10.545  15.492  66.300  1.00  0.00    -0.310 C  
HETATM   21  C   UNL     1     -11.413  14.862  67.376  1.00  0.00    -0.354 C  
ENDBRANCH  19  20
ENDBRANCH  18  19
ENDBRANCH  17  18
ENDBRANCH  14  17
ENDBRANCH  13  14
ENDBRANCH   5  12
BRANCH   6  22
HETATM   22  C   UNL     1      -7.768   5.109  67.481  1.00  0.00    -0.092 C  
BRANCH  22  23
HETATM   23  C   UNL     1      -7.856   4.524  68.889  1.00  0.00    -0.070 C  
BRANCH  23  24
HETATM   24  C   UNL     1      -7.565   3.027  68.868  1.00  0.00    -0.048 C  
HETATM   25  C   UNL     1      -8.787   2.203  69.185  1.00  0.00    -0.093 C  
HETATM   26  O   UNL     1      -8.882   1.475  70.161  1.00  0.00    -0.050 OA 
HETATM   27  O   UNL     1      -9.768   2.306  68.262  1.00  0.00    -0.150 OA 
ENDBRANCH  23  24
ENDBRANCH  22  23
ENDBRANCH   6  22
TORSDOF 9
ENDMDL
MODEL      171
REMARK 921   NORMALIZED FREE ENERGY PREDICTED BY IDOCK:   -4.13 KCAL/MOL
REMARK 922        TOTAL FREE ENERGY PREDICTED BY IDOCK:   -7.44 KCAL/MOL
REMARK 923 INTER-LIGAND FREE ENERGY PREDICTED BY IDOCK:   -5.83 KCAL/MOL
REMARK 924 INTRA-LIGAND FREE ENERGY PREDICTED BY IDOCK:   -1.61 KCAL/MOL
REMARK 927      BINDING AFFINITY PREDICTED BY RF-SCORE:    0.00 PKD
ROOT
HETATM    1  C   UNL     1     -11.464  10.625  68.602  1.00  0.00    -0.263 C  
HETATM    2  C   UNL     1     -11.192  12.085  68.283  1.00  0.00    -0.315 C  
HETATM    3  C   UNL     1      -9.741  12.121  67.808  1.00  0.00    -0.197 C  
HETATM    4  O   UNL     1      -8.868  12.463  68.884  1.00  0.00    -0.374 OA 
HETATM    5  C   UNL     1      -9.400  10.700  67.312  1.00  0.00    -0.166 C  
HETATM    6  C   UNL     1     -10.207   8.231  70.844  1.00  0.00    -0.224 C  
HETATM    7  C   UNL     1     -10.648   9.832  67.599  1.00  0.00    -0.333 C  
HETATM    8  H   UNL     1      -7.965  12.486  68.589  1.00  0.00     0.000 HD 
HETATM    9  C   UNL     1     -10.352   8.549  68.350  1.00  0.00    -0.241 C  
HETATM   10  O   UNL     1     -10.988  10.275  69.903  1.00  0.00    -0.260 OA 
HETATM   11  C   UNL     1     -10.491   8.987  69.774  1.00  0.00    -0.218 C  
ENDROOT
BRANCH   5  12
HETATM   12  C   UNL     1      -9.088  10.668  65.831  1.00  0.00    -0.201 C  
HETATM   13  C   UNL     1      -9.980  10.310  64.893  1.00  0.00    -0.393 C  
BRANCH  13  14
HETATM   14  C   UNL     1      -9.738  10.402  63.413  1.00  0.00    -0.263 C  
HETATM   15  O   UNL     1      -9.995  11.742  63.015  1.00  0.00    -0.537 OA 
HETATM   16  H   UNL     1      -9.841  11.800  62.079  1.00  0.00     0.000 HD 
BRANCH  14  17
HETATM   17  C   UNL     1      -8.292  10.051  63.045  1.00  0.00    -0.166 C  
BRANCH  17  18
HETATM   18  C   UNL     1      -8.102   8.564  62.734  1.00  0.00    -0.176 C  
BRANCH  18  19
HETATM   19  C   UNL     1      -7.188   7.884  63.754  1.00  0.00    -0.092 C  
BRANCH  19  20
HETATM   20  C   UNL     1      -7.997   6.995  64.699  1.00  0.00    -0.114 C  
HETATM   21  C   UNL     1      -7.657   7.272  66.154  1.00  0.00    -0.088 C  
ENDBRANCH  19  20
ENDBRANCH  18  19
ENDBRANCH  17  18
ENDBRANCH  14  17
ENDBRANCH  13  14
ENDBRANCH   5  12
BRANCH   6  22
HETATM   22  C   UNL     1     -10.407   8.666  72.268  1.00  0.00    -0.376 C  
BRANCH  22  23
HETATM   23  C   UNL     1      -9.216   8.289  73.147  1.00  0.00    -0.293 C  
BRANCH  23  24
HETATM   24  C   UNL     1      -8.074   7.740  72.297  1.00  0.00    -0.141 C  
HETATM   25  C   UNL     1      -7.079   8.807  71.918  1.00  0.00    -0.030 C  
HETATM   26  O   UNL     1      -6.858   9.152  70.767  1.00  0.00    -0.068 OA 
HETATM   27  O   UNL     1      -6.413   9.331  72.971  1.00  0.00    -0.303 OA 
ENDBRANCH  23  24
ENDBRANCH  22  23
ENDBRANCH   6  22
TORSDOF 9
ENDMDL
MODEL      172
REMARK 921   NORMALIZED FREE ENERGY PREDICTED BY IDOCK:   -4.10 KCAL/MOL
REMARK 922        TOTAL FREE ENERGY PREDICTED BY IDOCK:   -7.40 KCAL/MOL
REMARK 923 INTER-LIGAND FREE ENERGY PREDICTED BY IDOCK:   -6.51 KCAL/MOL
REMARK 924 INTRA-LIGAND FREE ENERGY PREDICTED BY IDOCK:   -0.89 KCAL/MOL
REMARK 927      BINDING AFFINITY PREDICTED BY RF-SCORE:    0.00 PKD
ROOT
HETATM    1  C   UNL     1      -9.527  10.472  64.998  1.00  0.00    -0.244 C  
HETATM    2  C   UNL     1     -10.389  11.503  64.293  1.00  0.00    -0.376 C  
HETATM    3  C   UNL     1     -10.906  12.413  65.406  1.00  0.00    -0.285 C  
HETATM    4  O   UNL     1     -12.204  12.000  65.832  1.00  0.00    -0.531 OA 
HETATM    5  C   UNL     1      -9.920  12.276  66.585  1.00  0.00    -0.229 C  
HETATM    6  C   UNL     1     -10.012   7.973  67.419  1.00  0.00    -0.270 C  
HETATM    7  C   UNL     1      -8.887  11.205  66.162  1.00  0.00    -0.195 C  
HETATM    8  H   UNL     1     -12.525  12.566  66.523  1.00  0.00     0.000 HD 
HETATM    9  C   UNL     1      -8.686  10.101  67.181  1.00  0.00    -0.131 C  
HETATM   10  O   UNL     1     -10.317   9.415  65.549  1.00  0.00     0.033 OA 
HETATM   11  C   UNL     1      -9.708   9.095  66.752  1.00  0.00    -0.210 C  
ENDROOT
BRANCH   5  12
HETATM   12  C   UNL     1      -9.206  13.576  66.892  1.00  0.00    -0.254 C  
HETATM   13  C   UNL     1      -9.628  14.774  66.454  1.00  0.00    -0.324 C  
BRANCH  13  14
HETATM   14  C   UNL     1      -9.018  16.087  66.859  1.00  0.00    -0.227 C  
HETATM   15  O   UNL     1      -7.822  16.258  66.110  1.00  0.00    -0.213 OA 
HETATM   16  H   UNL     1      -7.437  17.088  66.366  1.00  0.00     0.000 HD 
BRANCH  14  17
HETATM   17  C   UNL     1      -9.951  17.268  66.567  1.00  0.00    -0.310 C  
BRANCH  17  18
HETATM   18  C   UNL     1     -10.644  17.803  67.823  1.00  0.00    -0.392 C  
BRANCH  18  19
HETATM   19  C   UNL     1     -10.302  16.968  69.058  1.00  0.00    -0.330 C  
BRANCH  19  20
HETATM   20  C   UNL     1     -11.503  16.127  69.492  1.00  0.00    -0.292 C  
HETATM   21  C   UNL     1     -11.533  15.932  70.999  1.00  0.00    -0.461 C  
ENDBRANCH  19  20
ENDBRANCH  18  19
ENDBRANCH  17  18
ENDBRANCH  14  17
ENDBRANCH  13  14
ENDBRANCH   5  12
BRANCH   6  22
HETATM   22  C   UNL     1     -11.000   6.946  66.945  1.00  0.00    -0.328 C  
BRANCH  22  23
HETATM   23  C   UNL     1     -10.397   5.542  66.937  1.00  0.00    -0.315 C  
BRANCH  23  24
HETATM   24  C   UNL     1      -9.212   5.472  65.979  1.00  0.00    -0.168 C  
HETATM   25  C   UNL     1      -9.183   4.183  65.199  1.00  0.00    -0.153 C  
HETATM   26  O   UNL     1      -8.286   3.359  65.282  1.00  0.00    -0.096 OA 
HETATM   27  O   UNL     1     -10.229   4.033  64.356  1.00  0.00    -0.210 OA 
ENDBRANCH  23  24
ENDBRANCH  22  23
ENDBRANCH   6  22
TORSDOF 9
ENDMDL
MODEL      173
REMARK 921   NORMALIZED FREE ENERGY PREDICTED BY IDOCK:   -4.08 KCAL/MOL
REMARK 922        TOTAL FREE ENERGY PREDICTED BY IDOCK:   -7.38 KCAL/MOL
REMARK 923 INTER-LIGAND FREE ENERGY PREDICTED BY IDOCK:   -6.56 KCAL/MOL
REMARK 924 INTRA-LIGAND FREE ENERGY PREDICTED BY IDOCK:   -0.82 KCAL/MOL
REMARK 927      BINDING AFFINITY PREDICTED BY RF-SCORE:    0.00 PKD
ROOT
HETATM    1  C   UNL     1      -9.308  11.989  66.564  1.00  0.00    -0.223 C  
HETATM    2  C   UNL     1      -7.881  11.584  66.886  1.00  0.00    -0.163 C  
HETATM    3  C   UNL     1      -7.948  10.977  68.286  1.00  0.00    -0.124 C  
HETATM    4  O   UNL     1      -7.618  11.953  69.273  1.00  0.00    -0.331 OA 
HETATM    5  C   UNL     1      -9.404  10.514  68.500  1.00  0.00    -0.168 C  
HETATM    6  C   UNL     1     -11.684  14.210  67.892  1.00  0.00    -0.402 C  
HETATM    7  C   UNL     1     -10.186  10.952  67.238  1.00  0.00    -0.242 C  
HETATM    8  H   UNL     1      -7.659  11.576  70.144  1.00  0.00     0.000 HD 
HETATM    9  C   UNL     1     -11.454  11.727  67.532  1.00  0.00    -0.373 C  
HETATM   10  O   UNL     1      -9.636  13.256  67.140  1.00  0.00    -0.225 OA 
HETATM   11  C   UNL     1     -10.955  13.139  67.551  1.00  0.00    -0.263 C  
ENDROOT
BRANCH   5  12
HETATM   12  C   UNL     1      -9.512   9.014  68.670  1.00  0.00    -0.149 C  
HETATM   13  C   UNL     1     -10.324   8.426  69.564  1.00  0.00    -0.219 C  
BRANCH  13  14
HETATM   14  C   UNL     1     -10.551   6.943  69.657  1.00  0.00    -0.231 C  
HETATM   15  O   UNL     1     -11.940   6.705  69.472  1.00  0.00    -0.642 OA 
HETATM   16  H   UNL     1     -12.083   5.768  69.530  1.00  0.00     0.000 HD 
BRANCH  14  17
HETATM   17  C   UNL     1      -9.776   6.175  68.580  1.00  0.00    -0.145 C  
BRANCH  17  18
HETATM   18  C   UNL     1      -8.566   5.423  69.142  1.00  0.00    -0.102 C  
BRANCH  18  19
HETATM   19  C   UNL     1      -7.920   4.521  68.089  1.00  0.00    -0.080 C  
BRANCH  19  20
HETATM   20  C   UNL     1      -7.055   3.449  68.752  1.00  0.00    -0.049 C  
HETATM   21  C   UNL     1      -6.243   2.674  67.727  1.00  0.00    -0.031 C  
ENDBRANCH  19  20
ENDBRANCH  18  19
ENDBRANCH  17  18
ENDBRANCH  14  17
ENDBRANCH  13  14
ENDBRANCH   5  12
BRANCH   6  22
HETATM   22  C   UNL     1     -11.184  15.625  67.850  1.00  0.00    -0.328 C  
BRANCH  22  23
HETATM   23  C   UNL     1     -11.470  16.365  69.155  1.00  0.00    -0.188 C  
BRANCH  23  24
HETATM   24  C   UNL     1     -11.367  15.415  70.344  1.00  0.00    -0.350 C  
HETATM   25  C   UNL     1     -12.302  15.795  71.463  1.00  0.00    -0.455 C  
HETATM   26  O   UNL     1     -11.928  16.133  72.576  1.00  0.00    -0.494 OA 
HETATM   27  O   UNL     1     -13.610  15.692  71.140  1.00  0.00    -0.582 OA 
ENDBRANCH  23  24
ENDBRANCH  22  23
ENDBRANCH   6  22
TORSDOF 9
ENDMDL
MODEL      174
REMARK 921   NORMALIZED FREE ENERGY PREDICTED BY IDOCK:   -4.08 KCAL/MOL
REMARK 922        TOTAL FREE ENERGY PREDICTED BY IDOCK:   -7.38 KCAL/MOL
REMARK 923 INTER-LIGAND FREE ENERGY PREDICTED BY IDOCK:   -6.04 KCAL/MOL
REMARK 924 INTRA-LIGAND FREE ENERGY PREDICTED BY IDOCK:   -1.34 KCAL/MOL
REMARK 927      BINDING AFFINITY PREDICTED BY RF-SCORE:    0.00 PKD
ROOT
HETATM    1  C   UNL     1      -7.564  15.508  67.182  1.00  0.00    -0.218 C  
HETATM    2  C   UNL     1      -6.342  14.845  67.791  1.00  0.00    -0.174 C  
HETATM    3  C   UNL     1      -6.898  13.776  68.729  1.00  0.00    -0.106 C  
HETATM    4  O   UNL     1      -6.974  14.270  70.066  1.00  0.00    -0.365 OA 
HETATM    5  C   UNL     1      -8.321  13.445  68.231  1.00  0.00    -0.160 C  
HETATM    6  C   UNL     1     -10.316  17.347  68.361  1.00  0.00    -0.379 C  
HETATM    7  C   UNL     1      -8.600  14.408  67.054  1.00  0.00    -0.226 C  
HETATM    8  H   UNL     1      -7.319  13.605  70.650  1.00  0.00     0.000 HD 
HETATM    9  C   UNL     1      -9.908  15.166  67.169  1.00  0.00    -0.228 C  
HETATM   10  O   UNL     1      -8.111  16.501  68.054  1.00  0.00    -0.161 OA 
HETATM   11  C   UNL     1      -9.485  16.399  67.905  1.00  0.00    -0.223 C  
ENDROOT
BRANCH   5  12
HETATM   12  C   UNL     1      -8.445  12.012  67.757  1.00  0.00    -0.157 C  
HETATM   13  C   UNL     1      -8.867  11.672  66.528  1.00  0.00    -0.188 C  
BRANCH  13  14
HETATM   14  C   UNL     1      -8.867  10.269  65.990  1.00  0.00    -0.149 C  
HETATM   15  O   UNL     1      -9.691  10.250  64.832  1.00  0.00    -0.273 OA 
HETATM   16  H   UNL     1      -9.691   9.363  64.491  1.00  0.00     0.000 HD 
BRANCH  14  17
HETATM   17  C   UNL     1      -7.460   9.805  65.596  1.00  0.00    -0.110 C  
BRANCH  17  18
HETATM   18  C   UNL     1      -6.879   8.777  66.571  1.00  0.00    -0.072 C  
BRANCH  18  19
HETATM   19  C   UNL     1      -7.816   7.584  66.762  1.00  0.00    -0.110 C  
BRANCH  19  20
HETATM   20  C   UNL     1      -7.919   7.206  68.240  1.00  0.00    -0.123 C  
HETATM   21  C   UNL     1      -7.956   8.438  69.130  1.00  0.00    -0.110 C  
ENDBRANCH  19  20
ENDBRANCH  18  19
ENDBRANCH  17  18
ENDBRANCH  14  17
ENDBRANCH  13  14
ENDBRANCH   5  12
BRANCH   6  22
HETATM   22  C   UNL     1      -9.870  18.607  69.047  1.00  0.00    -0.330 C  
BRANCH  22  23
HETATM   23  C   UNL     1     -10.369  19.853  68.319  1.00  0.00    -0.526 C  
BRANCH  23  24
HETATM   24  C   UNL     1      -9.277  20.423  67.419  1.00  0.00    -0.513 C  
HETATM   25  C   UNL     1      -9.099  19.619  66.157  1.00  0.00    -0.332 C  
HETATM   26  O   UNL     1      -8.072  19.023  65.869  1.00  0.00    -0.458 OA 
HETATM   27  O   UNL     1     -10.174  19.646  65.338  1.00  0.00    -0.348 OA 
ENDBRANCH  23  24
ENDBRANCH  22  23
ENDBRANCH   6  22
TORSDOF 9
ENDMDL
MODEL      175
REMARK 921   NORMALIZED FREE ENERGY PREDICTED BY IDOCK:   -4.07 KCAL/MOL
REMARK 922        TOTAL FREE ENERGY PREDICTED BY IDOCK:   -7.35 KCAL/MOL
REMARK 923 INTER-LIGAND FREE ENERGY PREDICTED BY IDOCK:   -6.77 KCAL/MOL
REMARK 924 INTRA-LIGAND FREE ENERGY PREDICTED BY IDOCK:   -0.58 KCAL/MOL
REMARK 927      BINDING AFFINITY PREDICTED BY RF-SCORE:    0.00 PKD
ROOT
HETATM    1  C   UNL     1     -11.555  11.823  67.248  1.00  0.00    -0.269 C  
HETATM    2  C   UNL     1     -10.507  12.384  66.303  1.00  0.00    -0.271 C  
HETATM    3  C   UNL     1      -9.170  11.913  66.870  1.00  0.00    -0.193 C  
HETATM    4  O   UNL     1      -8.591  12.923  67.696  1.00  0.00    -0.159 OA 
HETATM    5  C   UNL     1      -9.467  10.666  67.730  1.00  0.00    -0.165 C  
HETATM    6  C   UNL     1     -12.371  12.180  70.646  1.00  0.00    -0.385 C  
HETATM    7  C   UNL     1     -11.004  10.490  67.719  1.00  0.00    -0.372 C  
HETATM    8  H   UNL     1      -7.759  12.630  68.049  1.00  0.00     0.000 HD 
HETATM    9  C   UNL     1     -11.622  10.342  69.095  1.00  0.00    -0.166 C  
HETATM   10  O   UNL     1     -11.712  12.646  68.406  1.00  0.00    -0.298 OA 
HETATM   11  C   UNL     1     -11.919  11.764  69.454  1.00  0.00    -0.298 C  
ENDROOT
BRANCH   5  12
HETATM   12  C   UNL     1      -8.809   9.418  67.180  1.00  0.00    -0.138 C  
HETATM   13  C   UNL     1      -8.175   8.516  67.947  1.00  0.00    -0.119 C  
BRANCH  13  14
HETATM   14  C   UNL     1      -7.636   7.206  67.444  1.00  0.00    -0.109 C  
HETATM   15  O   UNL     1      -6.540   6.842  68.273  1.00  0.00    -0.056 OA 
HETATM   16  H   UNL     1      -6.200   6.014  67.955  1.00  0.00     0.000 HD 
BRANCH  14  17
HETATM   17  C   UNL     1      -8.687   6.091  67.506  1.00  0.00    -0.107 C  
BRANCH  17  18
HETATM   18  C   UNL     1      -8.296   4.859  66.686  1.00  0.00    -0.107 C  
BRANCH  18  19
HETATM   19  C   UNL     1      -8.868   4.916  65.269  1.00  0.00    -0.152 C  
BRANCH  19  20
HETATM   20  C   UNL     1      -7.786   4.607  64.234  1.00  0.00    -0.078 C  
HETATM   21  C   UNL     1      -6.676   3.753  64.824  1.00  0.00    -0.048 C  
ENDBRANCH  19  20
ENDBRANCH  18  19
ENDBRANCH  17  18
ENDBRANCH  14  17
ENDBRANCH  13  14
ENDBRANCH   5  12
BRANCH   6  22
HETATM   22  C   UNL     1     -12.719  13.604  70.972  1.00  0.00    -0.408 C  
BRANCH  22  23
HETATM   23  C   UNL     1     -13.342  13.730  72.361  1.00  0.00    -0.635 C  
BRANCH  23  24
HETATM   24  C   UNL     1     -13.901  15.134  72.573  1.00  0.00    -0.602 C  
HETATM   25  C   UNL     1     -12.899  16.056  73.219  1.00  0.00    -0.543 C  
HETATM   26  O   UNL     1     -13.056  16.570  74.316  1.00  0.00    -0.588 OA 
HETATM   27  O   UNL     1     -11.814  16.304  72.453  1.00  0.00    -0.509 OA 
ENDBRANCH  23  24
ENDBRANCH  22  23
ENDBRANCH   6  22
TORSDOF 9
ENDMDL
MODEL      176
REMARK 921   NORMALIZED FREE ENERGY PREDICTED BY IDOCK:   -4.06 KCAL/MOL
REMARK 922        TOTAL FREE ENERGY PREDICTED BY IDOCK:   -7.34 KCAL/MOL
REMARK 923 INTER-LIGAND FREE ENERGY PREDICTED BY IDOCK:   -6.27 KCAL/MOL
REMARK 924 INTRA-LIGAND FREE ENERGY PREDICTED BY IDOCK:   -1.08 KCAL/MOL
REMARK 927      BINDING AFFINITY PREDICTED BY RF-SCORE:    0.00 PKD
ROOT
HETATM    1  C   UNL     1      -8.740   8.998  68.115  1.00  0.00    -0.130 C  
HETATM    2  C   UNL     1      -7.808  10.111  67.669  1.00  0.00    -0.098 C  
HETATM    3  C   UNL     1      -8.141  10.339  66.196  1.00  0.00    -0.133 C  
HETATM    4  O   UNL     1      -7.245   9.608  65.359  1.00  0.00    -0.095 OA 
HETATM    5  C   UNL     1      -9.576   9.817  65.979  1.00  0.00    -0.296 C  
HETATM    6  C   UNL     1      -9.280   5.634  67.260  1.00  0.00    -0.110 C  
HETATM    7  C   UNL     1     -10.021   9.203  67.328  1.00  0.00    -0.270 C  
HETATM    8  H   UNL     1      -7.452   9.750  64.443  1.00  0.00     0.000 HD 
HETATM    9  C   UNL     1     -10.572   7.796  67.217  1.00  0.00    -0.376 C  
HETATM   10  O   UNL     1      -8.229   7.712  67.759  1.00  0.00    -0.117 OA 
HETATM   11  C   UNL     1      -9.339   6.966  67.396  1.00  0.00    -0.131 C  
ENDROOT
BRANCH   5  12
HETATM   12  C   UNL     1     -10.535  10.919  65.582  1.00  0.00    -0.274 C  
HETATM   13  C   UNL     1     -10.674  11.362  64.321  1.00  0.00    -0.420 C  
BRANCH  13  14
HETATM   14  C   UNL     1     -11.713  12.354  63.881  1.00  0.00    -0.447 C  
HETATM   15  O   UNL     1     -12.551  11.711  62.930  1.00  0.00    -0.914 OA 
HETATM   16  H   UNL     1     -13.208  12.337  62.652  1.00  0.00     0.000 HD 
BRANCH  14  17
HETATM   17  C   UNL     1     -12.581  12.835  65.050  1.00  0.00    -0.538 C  
BRANCH  17  18
HETATM   18  C   UNL     1     -12.287  14.282  65.452  1.00  0.00    -0.421 C  
BRANCH  18  19
HETATM   19  C   UNL     1     -11.179  14.366  66.502  1.00  0.00    -0.340 C  
BRANCH  19  20
HETATM   20  C   UNL     1      -9.999  15.186  65.981  1.00  0.00    -0.335 C  
HETATM   21  C   UNL     1     -10.448  16.540  65.459  1.00  0.00    -0.320 C  
ENDBRANCH  19  20
ENDBRANCH  18  19
ENDBRANCH  17  18
ENDBRANCH  14  17
ENDBRANCH  13  14
ENDBRANCH   5  12
BRANCH   6  22
HETATM   22  C   UNL     1      -8.047   4.811  67.499  1.00  0.00    -0.101 C  
BRANCH  22  23
HETATM   23  C   UNL     1      -8.240   3.362  67.056  1.00  0.00    -0.091 C  
BRANCH  23  24
HETATM   24  C   UNL     1      -7.295   3.021  65.908  1.00  0.00    -0.072 C  
HETATM   25  C   UNL     1      -8.029   2.798  64.611  1.00  0.00    -0.078 C  
HETATM   26  O   UNL     1      -8.040   1.735  64.010  1.00  0.00    -0.064 OA 
HETATM   27  O   UNL     1      -8.649   3.902  64.139  1.00  0.00    -0.094 OA 
ENDBRANCH  23  24
ENDBRANCH  22  23
ENDBRANCH   6  22
TORSDOF 9
ENDMDL
MODEL      177
REMARK 921   NORMALIZED FREE ENERGY PREDICTED BY IDOCK:   -4.05 KCAL/MOL
REMARK 922        TOTAL FREE ENERGY PREDICTED BY IDOCK:   -7.33 KCAL/MOL
REMARK 923 INTER-LIGAND FREE ENERGY PREDICTED BY IDOCK:   -6.24 KCAL/MOL
REMARK 924 INTRA-LIGAND FREE ENERGY PREDICTED BY IDOCK:   -1.09 KCAL/MOL
REMARK 927      BINDING AFFINITY PREDICTED BY RF-SCORE:    0.00 PKD
ROOT
HETATM    1  C   UNL     1      -9.585  10.239  67.299  1.00  0.00    -0.159 C  
HETATM    2  C   UNL     1     -10.880  10.688  66.645  1.00  0.00    -0.197 C  
HETATM    3  C   UNL     1     -11.512  11.655  67.643  1.00  0.00    -0.303 C  
HETATM    4  O   UNL     1     -12.465  10.979  68.463  1.00  0.00    -0.713 OA 
HETATM    5  C   UNL     1     -10.369  12.188  68.531  1.00  0.00    -0.233 C  
HETATM    6  C   UNL     1      -8.674   8.513  70.220  1.00  0.00    -0.144 C  
HETATM    7  C   UNL     1      -9.091  11.438  68.085  1.00  0.00    -0.174 C  
HETATM    8  H   UNL     1     -12.859  11.580  69.084  1.00  0.00     0.000 HD 
HETATM    9  C   UNL     1      -8.318  10.798  69.221  1.00  0.00    -0.072 C  
HETATM   10  O   UNL     1      -9.810   9.184  68.238  1.00  0.00    -0.152 OA 
HETATM   11  C   UNL     1      -8.936   9.436  69.284  1.00  0.00    -0.154 C  
ENDROOT
BRANCH   5  12
HETATM   12  C   UNL     1     -10.165  13.680  68.373  1.00  0.00    -0.245 C  
HETATM   13  C   UNL     1     -10.834  14.429  67.481  1.00  0.00    -0.285 C  
BRANCH  13  14
HETATM   14  C   UNL     1     -10.751  15.927  67.400  1.00  0.00    -0.313 C  
HETATM   15  O   UNL     1     -10.654  16.427  68.727  1.00  0.00    -0.270 OA 
HETATM   16  H   UNL     1     -10.601  17.374  68.675  1.00  0.00     0.000 HD 
BRANCH  14  17
HETATM   17  C   UNL     1      -9.521  16.392  66.611  1.00  0.00    -0.277 C  
BRANCH  17  18
HETATM   18  C   UNL     1      -8.407  16.931  67.511  1.00  0.00    -0.201 C  
BRANCH  18  19
HETATM   19  C   UNL     1      -7.393  15.845  67.872  1.00  0.00    -0.148 C  
BRANCH  19  20
HETATM   20  C   UNL     1      -7.269  15.702  69.389  1.00  0.00    -0.212 C  
HETATM   21  C   UNL     1      -6.695  14.350  69.778  1.00  0.00    -0.124 C  
ENDBRANCH  19  20
ENDBRANCH  18  19
ENDBRANCH  17  18
ENDBRANCH  14  17
ENDBRANCH  13  14
ENDBRANCH   5  12
BRANCH   6  22
HETATM   22  C   UNL     1      -9.259   7.130  70.236  1.00  0.00    -0.156 C  
BRANCH  22  23
HETATM   23  C   UNL     1     -10.770   7.154  70.012  1.00  0.00    -0.268 C  
BRANCH  23  24
HETATM   24  C   UNL     1     -11.507   6.729  71.278  1.00  0.00    -0.347 C  
HETATM   25  C   UNL     1     -11.377   7.746  72.383  1.00  0.00    -0.346 C  
HETATM   26  O   UNL     1     -10.827   7.522  73.451  1.00  0.00    -0.394 OA 
HETATM   27  O   UNL     1     -11.964   8.931  72.106  1.00  0.00    -0.357 OA 
ENDBRANCH  23  24
ENDBRANCH  22  23
ENDBRANCH   6  22
TORSDOF 9
ENDMDL
MODEL      178
REMARK 921   NORMALIZED FREE ENERGY PREDICTED BY IDOCK:   -4.03 KCAL/MOL
REMARK 922        TOTAL FREE ENERGY PREDICTED BY IDOCK:   -7.29 KCAL/MOL
REMARK 923 INTER-LIGAND FREE ENERGY PREDICTED BY IDOCK:   -5.83 KCAL/MOL
REMARK 924 INTRA-LIGAND FREE ENERGY PREDICTED BY IDOCK:   -1.47 KCAL/MOL
REMARK 927      BINDING AFFINITY PREDICTED BY RF-SCORE:    0.00 PKD
ROOT
HETATM    1  C   UNL     1     -11.514  10.762  67.826  1.00  0.00    -0.202 C  
HETATM    2  C   UNL     1     -11.300  12.225  67.480  1.00  0.00    -0.388 C  
HETATM    3  C   UNL     1      -9.792  12.368  67.282  1.00  0.00    -0.207 C  
HETATM    4  O   UNL     1      -9.170  12.830  68.481  1.00  0.00    -0.336 OA 
HETATM    5  C   UNL     1      -9.253  10.963  66.942  1.00  0.00    -0.175 C  
HETATM    6  C   UNL     1     -10.525   8.584  70.399  1.00  0.00    -0.227 C  
HETATM    7  C   UNL     1     -10.462  10.002  67.041  1.00  0.00    -0.302 C  
HETATM    8  H   UNL     1      -8.232  12.919  68.358  1.00  0.00     0.000 HD 
HETATM    9  C   UNL     1     -10.216   8.783  67.907  1.00  0.00    -0.272 C  
HETATM   10  O   UNL     1     -11.269  10.510  69.211  1.00  0.00    -0.231 OA 
HETATM   11  C   UNL     1     -10.658   9.266  69.252  1.00  0.00    -0.222 C  
ENDROOT
BRANCH   5  12
HETATM   12  C   UNL     1      -8.662  10.895  65.549  1.00  0.00    -0.178 C  
HETATM   13  C   UNL     1      -7.489  10.304  65.270  1.00  0.00    -0.141 C  
BRANCH  13  14
HETATM   14  C   UNL     1      -6.950  10.103  63.882  1.00  0.00    -0.103 C  
HETATM   15  O   UNL     1      -5.742  10.844  63.775  1.00  0.00    -0.369 OA 
HETATM   16  H   UNL     1      -5.402  10.717  62.897  1.00  0.00     0.000 HD 
BRANCH  14  17
HETATM   17  C   UNL     1      -6.647   8.629  63.591  1.00  0.00    -0.088 C  
BRANCH  17  18
HETATM   18  C   UNL     1      -7.902   7.753  63.589  1.00  0.00    -0.128 C  
BRANCH  18  19
HETATM   19  C   UNL     1      -7.696   6.463  64.384  1.00  0.00    -0.108 C  
BRANCH  19  20
HETATM   20  C   UNL     1      -8.205   6.621  65.817  1.00  0.00    -0.135 C  
HETATM   21  C   UNL     1      -7.063   6.834  66.796  1.00  0.00    -0.072 C  
ENDBRANCH  19  20
ENDBRANCH  18  19
ENDBRANCH  17  18
ENDBRANCH  14  17
ENDBRANCH  13  14
ENDBRANCH   5  12
BRANCH   6  22
HETATM   22  C   UNL     1     -11.027   9.060  71.732  1.00  0.00    -0.443 C  
BRANCH  22  23
HETATM   23  C   UNL     1     -11.786   7.962  72.474  1.00  0.00    -0.390 C  
BRANCH  23  24
HETATM   24  C   UNL     1     -10.829   7.116  73.309  1.00  0.00    -0.378 C  
HETATM   25  C   UNL     1     -11.001   5.640  73.056  1.00  0.00    -0.284 C  
HETATM   26  O   UNL     1     -11.361   4.842  73.908  1.00  0.00    -0.227 OA 
HETATM   27  O   UNL     1     -10.680   5.262  71.799  1.00  0.00    -0.223 OA 
ENDBRANCH  23  24
ENDBRANCH  22  23
ENDBRANCH   6  22
TORSDOF 9
ENDMDL
MODEL      179
REMARK 921   NORMALIZED FREE ENERGY PREDICTED BY IDOCK:   -4.02 KCAL/MOL
REMARK 922        TOTAL FREE ENERGY PREDICTED BY IDOCK:   -7.29 KCAL/MOL
REMARK 923 INTER-LIGAND FREE ENERGY PREDICTED BY IDOCK:   -6.29 KCAL/MOL
REMARK 924 INTRA-LIGAND FREE ENERGY PREDICTED BY IDOCK:   -1.00 KCAL/MOL
REMARK 927      BINDING AFFINITY PREDICTED BY RF-SCORE:    0.00 PKD
ROOT
HETATM    1  C   UNL     1     -10.850  14.128  68.128  1.00  0.00    -0.248 C  
HETATM    2  C   UNL     1     -11.983  13.118  68.151  1.00  0.00    -0.333 C  
HETATM    3  C   UNL     1     -11.697  12.176  66.984  1.00  0.00    -0.303 C  
HETATM    4  O   UNL     1     -12.426  12.577  65.824  1.00  0.00    -0.626 OA 
HETATM    5  C   UNL     1     -10.186  12.278  66.691  1.00  0.00    -0.235 C  
HETATM    6  C   UNL     1      -9.649  16.555  65.889  1.00  0.00    -0.284 C  
HETATM    7  C   UNL     1      -9.633  13.361  67.647  1.00  0.00    -0.219 C  
HETATM    8  H   UNL     1     -12.249  11.991  65.098  1.00  0.00     0.000 HD 
HETATM    9  C   UNL     1      -8.812  14.434  66.960  1.00  0.00    -0.256 C  
HETATM   10  O   UNL     1     -11.094  15.168  67.177  1.00  0.00    -0.329 OA 
HETATM   11  C   UNL     1      -9.856  15.452  66.623  1.00  0.00    -0.255 C  
ENDROOT
BRANCH   5  12
HETATM   12  C   UNL     1      -9.464  10.969  66.934  1.00  0.00    -0.197 C  
HETATM   13  C   UNL     1      -8.541  10.799  67.895  1.00  0.00    -0.125 C  
BRANCH  13  14
HETATM   14  C   UNL     1      -7.915   9.478  68.244  1.00  0.00    -0.094 C  
HETATM   15  O   UNL     1      -6.601   9.736  68.723  1.00  0.00    -0.046 OA 
HETATM   16  H   UNL     1      -6.205   8.901  68.944  1.00  0.00     0.000 HD 
BRANCH  14  17
HETATM   17  C   UNL     1      -8.698   8.741  69.336  1.00  0.00    -0.142 C  
BRANCH  17  18
HETATM   18  C   UNL     1      -8.357   7.251  69.409  1.00  0.00    -0.133 C  
BRANCH  18  19
HETATM   19  C   UNL     1      -9.149   6.437  68.384  1.00  0.00    -0.118 C  
BRANCH  19  20
HETATM   20  C   UNL     1      -8.283   6.106  67.168  1.00  0.00    -0.106 C  
HETATM   21  C   UNL     1      -6.849   5.803  67.569  1.00  0.00    -0.060 C  
ENDBRANCH  19  20
ENDBRANCH  18  19
ENDBRANCH  17  18
ENDBRANCH  14  17
ENDBRANCH  13  14
ENDBRANCH   5  12
BRANCH   6  22
HETATM   22  C   UNL     1     -10.694  17.596  65.608  1.00  0.00    -0.084 C  
BRANCH  22  23
HETATM   23  C   UNL     1     -10.226  18.992  66.015  1.00  0.00    -0.462 C  
BRANCH  23  24
HETATM   24  C   UNL     1     -10.691  19.323  67.430  1.00  0.00    -0.594 C  
HETATM   25  C   UNL     1      -9.873  18.618  68.481  1.00  0.00    -0.386 C  
HETATM   26  O   UNL     1     -10.330  17.795  69.259  1.00  0.00    -0.318 OA 
HETATM   27  O   UNL     1      -8.580  19.009  68.517  1.00  0.00    -0.336 OA 
ENDBRANCH  23  24
ENDBRANCH  22  23
ENDBRANCH   6  22
TORSDOF 9
ENDMDL
MODEL      180
REMARK 921   NORMALIZED FREE ENERGY PREDICTED BY IDOCK:   -3.99 KCAL/MOL
REMARK 922        TOTAL FREE ENERGY PREDICTED BY IDOCK:   -7.23 KCAL/MOL
REMARK 923 INTER-LIGAND FREE ENERGY PREDICTED BY IDOCK:   -6.34 KCAL/MOL
REMARK 924 INTRA-LIGAND FREE ENERGY PREDICTED BY IDOCK:   -0.90 KCAL/MOL
REMARK 927      BINDING AFFINITY PREDICTED BY RF-SCORE:    0.00 PKD
ROOT
HETATM    1  C   UNL     1      -9.148  10.753  65.677  1.00  0.00    -0.194 C  
HETATM    2  C   UNL     1      -9.254  11.537  64.381  1.00  0.00     0.074 C  
HETATM    3  C   UNL     1     -10.736  11.875  64.243  1.00  0.00    -0.338 C  
HETATM    4  O   UNL     1     -11.395  10.917  63.414  1.00  0.00    -0.477 OA 
HETATM    5  C   UNL     1     -11.340  11.814  65.662  1.00  0.00    -0.293 C  
HETATM    6  C   UNL     1     -10.407   7.722  66.928  1.00  0.00    -0.396 C  
HETATM    7  C   UNL     1     -10.200  11.346  66.596  1.00  0.00    -0.258 C  
HETATM    8  H   UNL     1     -12.317  11.127  63.327  1.00  0.00     0.000 HD 
HETATM    9  C   UNL     1     -10.567  10.174  67.483  1.00  0.00    -0.327 C  
HETATM   10  O   UNL     1      -9.484   9.377  65.487  1.00  0.00    -0.245 OA 
HETATM   11  C   UNL     1     -10.170   9.007  66.633  1.00  0.00    -0.263 C  
ENDROOT
BRANCH   5  12
HETATM   12  C   UNL     1     -11.856  13.160  66.125  1.00  0.00    -0.453 C  
HETATM   13  C   UNL     1     -11.380  13.806  67.202  1.00  0.00    -0.344 C  
BRANCH  13  14
HETATM   14  C   UNL     1     -11.779  15.199  67.600  1.00  0.00    -0.216 C  
HETATM   15  O   UNL     1     -12.291  15.142  68.925  1.00  0.00    -0.589 OA 
HETATM   16  H   UNL     1     -12.542  16.022  69.176  1.00  0.00     0.000 HD 
BRANCH  14  17
HETATM   17  C   UNL     1     -10.589  16.165  67.578  1.00  0.00    -0.314 C  
BRANCH  17  18
HETATM   18  C   UNL     1      -9.639  15.911  66.404  1.00  0.00    -0.313 C  
BRANCH  18  19
HETATM   19  C   UNL     1      -8.227  15.570  66.880  1.00  0.00    -0.287 C  
BRANCH  19  20
HETATM   20  C   UNL     1      -7.593  16.762  67.597  1.00  0.00    -0.183 C  
HETATM   21  C   UNL     1      -6.231  17.104  67.015  1.00  0.00    -0.212 C  
ENDBRANCH  19  20
ENDBRANCH  18  19
ENDBRANCH  17  18
ENDBRANCH  14  17
ENDBRANCH  13  14
ENDBRANCH   5  12
BRANCH   6  22
HETATM   22  C   UNL     1      -9.952   6.561  66.092  1.00  0.00     0.111 C  
BRANCH  22  23
HETATM   23  C   UNL     1      -9.059   5.608  66.884  1.00  0.00    -0.116 C  
BRANCH  23  24
HETATM   24  C   UNL     1      -9.887   4.485  67.502  1.00  0.00    -0.191 C  
HETATM   25  C   UNL     1      -9.954   4.583  69.004  1.00  0.00    -0.081 C  
HETATM   26  O   UNL     1      -9.501   3.739  69.761  1.00  0.00    -0.162 OA 
HETATM   27  O   UNL     1     -10.602   5.682  69.450  1.00  0.00    -0.272 OA 
ENDBRANCH  23  24
ENDBRANCH  22  23
ENDBRANCH   6  22
TORSDOF 9
ENDMDL
MODEL      181
REMARK 921   NORMALIZED FREE ENERGY PREDICTED BY IDOCK:   -3.99 KCAL/MOL
REMARK 922        TOTAL FREE ENERGY PREDICTED BY IDOCK:   -7.23 KCAL/MOL
REMARK 923 INTER-LIGAND FREE ENERGY PREDICTED BY IDOCK:   -7.06 KCAL/MOL
REMARK 924 INTRA-LIGAND FREE ENERGY PREDICTED BY IDOCK:   -0.18 KCAL/MOL
REMARK 927      BINDING AFFINITY PREDICTED BY RF-SCORE:    0.00 PKD
ROOT
HETATM    1  C   UNL     1     -10.398  10.742  65.879  1.00  0.00    -0.238 C  
HETATM    2  C   UNL     1      -9.316  10.188  64.970  1.00  0.00    -0.299 C  
HETATM    3  C   UNL     1      -8.112   9.960  65.882  1.00  0.00    -0.121 C  
HETATM    4  O   UNL     1      -7.223  11.075  65.829  1.00  0.00    -0.339 OA 
HETATM    5  C   UNL     1      -8.663   9.819  67.316  1.00  0.00    -0.135 C  
HETATM    6  C   UNL     1     -10.823  13.592  67.888  1.00  0.00    -0.262 C  
HETATM    7  C   UNL     1     -10.187  10.065  67.219  1.00  0.00    -0.275 C  
HETATM    8  H   UNL     1      -6.474  10.932  66.396  1.00  0.00     0.000 HD 
HETATM    9  C   UNL     1     -10.713  11.094  68.200  1.00  0.00    -0.244 C  
HETATM   10  O   UNL     1     -10.240  12.147  66.087  1.00  0.00    -0.218 OA 
HETATM   11  C   UNL     1     -10.592  12.361  67.411  1.00  0.00    -0.216 C  
ENDROOT
BRANCH   5  12
HETATM   12  C   UNL     1      -8.405   8.446  67.900  1.00  0.00    -0.131 C  
HETATM   13  C   UNL     1      -8.119   8.233  69.195  1.00  0.00    -0.120 C  
BRANCH  13  14
HETATM   14  C   UNL     1      -7.997   6.873  69.823  1.00  0.00    -0.124 C  
HETATM   15  O   UNL     1      -7.334   7.030  71.071  1.00  0.00    -0.074 OA 
HETATM   16  H   UNL     1      -7.257   6.171  71.468  1.00  0.00     0.000 HD 
BRANCH  14  17
HETATM   17  C   UNL     1      -9.366   6.231  70.073  1.00  0.00    -0.164 C  
BRANCH  17  18
HETATM   18  C   UNL     1      -9.827   6.362  71.527  1.00  0.00    -0.186 C  
BRANCH  18  19
HETATM   19  C   UNL     1     -11.207   7.014  71.627  1.00  0.00    -0.276 C  
BRANCH  19  20
HETATM   20  C   UNL     1     -11.097   8.430  72.193  1.00  0.00    -0.415 C  
HETATM   21  C   UNL     1     -11.891   9.426  71.364  1.00  0.00    -0.447 C  
ENDBRANCH  19  20
ENDBRANCH  18  19
ENDBRANCH  17  18
ENDBRANCH  14  17
ENDBRANCH  13  14
ENDBRANCH   5  12
BRANCH   6  22
HETATM   22  C   UNL     1     -10.753  14.847  67.068  1.00  0.00    -0.307 C  
BRANCH  22  23
HETATM   23  C   UNL     1     -10.535  14.543  65.587  1.00  0.00    -0.351 C  
BRANCH  23  24
HETATM   24  C   UNL     1     -11.765  14.932  64.772  1.00  0.00    -0.402 C  
HETATM   25  C   UNL     1     -12.454  13.734  64.171  1.00  0.00    -0.240 C  
HETATM   26  O   UNL     1     -12.565  13.545  62.969  1.00  0.00    -0.716 OA 
HETATM   27  O   UNL     1     -12.984  12.893  65.086  1.00  0.00    -0.758 OA 
ENDBRANCH  23  24
ENDBRANCH  22  23
ENDBRANCH   6  22
TORSDOF 9
ENDMDL
MODEL      182
REMARK 921   NORMALIZED FREE ENERGY PREDICTED BY IDOCK:   -3.97 KCAL/MOL
REMARK 922        TOTAL FREE ENERGY PREDICTED BY IDOCK:   -7.21 KCAL/MOL
REMARK 923 INTER-LIGAND FREE ENERGY PREDICTED BY IDOCK:   -6.38 KCAL/MOL
REMARK 924 INTRA-LIGAND FREE ENERGY PREDICTED BY IDOCK:   -0.83 KCAL/MOL
REMARK 927      BINDING AFFINITY PREDICTED BY RF-SCORE:    0.00 PKD
ROOT
HETATM    1  C   UNL     1     -11.228  15.364  66.622  1.00  0.00    -0.175 C  
HETATM    2  C   UNL     1     -11.659  14.392  65.538  1.00  0.00    -0.347 C  
HETATM    3  C   UNL     1     -10.847  13.125  65.797  1.00  0.00    -0.273 C  
HETATM    4  O   UNL     1      -9.673  13.105  64.986  1.00  0.00    -0.527 OA 
HETATM    5  C   UNL     1     -10.434  13.159  67.284  1.00  0.00    -0.243 C  
HETATM    6  C   UNL     1      -8.242  16.944  67.585  1.00  0.00    -0.196 C  
HETATM    7  C   UNL     1     -10.943  14.509  67.842  1.00  0.00    -0.277 C  
HETATM    8  H   UNL     1      -9.168  12.316  65.147  1.00  0.00     0.000 HD 
HETATM    9  C   UNL     1      -9.888  15.314  68.575  1.00  0.00    -0.210 C  
HETATM   10  O   UNL     1     -10.009  16.027  66.279  1.00  0.00    -0.271 OA 
HETATM   11  C   UNL     1      -9.308  16.140  67.469  1.00  0.00    -0.217 C  
ENDROOT
BRANCH   5  12
HETATM   12  C   UNL     1     -11.042  12.020  68.076  1.00  0.00    -0.292 C  
HETATM   13  C   UNL     1     -10.437  11.443  69.128  1.00  0.00    -0.159 C  
BRANCH  13  14
HETATM   14  C   UNL     1     -11.077  10.410  70.011  1.00  0.00    -0.314 C  
HETATM   15  O   UNL     1     -12.348  10.094  69.458  1.00  0.00    -0.509 OA 
HETATM   16  H   UNL     1     -12.752   9.440  70.016  1.00  0.00     0.000 HD 
BRANCH  14  17
HETATM   17  C   UNL     1     -10.244   9.125  70.088  1.00  0.00    -0.237 C  
BRANCH  17  18
HETATM   18  C   UNL     1      -8.916   9.321  70.825  1.00  0.00    -0.292 C  
BRANCH  18  19
HETATM   19  C   UNL     1      -7.719   9.183  69.883  1.00  0.00    -0.087 C  
BRANCH  19  20
HETATM   20  C   UNL     1      -7.225  10.557  69.430  1.00  0.00    -0.117 C  
HETATM   21  C   UNL     1      -5.819  10.484  68.858  1.00  0.00    -0.040 C  
ENDBRANCH  19  20
ENDBRANCH  18  19
ENDBRANCH  17  18
ENDBRANCH  14  17
ENDBRANCH  13  14
ENDBRANCH   5  12
BRANCH   6  22
HETATM   22  C   UNL     1      -7.708  17.810  66.481  1.00  0.00    -0.298 C  
BRANCH  22  23
HETATM   23  C   UNL     1      -8.443  19.147  66.405  1.00  0.00    -0.325 C  
BRANCH  23  24
HETATM   24  C   UNL     1      -7.484  20.303  66.675  1.00  0.00    -0.319 C  
HETATM   25  C   UNL     1      -6.333  20.329  65.703  1.00  0.00    -0.234 C  
HETATM   26  O   UNL     1      -5.165  20.184  66.029  1.00  0.00    -0.161 OA 
HETATM   27  O   UNL     1      -6.703  20.569  64.426  1.00  0.00    -0.260 OA 
ENDBRANCH  23  24
ENDBRANCH  22  23
ENDBRANCH   6  22
TORSDOF 9
ENDMDL
MODEL      183
REMARK 921   NORMALIZED FREE ENERGY PREDICTED BY IDOCK:   -3.97 KCAL/MOL
REMARK 922        TOTAL FREE ENERGY PREDICTED BY IDOCK:   -7.20 KCAL/MOL
REMARK 923 INTER-LIGAND FREE ENERGY PREDICTED BY IDOCK:   -6.05 KCAL/MOL
REMARK 924 INTRA-LIGAND FREE ENERGY PREDICTED BY IDOCK:   -1.15 KCAL/MOL
REMARK 927      BINDING AFFINITY PREDICTED BY RF-SCORE:    0.00 PKD
ROOT
HETATM    1  C   UNL     1      -8.353   8.801  68.787  1.00  0.00    -0.124 C  
HETATM    2  C   UNL     1      -8.806   8.922  67.343  1.00  0.00    -0.136 C  
HETATM    3  C   UNL     1     -10.315   9.142  67.418  1.00  0.00    -0.264 C  
HETATM    4  O   UNL     1     -11.012   7.906  67.261  1.00  0.00    -0.518 OA 
HETATM    5  C   UNL     1     -10.611   9.713  68.821  1.00  0.00    -0.242 C  
HETATM    6  C   UNL     1      -8.978   6.630  71.476  1.00  0.00    -0.139 C  
HETATM    7  C   UNL     1      -9.260   9.727  69.575  1.00  0.00    -0.226 C  
HETATM    8  H   UNL     1     -11.951   8.043  67.307  1.00  0.00     0.000 HD 
HETATM    9  C   UNL     1      -9.304   9.069  70.939  1.00  0.00    -0.326 C  
HETATM   10  O   UNL     1      -8.560   7.480  69.292  1.00  0.00    -0.135 OA 
HETATM   11  C   UNL     1      -8.955   7.651  70.609  1.00  0.00    -0.153 C  
ENDROOT
BRANCH   5  12
HETATM   12  C   UNL     1     -11.175  11.117  68.764  1.00  0.00    -0.314 C  
HETATM   13  C   UNL     1     -10.423  12.210  68.557  1.00  0.00    -0.248 C  
BRANCH  13  14
HETATM   14  C   UNL     1     -10.974  13.594  68.358  1.00  0.00    -0.262 C  
HETATM   15  O   UNL     1     -10.728  14.333  69.547  1.00  0.00    -0.395 OA 
HETATM   16  H   UNL     1     -11.077  15.208  69.421  1.00  0.00     0.000 HD 
BRANCH  14  17
HETATM   17  C   UNL     1     -10.304  14.317  67.185  1.00  0.00    -0.262 C  
BRANCH  17  18
HETATM   18  C   UNL     1     -11.008  14.063  65.849  1.00  0.00    -0.286 C  
BRANCH  18  19
HETATM   19  C   UNL     1     -10.039  13.540  64.788  1.00  0.00    -0.267 C  
BRANCH  19  20
HETATM   20  C   UNL     1     -10.763  12.630  63.795  1.00  0.00    -0.454 C  
HETATM   21  C   UNL     1     -10.843  11.200  64.303  1.00  0.00    -0.354 C  
ENDBRANCH  19  20
ENDBRANCH  18  19
ENDBRANCH  17  18
ENDBRANCH  14  17
ENDBRANCH  13  14
ENDBRANCH   5  12
BRANCH   6  22
HETATM   22  C   UNL     1      -8.569   5.224  71.142  1.00  0.00    -0.128 C  
BRANCH  22  23
HETATM   23  C   UNL     1      -9.769   4.366  70.744  1.00  0.00    -0.271 C  
BRANCH  23  24
HETATM   24  C   UNL     1      -9.557   2.916  71.170  1.00  0.00    -0.226 C  
HETATM   25  C   UNL     1      -9.486   2.765  72.668  1.00  0.00    -0.105 C  
HETATM   26  O   UNL     1      -8.498   2.366  73.265  1.00  0.00    -0.068 OA 
HETATM   27  O   UNL     1     -10.639   3.074  73.302  1.00  0.00    -0.151 OA 
ENDBRANCH  23  24
ENDBRANCH  22  23
ENDBRANCH   6  22
TORSDOF 9
ENDMDL
MODEL      184
REMARK 921   NORMALIZED FREE ENERGY PREDICTED BY IDOCK:   -3.96 KCAL/MOL
REMARK 922        TOTAL FREE ENERGY PREDICTED BY IDOCK:   -7.19 KCAL/MOL
REMARK 923 INTER-LIGAND FREE ENERGY PREDICTED BY IDOCK:   -6.32 KCAL/MOL
REMARK 924 INTRA-LIGAND FREE ENERGY PREDICTED BY IDOCK:   -0.87 KCAL/MOL
REMARK 927      BINDING AFFINITY PREDICTED BY RF-SCORE:    0.00 PKD
ROOT
HETATM    1  C   UNL     1     -11.432   8.148  70.727  1.00  0.00    -0.261 C  
HETATM    2  C   UNL     1     -10.835   9.505  71.054  1.00  0.00    -0.423 C  
HETATM    3  C   UNL     1      -9.359   9.389  70.679  1.00  0.00    -0.252 C  
HETATM    4  O   UNL     1      -8.574   9.057  71.824  1.00  0.00    -0.353 OA 
HETATM    5  C   UNL     1      -9.253   8.248  69.646  1.00  0.00    -0.158 C  
HETATM    6  C   UNL     1     -10.967   4.836  71.802  1.00  0.00     0.149 C  
HETATM    7  C   UNL     1     -10.675   7.655  69.509  1.00  0.00    -0.211 C  
HETATM    8  H   UNL     1      -7.656   8.985  71.591  1.00  0.00     0.000 HD 
HETATM    9  C   UNL     1     -10.738   6.149  69.664  1.00  0.00    -0.385 C  
HETATM   10  O   UNL     1     -11.199   7.206  71.777  1.00  0.00    -0.237 OA 
HETATM   11  C   UNL     1     -10.960   6.000  71.137  1.00  0.00    -0.278 C  
ENDROOT
BRANCH   5  12
HETATM   12  C   UNL     1      -8.774   8.737  68.295  1.00  0.00    -0.135 C  
HETATM   13  C   UNL     1      -9.461   8.555  67.155  1.00  0.00    -0.208 C  
BRANCH  13  14
HETATM   14  C   UNL     1      -9.076   9.150  65.830  1.00  0.00    -0.213 C  
HETATM   15  O   UNL     1      -9.045   8.097  64.875  1.00  0.00    -0.370 OA 
HETATM   16  H   UNL     1      -8.801   8.473  64.038  1.00  0.00     0.000 HD 
BRANCH  14  17
HETATM   17  C   UNL     1     -10.082  10.206  65.360  1.00  0.00    -0.342 C  
BRANCH  17  18
HETATM   18  C   UNL     1      -9.433  11.323  64.539  1.00  0.00    -0.211 C  
BRANCH  18  19
HETATM   19  C   UNL     1     -10.234  11.638  63.275  1.00  0.00    -0.445 C  
BRANCH  19  20
HETATM   20  C   UNL     1     -11.729  11.718  63.587  1.00  0.00    -0.517 C  
HETATM   21  C   UNL     1     -12.279  13.112  63.335  1.00  0.00    -0.521 C  
ENDBRANCH  19  20
ENDBRANCH  18  19
ENDBRANCH  17  18
ENDBRANCH  14  17
ENDBRANCH  13  14
ENDBRANCH   5  12
BRANCH   6  22
HETATM   22  C   UNL     1     -11.248   4.700  73.271  1.00  0.00    -0.411 C  
BRANCH  22  23
HETATM   23  C   UNL     1     -10.581   3.460  73.862  1.00  0.00    -0.276 C  
BRANCH  23  24
HETATM   24  C   UNL     1      -9.074   3.497  73.627  1.00  0.00    -0.096 C  
HETATM   25  C   UNL     1      -8.550   2.198  73.069  1.00  0.00    -0.066 C  
HETATM   26  O   UNL     1      -7.750   1.482  73.651  1.00  0.00    -0.032 OA 
HETATM   27  O   UNL     1      -9.016   1.909  71.834  1.00  0.00    -0.069 OA 
ENDBRANCH  23  24
ENDBRANCH  22  23
ENDBRANCH   6  22
TORSDOF 9
ENDMDL
MODEL      185
REMARK 921   NORMALIZED FREE ENERGY PREDICTED BY IDOCK:   -3.95 KCAL/MOL
REMARK 922        TOTAL FREE ENERGY PREDICTED BY IDOCK:   -7.18 KCAL/MOL
REMARK 923 INTER-LIGAND FREE ENERGY PREDICTED BY IDOCK:   -5.62 KCAL/MOL
REMARK 924 INTRA-LIGAND FREE ENERGY PREDICTED BY IDOCK:   -1.56 KCAL/MOL
REMARK 927      BINDING AFFINITY PREDICTED BY RF-SCORE:    0.00 PKD
ROOT
HETATM    1  C   UNL     1      -8.683  13.725  68.696  1.00  0.00    -0.051 C  
HETATM    2  C   UNL     1      -7.229  13.972  69.057  1.00  0.00    -0.092 C  
HETATM    3  C   UNL     1      -6.602  14.557  67.793  1.00  0.00    -0.172 C  
HETATM    4  O   UNL     1      -5.967  13.533  67.027  1.00  0.00    -0.356 OA 
HETATM    5  C   UNL     1      -7.754  15.166  66.967  1.00  0.00    -0.158 C  
HETATM    6  C   UNL     1     -10.430  11.743  66.381  1.00  0.00    -0.271 C  
HETATM    7  C   UNL     1      -9.056  14.837  67.734  1.00  0.00    -0.186 C  
HETATM    8  H   UNL     1      -5.576  13.897  66.242  1.00  0.00     0.000 HD 
HETATM    9  C   UNL     1     -10.132  14.193  66.882  1.00  0.00    -0.258 C  
HETATM   10  O   UNL     1      -8.847  12.490  67.996  1.00  0.00    -0.174 OA 
HETATM   11  C   UNL     1      -9.824  12.737  67.044  1.00  0.00    -0.231 C  
ENDROOT
BRANCH   5  12
HETATM   12  C   UNL     1      -7.620  16.666  66.812  1.00  0.00    -0.292 C  
HETATM   13  C   UNL     1      -7.468  17.507  67.849  1.00  0.00    -0.206 C  
BRANCH  13  14
HETATM   14  C   UNL     1      -7.196  18.979  67.714  1.00  0.00    -0.236 C  
HETATM   15  O   UNL     1      -7.110  19.278  66.326  1.00  0.00    -0.220 OA 
HETATM   16  H   UNL     1      -6.938  20.208  66.241  1.00  0.00     0.000 HD 
BRANCH  14  17
HETATM   17  C   UNL     1      -8.313  19.829  68.329  1.00  0.00    -0.312 C  
BRANCH  17  18
HETATM   18  C   UNL     1      -9.308  20.348  67.287  1.00  0.00    -0.547 C  
BRANCH  18  19
HETATM   19  C   UNL     1     -10.515  19.420  67.144  1.00  0.00    -0.577 C  
BRANCH  19  20
HETATM   20  C   UNL     1     -10.703  18.996  65.687  1.00  0.00    -0.252 C  
HETATM   21  C   UNL     1     -10.986  17.507  65.571  1.00  0.00     0.174 C  
ENDBRANCH  19  20
ENDBRANCH  18  19
ENDBRANCH  17  18
ENDBRANCH  14  17
ENDBRANCH  13  14
ENDBRANCH   5  12
BRANCH   6  22
HETATM   22  C   UNL     1     -10.149  10.284  66.598  1.00  0.00    -0.281 C  
BRANCH  22  23
HETATM   23  C   UNL     1      -8.992   9.795  65.728  1.00  0.00    -0.195 C  
BRANCH  23  24
HETATM   24  C   UNL     1      -9.410   9.733  64.263  1.00  0.00    -0.253 C  
HETATM   25  C   UNL     1      -8.792  10.836  63.444  1.00  0.00    -0.159 C  
HETATM   26  O   UNL     1      -9.436  11.708  62.880  1.00  0.00    -0.377 OA 
HETATM   27  O   UNL     1      -7.446  10.756  63.350  1.00  0.00     0.062 OA 
ENDBRANCH  23  24
ENDBRANCH  22  23
ENDBRANCH   6  22
TORSDOF 9
ENDMDL
MODEL      186
REMARK 921   NORMALIZED FREE ENERGY PREDICTED BY IDOCK:   -3.95 KCAL/MOL
REMARK 922        TOTAL FREE ENERGY PREDICTED BY IDOCK:   -7.18 KCAL/MOL
REMARK 923 INTER-LIGAND FREE ENERGY PREDICTED BY IDOCK:   -6.40 KCAL/MOL
REMARK 924 INTRA-LIGAND FREE ENERGY PREDICTED BY IDOCK:   -0.77 KCAL/MOL
REMARK 927      BINDING AFFINITY PREDICTED BY RF-SCORE:    0.00 PKD
ROOT
HETATM    1  C   UNL     1     -11.409  10.790  68.051  1.00  0.00    -0.307 C  
HETATM    2  C   UNL     1     -10.976  12.221  67.785  1.00  0.00    -0.274 C  
HETATM    3  C   UNL     1      -9.463  12.147  67.591  1.00  0.00    -0.187 C  
HETATM    4  O   UNL     1      -8.785  12.444  68.811  1.00  0.00    -0.369 OA 
HETATM    5  C   UNL     1      -9.139  10.697  67.173  1.00  0.00    -0.154 C  
HETATM    6  C   UNL     1     -10.772   8.351  70.499  1.00  0.00    -0.247 C  
HETATM    7  C   UNL     1     -10.479   9.924  67.223  1.00  0.00    -0.319 C  
HETATM    8  H   UNL     1      -7.844  12.398  68.691  1.00  0.00     0.000 HD 
HETATM    9  C   UNL     1     -10.423   8.637  68.020  1.00  0.00    -0.254 C  
HETATM   10  O   UNL     1     -11.212  10.429  69.420  1.00  0.00    -0.233 OA 
HETATM   11  C   UNL     1     -10.795   9.107  69.392  1.00  0.00    -0.151 C  
ENDROOT
BRANCH   5  12
HETATM   12  C   UNL     1      -8.558  10.617  65.777  1.00  0.00    -0.186 C  
HETATM   13  C   UNL     1      -7.285  10.271  65.523  1.00  0.00    -0.149 C  
BRANCH  13  14
HETATM   14  C   UNL     1      -6.726  10.050  64.146  1.00  0.00    -0.128 C  
HETATM   15  O   UNL     1      -5.812   8.964  64.218  1.00  0.00    -0.068 OA 
HETATM   16  H   UNL     1      -5.459   8.825  63.348  1.00  0.00     0.000 HD 
BRANCH  14  17
HETATM   17  C   UNL     1      -7.820   9.703  63.130  1.00  0.00    -0.133 C  
BRANCH  17  18
HETATM   18  C   UNL     1      -8.507  10.942  62.550  1.00  0.00    -0.282 C  
BRANCH  18  19
HETATM   19  C   UNL     1     -10.020  10.906  62.769  1.00  0.00    -0.182 C  
BRANCH  19  20
HETATM   20  C   UNL     1     -10.481  12.127  63.567  1.00  0.00    -0.490 C  
HETATM   21  C   UNL     1     -11.997  12.204  63.643  1.00  0.00    -0.628 C  
ENDBRANCH  19  20
ENDBRANCH  18  19
ENDBRANCH  17  18
ENDBRANCH  14  17
ENDBRANCH  13  14
ENDBRANCH   5  12
BRANCH   6  22
HETATM   22  C   UNL     1     -11.203   8.824  71.857  1.00  0.00    -0.438 C  
BRANCH  22  23
HETATM   23  C   UNL     1     -10.639   7.940  72.968  1.00  0.00    -0.406 C  
BRANCH  23  24
HETATM   24  C   UNL     1     -10.028   6.669  72.386  1.00  0.00    -0.180 C  
HETATM   25  C   UNL     1     -10.562   5.424  73.045  1.00  0.00    -0.235 C  
HETATM   26  O   UNL     1      -9.872   4.643  73.683  1.00  0.00    -0.136 OA 
HETATM   27  O   UNL     1     -11.880   5.218  72.834  1.00  0.00    -0.271 OA 
ENDBRANCH  23  24
ENDBRANCH  22  23
ENDBRANCH   6  22
TORSDOF 9
ENDMDL
MODEL      187
REMARK 921   NORMALIZED FREE ENERGY PREDICTED BY IDOCK:   -3.94 KCAL/MOL
REMARK 922        TOTAL FREE ENERGY PREDICTED BY IDOCK:   -7.16 KCAL/MOL
REMARK 923 INTER-LIGAND FREE ENERGY PREDICTED BY IDOCK:   -6.21 KCAL/MOL
REMARK 924 INTRA-LIGAND FREE ENERGY PREDICTED BY IDOCK:   -0.95 KCAL/MOL
REMARK 927      BINDING AFFINITY PREDICTED BY RF-SCORE:    0.00 PKD
ROOT
HETATM    1  C   UNL     1     -10.679   9.352  67.160  1.00  0.00    -0.163 C  
HETATM    2  C   UNL     1     -11.021  10.144  68.410  1.00  0.00    -0.293 C  
HETATM    3  C   UNL     1      -9.890  11.160  68.556  1.00  0.00    -0.198 C  
HETATM    4  O   UNL     1      -8.891  10.674  69.451  1.00  0.00    -0.327 OA 
HETATM    5  C   UNL     1      -9.270  11.338  67.155  1.00  0.00    -0.169 C  
HETATM    6  C   UNL     1      -8.064   7.254  66.111  1.00  0.00    -0.121 C  
HETATM    7  C   UNL     1     -10.002  10.340  66.228  1.00  0.00    -0.295 C  
HETATM    8  H   UNL     1      -8.188  11.306  69.543  1.00  0.00     0.000 HD 
HETATM    9  C   UNL     1      -9.078   9.453  65.417  1.00  0.00    -0.280 C  
HETATM   10  O   UNL     1      -9.732   8.318  67.437  1.00  0.00    -0.155 OA 
HETATM   11  C   UNL     1      -8.903   8.277  66.327  1.00  0.00    -0.161 C  
ENDROOT
BRANCH   5  12
HETATM   12  C   UNL     1      -9.444  12.746  66.624  1.00  0.00    -0.249 C  
HETATM   13  C   UNL     1     -10.076  13.031  65.473  1.00  0.00    -0.270 C  
BRANCH  13  14
HETATM   14  C   UNL     1     -10.381  14.423  64.997  1.00  0.00    -0.421 C  
HETATM   15  O   UNL     1     -11.783  14.624  65.117  1.00  0.00    -0.357 OA 
HETATM   16  H   UNL     1     -11.976  15.504  64.816  1.00  0.00     0.000 HD 
BRANCH  14  17
HETATM   17  C   UNL     1      -9.661  15.487  65.832  1.00  0.00    -0.392 C  
BRANCH  17  18
HETATM   18  C   UNL     1     -10.594  16.608  66.300  1.00  0.00    -0.205 C  
BRANCH  18  19
HETATM   19  C   UNL     1     -10.587  16.753  67.822  1.00  0.00    -0.341 C  
BRANCH  19  20
HETATM   20  C   UNL     1     -10.127  18.153  68.231  1.00  0.00    -0.398 C  
HETATM   21  C   UNL     1     -10.750  19.224  67.352  1.00  0.00    -0.594 C  
ENDBRANCH  19  20
ENDBRANCH  18  19
ENDBRANCH  17  18
ENDBRANCH  14  17
ENDBRANCH  13  14
ENDBRANCH   5  12
BRANCH   6  22
HETATM   22  C   UNL     1      -7.943   6.054  67.005  1.00  0.00    -0.102 C  
BRANCH  22  23
HETATM   23  C   UNL     1      -8.293   4.762  66.269  1.00  0.00    -0.111 C  
BRANCH  23  24
HETATM   24  C   UNL     1      -8.323   4.994  64.761  1.00  0.00    -0.140 C  
HETATM   25  C   UNL     1      -9.185   3.987  64.045  1.00  0.00    -0.146 C  
HETATM   26  O   UNL     1      -8.759   3.191  63.223  1.00  0.00    -0.089 OA 
HETATM   27  O   UNL     1     -10.496   4.067  64.363  1.00  0.00    -0.236 OA 
ENDBRANCH  23  24
ENDBRANCH  22  23
ENDBRANCH   6  22
TORSDOF 9
ENDMDL
MODEL      188
REMARK 921   NORMALIZED FREE ENERGY PREDICTED BY IDOCK:   -3.93 KCAL/MOL
REMARK 922        TOTAL FREE ENERGY PREDICTED BY IDOCK:   -7.14 KCAL/MOL
REMARK 923 INTER-LIGAND FREE ENERGY PREDICTED BY IDOCK:   -6.48 KCAL/MOL
REMARK 924 INTRA-LIGAND FREE ENERGY PREDICTED BY IDOCK:   -0.66 KCAL/MOL
REMARK 927      BINDING AFFINITY PREDICTED BY RF-SCORE:    0.00 PKD
ROOT
HETATM    1  C   UNL     1     -12.012   8.324  70.981  1.00  0.00    -0.241 C  
HETATM    2  C   UNL     1     -13.399   8.927  71.122  1.00  0.00    -0.116 C  
HETATM    3  C   UNL     1     -13.164  10.429  71.263  1.00  0.00    -0.339 C  
HETATM    4  O   UNL     1     -13.143  10.809  72.638  1.00  0.00    -0.298 OA 
HETATM    5  C   UNL     1     -11.785  10.724  70.636  1.00  0.00    -0.442 C  
HETATM    6  C   UNL     1      -9.107   8.134  72.947  1.00  0.00    -0.337 C  
HETATM    7  C   UNL     1     -11.198   9.354  70.222  1.00  0.00    -0.286 C  
HETATM    8  H   UNL     1     -12.998  11.744  72.726  1.00  0.00     0.000 HD 
HETATM    9  C   UNL     1      -9.791   9.105  70.726  1.00  0.00    -0.334 C  
HETATM   10  O   UNL     1     -11.385   8.148  72.254  1.00  0.00    -0.310 OA 
HETATM   11  C   UNL     1     -10.048   8.447  72.045  1.00  0.00    -0.294 C  
ENDROOT
BRANCH   5  12
HETATM   12  C   UNL     1     -11.886  11.623  69.421  1.00  0.00    -0.408 C  
HETATM   13  C   UNL     1     -10.826  12.220  68.852  1.00  0.00    -0.238 C  
BRANCH  13  14
HETATM   14  C   UNL     1     -10.881  13.001  67.569  1.00  0.00    -0.247 C  
HETATM   15  O   UNL     1      -9.616  12.881  66.934  1.00  0.00    -0.226 OA 
HETATM   16  H   UNL     1      -9.651  13.374  66.123  1.00  0.00     0.000 HD 
BRANCH  14  17
HETATM   17  C   UNL     1     -11.959  12.468  66.618  1.00  0.00    -0.351 C  
BRANCH  17  18
HETATM   18  C   UNL     1     -12.574  13.563  65.742  1.00  0.00    -0.490 C  
BRANCH  18  19
HETATM   19  C   UNL     1     -11.502  14.381  65.021  1.00  0.00    -0.372 C  
BRANCH  19  20
HETATM   20  C   UNL     1     -11.392  15.782  65.623  1.00  0.00     0.062 C  
HETATM   21  C   UNL     1      -9.945  16.230  65.734  1.00  0.00    -0.353 C  
ENDBRANCH  19  20
ENDBRANCH  18  19
ENDBRANCH  17  18
ENDBRANCH  14  17
ENDBRANCH  13  14
ENDBRANCH   5  12
BRANCH   6  22
HETATM   22  C   UNL     1      -9.376   7.423  74.242  1.00  0.00    -0.142 C  
BRANCH  22  23
HETATM   23  C   UNL     1      -8.745   6.031  74.264  1.00  0.00    -0.127 C  
BRANCH  23  24
HETATM   24  C   UNL     1      -8.696   5.442  72.858  1.00  0.00    -0.118 C  
HETATM   25  C   UNL     1      -9.726   4.360  72.656  1.00  0.00    -0.149 C  
HETATM   26  O   UNL     1      -9.450   3.195  72.413  1.00  0.00    -0.108 OA 
HETATM   27  O   UNL     1     -11.001   4.803  72.725  1.00  0.00    -0.222 OA 
ENDBRANCH  23  24
ENDBRANCH  22  23
ENDBRANCH   6  22
TORSDOF 9
ENDMDL
MODEL      189
REMARK 921   NORMALIZED FREE ENERGY PREDICTED BY IDOCK:   -3.92 KCAL/MOL
REMARK 922        TOTAL FREE ENERGY PREDICTED BY IDOCK:   -7.13 KCAL/MOL
REMARK 923 INTER-LIGAND FREE ENERGY PREDICTED BY IDOCK:   -5.92 KCAL/MOL
REMARK 924 INTRA-LIGAND FREE ENERGY PREDICTED BY IDOCK:   -1.21 KCAL/MOL
REMARK 927      BINDING AFFINITY PREDICTED BY RF-SCORE:    0.00 PKD
ROOT
HETATM    1  C   UNL     1     -11.552   6.309  69.955  1.00  0.00    -0.308 C  
HETATM    2  C   UNL     1     -12.329   6.620  71.222  1.00  0.00    -0.329 C  
HETATM    3  C   UNL     1     -11.436   7.577  72.009  1.00  0.00    -0.279 C  
HETATM    4  O   UNL     1     -10.659   6.865  72.971  1.00  0.00    -0.233 OA 
HETATM    5  C   UNL     1     -10.490   8.242  70.987  1.00  0.00    -0.241 C  
HETATM    6  C   UNL     1      -8.481   4.801  69.158  1.00  0.00    -0.087 C  
HETATM    7  C   UNL     1     -10.795   7.580  69.622  1.00  0.00    -0.210 C  
HETATM    8  H   UNL     1     -10.104   7.460  73.460  1.00  0.00     0.000 HD 
HETATM    9  C   UNL     1      -9.569   7.058  68.899  1.00  0.00    -0.140 C  
HETATM   10  O   UNL     1     -10.579   5.284  70.175  1.00  0.00    -0.290 OA 
HETATM   11  C   UNL     1      -9.483   5.654  69.412  1.00  0.00    -0.131 C  
ENDROOT
BRANCH   5  12
HETATM   12  C   UNL     1     -10.711   9.737  70.887  1.00  0.00    -0.375 C  
HETATM   13  C   UNL     1     -11.107  10.354  69.761  1.00  0.00    -0.352 C  
BRANCH  13  14
HETATM   14  C   UNL     1     -11.465  11.811  69.674  1.00  0.00    -0.270 C  
HETATM   15  O   UNL     1     -12.157  12.014  68.449  1.00  0.00    -0.412 OA 
HETATM   16  H   UNL     1     -12.383  12.935  68.395  1.00  0.00     0.000 HD 
BRANCH  14  17
HETATM   17  C   UNL     1     -12.374  12.249  70.828  1.00  0.00    -0.383 C  
BRANCH  17  18
HETATM   18  C   UNL     1     -12.974  13.641  70.616  1.00  0.00    -0.134 C  
BRANCH  18  19
HETATM   19  C   UNL     1     -12.259  14.701  71.455  1.00  0.00    -0.411 C  
BRANCH  19  20
HETATM   20  C   UNL     1     -11.405  15.608  70.568  1.00  0.00    -0.386 C  
HETATM   21  C   UNL     1     -11.888  15.596  69.127  1.00  0.00    -0.378 C  
ENDBRANCH  19  20
ENDBRANCH  18  19
ENDBRANCH  17  18
ENDBRANCH  14  17
ENDBRANCH  13  14
ENDBRANCH   5  12
BRANCH   6  22
HETATM   22  C   UNL     1      -8.438   3.377  69.634  1.00  0.00    -0.097 C  
BRANCH  22  23
HETATM   23  C   UNL     1      -7.940   3.278  71.074  1.00  0.00    -0.055 C  
BRANCH  23  24
HETATM   24  C   UNL     1      -9.067   2.835  72.003  1.00  0.00    -0.142 C  
HETATM   25  C   UNL     1      -8.912   3.391  73.395  1.00  0.00    -0.093 C  
HETATM   26  O   UNL     1      -8.746   2.699  74.388  1.00  0.00    -0.070 OA 
HETATM   27  O   UNL     1      -9.013   4.737  73.459  1.00  0.00    -0.108 OA 
ENDBRANCH  23  24
ENDBRANCH  22  23
ENDBRANCH   6  22
TORSDOF 9
ENDMDL
MODEL      190
REMARK 921   NORMALIZED FREE ENERGY PREDICTED BY IDOCK:   -3.91 KCAL/MOL
REMARK 922        TOTAL FREE ENERGY PREDICTED BY IDOCK:   -7.12 KCAL/MOL
REMARK 923 INTER-LIGAND FREE ENERGY PREDICTED BY IDOCK:   -5.23 KCAL/MOL
REMARK 924 INTRA-LIGAND FREE ENERGY PREDICTED BY IDOCK:   -1.89 KCAL/MOL
REMARK 927      BINDING AFFINITY PREDICTED BY RF-SCORE:    0.00 PKD
ROOT
HETATM    1  C   UNL     1     -10.590   9.069  67.723  1.00  0.00    -0.214 C  
HETATM    2  C   UNL     1      -9.498  10.124  67.705  1.00  0.00    -0.166 C  
HETATM    3  C   UNL     1      -8.202   9.349  67.480  1.00  0.00    -0.117 C  
HETATM    4  O   UNL     1      -7.557   9.077  68.724  1.00  0.00    -0.084 OA 
HETATM    5  C   UNL     1      -8.593   8.015  66.811  1.00  0.00    -0.133 C  
HETATM    6  C   UNL     1     -11.399   6.279  69.699  1.00  0.00    -0.492 C  
HETATM    7  C   UNL     1     -10.138   8.002  66.744  1.00  0.00    -0.357 C  
HETATM    8  H   UNL     1      -6.750   8.595  68.584  1.00  0.00     0.000 HD 
HETATM    9  C   UNL     1     -10.774   6.745  67.304  1.00  0.00    -0.423 C  
HETATM   10  O   UNL     1     -10.694   8.446  69.006  1.00  0.00    -0.185 OA 
HETATM   11  C   UNL     1     -10.971   7.114  68.741  1.00  0.00    -0.050 C  
ENDROOT
BRANCH   5  12
HETATM   12  C   UNL     1      -8.022   7.882  65.415  1.00  0.00    -0.123 C  
HETATM   13  C   UNL     1      -6.975   8.598  64.971  1.00  0.00    -0.076 C  
BRANCH  13  14
HETATM   14  C   UNL     1      -6.307   8.386  63.642  1.00  0.00    -0.073 C  
HETATM   15  O   UNL     1      -6.240   6.985  63.409  1.00  0.00    -0.042 OA 
HETATM   16  H   UNL     1      -5.818   6.852  62.569  1.00  0.00     0.000 HD 
BRANCH  14  17
HETATM   17  C   UNL     1      -7.088   9.036  62.496  1.00  0.00    -0.094 C  
BRANCH  17  18
HETATM   18  C   UNL     1      -7.177  10.559  62.625  1.00  0.00    -0.113 C  
BRANCH  18  19
HETATM   19  C   UNL     1      -8.589  11.072  62.336  1.00  0.00    -0.341 C  
BRANCH  19  20
HETATM   20  C   UNL     1      -9.631  10.246  63.090  1.00  0.00    -0.295 C  
HETATM   21  C   UNL     1     -10.460  11.111  64.025  1.00  0.00    -0.447 C  
ENDBRANCH  19  20
ENDBRANCH  18  19
ENDBRANCH  17  18
ENDBRANCH  14  17
ENDBRANCH  13  14
ENDBRANCH   5  12
BRANCH   6  22
HETATM   22  C   UNL     1     -11.646   6.680  71.125  1.00  0.00    -0.384 C  
BRANCH  22  23
HETATM   23  C   UNL     1     -10.790   5.869  72.096  1.00  0.00    -0.290 C  
BRANCH  23  24
HETATM   24  C   UNL     1      -9.322   6.269  71.981  1.00  0.00    -0.155 C  
HETATM   25  C   UNL     1      -9.098   7.722  72.312  1.00  0.00    -0.149 C  
HETATM   26  O   UNL     1      -8.675   8.544  71.513  1.00  0.00    -0.154 OA 
HETATM   27  O   UNL     1      -9.369   8.036  73.597  1.00  0.00    -0.270 OA 
ENDBRANCH  23  24
ENDBRANCH  22  23
ENDBRANCH   6  22
TORSDOF 9
ENDMDL
MODEL      191
REMARK 921   NORMALIZED FREE ENERGY PREDICTED BY IDOCK:   -3.91 KCAL/MOL
REMARK 922        TOTAL FREE ENERGY PREDICTED BY IDOCK:   -7.12 KCAL/MOL
REMARK 923 INTER-LIGAND FREE ENERGY PREDICTED BY IDOCK:   -6.18 KCAL/MOL
REMARK 924 INTRA-LIGAND FREE ENERGY PREDICTED BY IDOCK:   -0.94 KCAL/MOL
REMARK 927      BINDING AFFINITY PREDICTED BY RF-SCORE:    0.00 PKD
ROOT
HETATM    1  C   UNL     1     -11.752   7.833  70.901  1.00  0.00    -0.265 C  
HETATM    2  C   UNL     1     -13.162   8.387  70.995  1.00  0.00     0.093 C  
HETATM    3  C   UNL     1     -12.991   9.905  71.007  1.00  0.00    -0.331 C  
HETATM    4  O   UNL     1     -12.986  10.399  72.346  1.00  0.00    -0.453 OA 
HETATM    5  C   UNL     1     -11.626  10.203  70.353  1.00  0.00    -0.396 C  
HETATM    6  C   UNL     1      -8.841   7.931  72.865  1.00  0.00    -0.261 C  
HETATM    7  C   UNL     1     -10.982   8.828  70.054  1.00  0.00    -0.216 C  
HETATM    8  H   UNL     1     -12.880  11.343  72.354  1.00  0.00     0.000 HD 
HETATM    9  C   UNL     1      -9.565   8.681  70.572  1.00  0.00    -0.210 C  
HETATM   10  O   UNL     1     -11.118   7.791  72.181  1.00  0.00    -0.246 OA 
HETATM   11  C   UNL     1      -9.795   8.127  71.943  1.00  0.00    -0.212 C  
ENDROOT
BRANCH   5  12
HETATM   12  C   UNL     1     -11.764  10.990  69.067  1.00  0.00    -0.402 C  
HETATM   13  C   UNL     1     -12.139  12.280  69.024  1.00  0.00    -0.197 C  
BRANCH  13  14
HETATM   14  C   UNL     1     -12.149  13.118  67.778  1.00  0.00    -0.215 C  
HETATM   15  O   UNL     1     -12.368  14.468  68.166  1.00  0.00    -0.596 OA 
HETATM   16  H   UNL     1     -12.374  14.998  67.378  1.00  0.00     0.000 HD 
BRANCH  14  17
HETATM   17  C   UNL     1     -10.819  13.037  67.020  1.00  0.00    -0.278 C  
BRANCH  17  18
HETATM   18  C   UNL     1     -10.992  13.144  65.503  1.00  0.00    -0.296 C  
BRANCH  18  19
HETATM   19  C   UNL     1     -12.281  12.471  65.030  1.00  0.00    -0.519 C  
BRANCH  19  20
HETATM   20  C   UNL     1     -11.995  11.491  63.892  1.00  0.00    -0.164 C  
HETATM   21  C   UNL     1     -10.502  11.301  63.680  1.00  0.00    -0.464 C  
ENDBRANCH  19  20
ENDBRANCH  18  19
ENDBRANCH  17  18
ENDBRANCH  14  17
ENDBRANCH  13  14
ENDBRANCH   5  12
BRANCH   6  22
HETATM   22  C   UNL     1      -9.080   7.320  74.216  1.00  0.00    -0.245 C  
BRANCH  22  23
HETATM   23  C   UNL     1      -8.112   6.172  74.497  1.00  0.00    -0.119 C  
BRANCH  23  24
HETATM   24  C   UNL     1      -7.838   5.377  73.224  1.00  0.00    -0.104 C  
HETATM   25  C   UNL     1      -6.393   4.964  73.107  1.00  0.00    -0.046 C  
HETATM   26  O   UNL     1      -5.649   5.340  72.215  1.00  0.00    -0.015 OA 
HETATM   27  O   UNL     1      -5.996   4.098  74.065  1.00  0.00    -0.020 OA 
ENDBRANCH  23  24
ENDBRANCH  22  23
ENDBRANCH   6  22
TORSDOF 9
ENDMDL
MODEL      192
REMARK 921   NORMALIZED FREE ENERGY PREDICTED BY IDOCK:   -3.91 KCAL/MOL
REMARK 922        TOTAL FREE ENERGY PREDICTED BY IDOCK:   -7.11 KCAL/MOL
REMARK 923 INTER-LIGAND FREE ENERGY PREDICTED BY IDOCK:   -5.76 KCAL/MOL
REMARK 924 INTRA-LIGAND FREE ENERGY PREDICTED BY IDOCK:   -1.35 KCAL/MOL
REMARK 927      BINDING AFFINITY PREDICTED BY RF-SCORE:    0.00 PKD
ROOT
HETATM    1  C   UNL     1     -11.456   7.905  70.955  1.00  0.00    -0.280 C  
HETATM    2  C   UNL     1     -10.921   9.281  71.308  1.00  0.00    -0.421 C  
HETATM    3  C   UNL     1      -9.435   9.229  70.960  1.00  0.00    -0.243 C  
HETATM    4  O   UNL     1      -8.658   8.917  72.115  1.00  0.00    -0.381 OA 
HETATM    5  C   UNL     1      -9.263   8.106  69.916  1.00  0.00    -0.151 C  
HETATM    6  C   UNL     1     -10.874   4.602  72.002  1.00  0.00     0.015 C  
HETATM    7  C   UNL     1     -10.657   7.458  69.746  1.00  0.00    -0.245 C  
HETATM    8  H   UNL     1      -7.734   8.885  71.899  1.00  0.00     0.000 HD 
HETATM    9  C   UNL     1     -10.660   5.948  69.884  1.00  0.00    -0.370 C  
HETATM   10  O   UNL     1     -11.204   6.961  71.999  1.00  0.00    -0.241 OA 
HETATM   11  C   UNL     1     -10.903   5.773  71.351  1.00  0.00    -0.251 C  
ENDROOT
BRANCH   5  12
HETATM   12  C   UNL     1      -8.780   8.631  68.580  1.00  0.00    -0.138 C  
HETATM   13  C   UNL     1      -9.604   8.969  67.575  1.00  0.00    -0.182 C  
BRANCH  13  14
HETATM   14  C   UNL     1      -9.159   9.619  66.296  1.00  0.00    -0.160 C  
HETATM   15  O   UNL     1      -9.996   9.141  65.252  1.00  0.00    -0.397 OA 
HETATM   16  H   UNL     1      -9.715   9.553  64.444  1.00  0.00     0.000 HD 
BRANCH  14  17
HETATM   17  C   UNL     1      -9.276  11.146  66.357  1.00  0.00    -0.199 C  
BRANCH  17  18
HETATM   18  C   UNL     1     -10.699  11.621  66.666  1.00  0.00    -0.310 C  
BRANCH  18  19
HETATM   19  C   UNL     1     -10.700  12.904  67.498  1.00  0.00    -0.241 C  
BRANCH  19  20
HETATM   20  C   UNL     1     -11.311  12.655  68.877  1.00  0.00    -0.345 C  
HETATM   21  C   UNL     1     -12.015  11.310  68.942  1.00  0.00    -0.378 C  
ENDBRANCH  19  20
ENDBRANCH  18  19
ENDBRANCH  17  18
ENDBRANCH  14  17
ENDBRANCH  13  14
ENDBRANCH   5  12
BRANCH   6  22
HETATM   22  C   UNL     1     -11.177   4.437  73.464  1.00  0.00    -0.375 C  
BRANCH  22  23
HETATM   23  C   UNL     1     -10.047   3.717  74.198  1.00  0.00    -0.205 C  
BRANCH  23  24
HETATM   24  C   UNL     1      -8.777   4.562  74.187  1.00  0.00    -0.103 C  
HETATM   25  C   UNL     1      -7.568   3.771  73.756  1.00  0.00    -0.070 C  
HETATM   26  O   UNL     1      -6.603   3.560  74.473  1.00  0.00    -0.036 OA 
HETATM   27  O   UNL     1      -7.626   3.344  72.475  1.00  0.00    -0.055 OA 
ENDBRANCH  23  24
ENDBRANCH  22  23
ENDBRANCH   6  22
TORSDOF 9
ENDMDL
MODEL      193
REMARK 921   NORMALIZED FREE ENERGY PREDICTED BY IDOCK:   -3.91 KCAL/MOL
REMARK 922        TOTAL FREE ENERGY PREDICTED BY IDOCK:   -7.11 KCAL/MOL
REMARK 923 INTER-LIGAND FREE ENERGY PREDICTED BY IDOCK:   -5.78 KCAL/MOL
REMARK 924 INTRA-LIGAND FREE ENERGY PREDICTED BY IDOCK:   -1.33 KCAL/MOL
REMARK 927      BINDING AFFINITY PREDICTED BY RF-SCORE:    0.00 PKD
ROOT
HETATM    1  C   UNL     1     -11.470   6.129  70.113  1.00  0.00    -0.295 C  
HETATM    2  C   UNL     1     -10.811   6.068  68.747  1.00  0.00    -0.391 C  
HETATM    3  C   UNL     1      -9.427   6.682  68.947  1.00  0.00    -0.130 C  
HETATM    4  O   UNL     1      -9.434   8.065  68.594  1.00  0.00    -0.146 OA 
HETATM    5  C   UNL     1      -9.094   6.545  70.448  1.00  0.00    -0.156 C  
HETATM    6  C   UNL     1     -12.429   8.648  72.366  1.00  0.00    -0.428 C  
HETATM    7  C   UNL     1     -10.347   5.930  71.114  1.00  0.00    -0.276 C  
HETATM    8  H   UNL     1      -8.573   8.447  68.719  1.00  0.00     0.000 HD 
HETATM    9  C   UNL     1     -10.843   6.691  72.327  1.00  0.00    -0.260 C  
HETATM   10  O   UNL     1     -12.035   7.418  70.366  1.00  0.00    -0.161 OA 
HETATM   11  C   UNL     1     -11.806   7.658  71.712  1.00  0.00    -0.290 C  
ENDROOT
BRANCH   5  12
HETATM   12  C   UNL     1      -7.897   5.650  70.693  1.00  0.00    -0.100 C  
HETATM   13  C   UNL     1      -7.769   4.863  71.773  1.00  0.00    -0.102 C  
BRANCH  13  14
HETATM   14  C   UNL     1      -6.661   3.867  71.970  1.00  0.00    -0.022 C  
HETATM   15  O   UNL     1      -5.588   4.238  71.115  1.00  0.00    -0.007 OA 
HETATM   16  H   UNL     1      -4.888   3.609  71.239  1.00  0.00     0.000 HD 
BRANCH  14  17
HETATM   17  C   UNL     1      -6.152   3.852  73.415  1.00  0.00    -0.008 C  
BRANCH  17  18
HETATM   18  C   UNL     1      -6.558   5.101  74.202  1.00  0.00    -0.074 C  
BRANCH  18  19
HETATM   19  C   UNL     1      -5.382   6.061  74.387  1.00  0.00    -0.037 C  
BRANCH  19  20
HETATM   20  C   UNL     1      -5.538   7.289  73.490  1.00  0.00    -0.045 C  
HETATM   21  C   UNL     1      -6.608   8.232  74.014  1.00  0.00    -0.150 C  
ENDBRANCH  19  20
ENDBRANCH  18  19
ENDBRANCH  17  18
ENDBRANCH  14  17
ENDBRANCH  13  14
ENDBRANCH   5  12
BRANCH   6  22
HETATM   22  C   UNL     1     -13.437   9.573  71.746  1.00  0.00    -0.480 C  
BRANCH  22  23
HETATM   23  C   UNL     1     -12.841  10.951  71.464  1.00  0.00    -0.560 C  
BRANCH  23  24
HETATM   24  C   UNL     1     -11.727  10.851  70.426  1.00  0.00    -0.444 C  
HETATM   25  C   UNL     1     -11.932  11.803  69.275  1.00  0.00    -0.291 C  
HETATM   26  O   UNL     1     -12.105  11.446  68.120  1.00  0.00    -0.623 OA 
HETATM   27  O   UNL     1     -11.866  13.106  69.628  1.00  0.00    -0.304 OA 
ENDBRANCH  23  24
ENDBRANCH  22  23
ENDBRANCH   6  22
TORSDOF 9
ENDMDL
MODEL      194
REMARK 921   NORMALIZED FREE ENERGY PREDICTED BY IDOCK:   -3.90 KCAL/MOL
REMARK 922        TOTAL FREE ENERGY PREDICTED BY IDOCK:   -7.10 KCAL/MOL
REMARK 923 INTER-LIGAND FREE ENERGY PREDICTED BY IDOCK:   -5.96 KCAL/MOL
REMARK 924 INTRA-LIGAND FREE ENERGY PREDICTED BY IDOCK:   -1.14 KCAL/MOL
REMARK 927      BINDING AFFINITY PREDICTED BY RF-SCORE:    0.00 PKD
ROOT
HETATM    1  C   UNL     1      -8.498   5.849  67.104  1.00  0.00    -0.107 C  
HETATM    2  C   UNL     1      -9.209   7.187  66.998  1.00  0.00    -0.167 C  
HETATM    3  C   UNL     1     -10.590   6.950  67.604  1.00  0.00    -0.261 C  
HETATM    4  O   UNL     1     -11.543   6.656  66.584  1.00  0.00    -0.643 OA 
HETATM    5  C   UNL     1     -10.460   5.730  68.541  1.00  0.00    -0.290 C  
HETATM    6  C   UNL     1      -8.977   2.604  65.848  1.00  0.00    -0.131 C  
HETATM    7  C   UNL     1      -9.008   5.220  68.387  1.00  0.00    -0.116 C  
HETATM    8  H   UNL     1     -12.403   6.509  66.960  1.00  0.00     0.000 HD 
HETATM    9  C   UNL     1      -8.899   3.737  68.097  1.00  0.00    -0.144 C  
HETATM   10  O   UNL     1      -8.861   4.975  66.033  1.00  0.00    -0.122 OA 
HETATM   11  C   UNL     1      -8.927   3.712  66.600  1.00  0.00    -0.141 C  
ENDROOT
BRANCH   5  12
HETATM   12  C   UNL     1     -10.723   6.087  69.989  1.00  0.00    -0.380 C  
HETATM   13  C   UNL     1     -11.844   6.694  70.411  1.00  0.00    -0.407 C  
BRANCH  13  14
HETATM   14  C   UNL     1     -12.187   6.933  71.855  1.00  0.00    -0.332 C  
HETATM   15  O   UNL     1     -11.130   6.403  72.644  1.00  0.00    -0.244 OA 
HETATM   16  H   UNL     1     -11.346   6.554  73.556  1.00  0.00     0.000 HD 
BRANCH  14  17
HETATM   17  C   UNL     1     -12.332   8.425  72.172  1.00  0.00    -0.426 C  
BRANCH  17  18
HETATM   18  C   UNL     1     -11.040   9.212  71.938  1.00  0.00    -0.385 C  
BRANCH  18  19
HETATM   19  C   UNL     1     -11.107  10.047  70.659  1.00  0.00    -0.408 C  
BRANCH  19  20
HETATM   20  C   UNL     1     -12.497  10.658  70.483  1.00  0.00    -0.445 C  
HETATM   21  C   UNL     1     -12.637  11.960  71.255  1.00  0.00    -0.383 C  
ENDBRANCH  19  20
ENDBRANCH  18  19
ENDBRANCH  17  18
ENDBRANCH  14  17
ENDBRANCH  13  14
ENDBRANCH   5  12
BRANCH   6  22
HETATM   22  C   UNL     1      -8.947   2.596  64.347  1.00  0.00    -0.118 C  
BRANCH  22  23
HETATM   23  C   UNL     1      -7.516   2.563  63.811  1.00  0.00    -0.065 C  
BRANCH  23  24
HETATM   24  C   UNL     1      -7.396   3.412  62.549  1.00  0.00    -0.045 C  
HETATM   25  C   UNL     1      -7.586   4.880  62.828  1.00  0.00    -0.061 C  
HETATM   26  O   UNL     1      -8.498   5.548  62.365  1.00  0.00    -0.111 OA 
HETATM   27  O   UNL     1      -6.624   5.415  63.612  1.00  0.00    -0.032 OA 
ENDBRANCH  23  24
ENDBRANCH  22  23
ENDBRANCH   6  22
TORSDOF 9
ENDMDL
MODEL      195
REMARK 921   NORMALIZED FREE ENERGY PREDICTED BY IDOCK:   -3.90 KCAL/MOL
REMARK 922        TOTAL FREE ENERGY PREDICTED BY IDOCK:   -7.10 KCAL/MOL
REMARK 923 INTER-LIGAND FREE ENERGY PREDICTED BY IDOCK:   -5.65 KCAL/MOL
REMARK 924 INTRA-LIGAND FREE ENERGY PREDICTED BY IDOCK:   -1.45 KCAL/MOL
REMARK 927      BINDING AFFINITY PREDICTED BY RF-SCORE:    0.00 PKD
ROOT
HETATM    1  C   UNL     1     -11.829   6.424  70.456  1.00  0.00    -0.248 C  
HETATM    2  C   UNL     1     -11.104   6.108  69.160  1.00  0.00    -0.448 C  
HETATM    3  C   UNL     1      -9.652   6.510  69.411  1.00  0.00    -0.144 C  
HETATM    4  O   UNL     1      -9.404   7.828  68.924  1.00  0.00    -0.147 OA 
HETATM    5  C   UNL     1      -9.442   6.487  70.940  1.00  0.00    -0.179 C  
HETATM    6  C   UNL     1     -12.491   9.297  72.367  1.00  0.00    -0.307 C  
HETATM    7  C   UNL     1     -10.821   6.158  71.559  1.00  0.00    -0.313 C  
HETATM    8  H   UNL     1      -8.501   8.078  69.080  1.00  0.00     0.000 HD 
HETATM    9  C   UNL     1     -11.257   7.119  72.648  1.00  0.00    -0.331 C  
HETATM   10  O   UNL     1     -12.183   7.807  70.535  1.00  0.00    -0.040 OA 
HETATM   11  C   UNL     1     -12.003   8.154  71.865  1.00  0.00    -0.320 C  
ENDROOT
BRANCH   5  12
HETATM   12  C   UNL     1      -8.431   5.444  71.367  1.00  0.00    -0.126 C  
HETATM   13  C   UNL     1      -8.771   4.244  71.867  1.00  0.00    -0.128 C  
BRANCH  13  14
HETATM   14  C   UNL     1      -7.792   3.144  72.167  1.00  0.00    -0.058 C  
HETATM   15  O   UNL     1      -7.725   2.997  73.579  1.00  0.00    -0.054 OA 
HETATM   16  H   UNL     1      -7.107   2.302  73.769  1.00  0.00     0.000 HD 
BRANCH  14  17
HETATM   17  C   UNL     1      -8.227   1.807  71.557  1.00  0.00    -0.049 C  
BRANCH  17  18
HETATM   18  C   UNL     1      -7.884   1.693  70.069  1.00  0.00    -0.047 C  
BRANCH  18  19
HETATM   19  C   UNL     1      -9.140   1.593  69.203  1.00  0.00    -0.161 C  
BRANCH  19  20
HETATM   20  C   UNL     1      -9.399   2.908  68.468  1.00  0.00    -0.249 C  
HETATM   21  C   UNL     1      -8.136   3.436  67.807  1.00  0.00    -0.081 C  
ENDBRANCH  19  20
ENDBRANCH  18  19
ENDBRANCH  17  18
ENDBRANCH  14  17
ENDBRANCH  13  14
ENDBRANCH   5  12
BRANCH   6  22
HETATM   22  C   UNL     1     -13.287  10.298  71.580  1.00  0.00    -0.451 C  
BRANCH  22  23
HETATM   23  C   UNL     1     -12.541  11.623  71.432  1.00  0.00    -0.391 C  
BRANCH  23  24
HETATM   24  C   UNL     1     -13.509  12.798  71.536  1.00  0.00    -0.098 C  
HETATM   25  C   UNL     1     -12.884  13.996  72.203  1.00  0.00    -0.320 C  
HETATM   26  O   UNL     1     -13.275  14.467  73.260  1.00  0.00    -0.622 OA 
HETATM   27  O   UNL     1     -11.863  14.539  71.503  1.00  0.00    -0.333 OA 
ENDBRANCH  23  24
ENDBRANCH  22  23
ENDBRANCH   6  22
TORSDOF 9
ENDMDL
MODEL      196
REMARK 921   NORMALIZED FREE ENERGY PREDICTED BY IDOCK:   -3.89 KCAL/MOL
REMARK 922        TOTAL FREE ENERGY PREDICTED BY IDOCK:   -7.08 KCAL/MOL
REMARK 923 INTER-LIGAND FREE ENERGY PREDICTED BY IDOCK:   -5.53 KCAL/MOL
REMARK 924 INTRA-LIGAND FREE ENERGY PREDICTED BY IDOCK:   -1.55 KCAL/MOL
REMARK 927      BINDING AFFINITY PREDICTED BY RF-SCORE:    0.00 PKD
ROOT
HETATM    1  C   UNL     1      -9.306  11.534  66.216  1.00  0.00    -0.213 C  
HETATM    2  C   UNL     1     -10.814  11.675  66.106  1.00  0.00    -0.343 C  
HETATM    3  C   UNL     1     -11.324  11.593  67.543  1.00  0.00    -0.298 C  
HETATM    4  O   UNL     1     -11.733  10.262  67.856  1.00  0.00    -0.691 OA 
HETATM    5  C   UNL     1     -10.145  11.988  68.456  1.00  0.00    -0.201 C  
HETATM    6  C   UNL     1      -7.054   9.084  67.343  1.00  0.00    -0.079 C  
HETATM    7  C   UNL     1      -8.930  12.205  67.523  1.00  0.00    -0.177 C  
HETATM    8  H   UNL     1     -12.051  10.211  68.749  1.00  0.00     0.000 HD 
HETATM    9  C   UNL     1      -7.685  11.449  67.941  1.00  0.00    -0.114 C  
HETATM   10  O   UNL     1      -8.914  10.163  66.319  1.00  0.00    -0.145 OA 
HETATM   11  C   UNL     1      -7.850  10.154  67.207  1.00  0.00    -0.103 C  
ENDROOT
BRANCH   5  12
HETATM   12  C   UNL     1     -10.421  13.257  69.235  1.00  0.00     0.164 C  
HETATM   13  C   UNL     1     -11.569  13.948  69.143  1.00  0.00    -0.359 C  
BRANCH  13  14
HETATM   14  C   UNL     1     -11.919  15.128  70.006  1.00  0.00    -0.336 C  
HETATM   15  O   UNL     1     -11.632  14.780  71.354  1.00  0.00    -0.433 OA 
HETATM   16  H   UNL     1     -11.853  15.526  71.898  1.00  0.00     0.000 HD 
BRANCH  14  17
HETATM   17  C   UNL     1     -11.101  16.371  69.638  1.00  0.00    -0.306 C  
BRANCH  17  18
HETATM   18  C   UNL     1     -10.795  16.459  68.140  1.00  0.00    -0.346 C  
BRANCH  18  19
HETATM   19  C   UNL     1      -9.294  16.578  67.875  1.00  0.00    -0.216 C  
BRANCH  19  20
HETATM   20  C   UNL     1      -8.964  16.174  66.438  1.00  0.00    -0.353 C  
HETATM   21  C   UNL     1     -10.086  15.361  65.814  1.00  0.00    -0.391 C  
ENDBRANCH  19  20
ENDBRANCH  18  19
ENDBRANCH  17  18
ENDBRANCH  14  17
ENDBRANCH  13  14
ENDBRANCH   5  12
BRANCH   6  22
HETATM   22  C   UNL     1      -7.200   7.813  66.557  1.00  0.00    -0.086 C  
BRANCH  22  23
HETATM   23  C   UNL     1      -7.814   6.695  67.398  1.00  0.00    -0.113 C  
BRANCH  23  24
HETATM   24  C   UNL     1      -9.024   6.093  66.691  1.00  0.00    -0.133 C  
HETATM   25  C   UNL     1      -8.630   5.200  65.543  1.00  0.00    -0.143 C  
HETATM   26  O   UNL     1      -8.920   5.423  64.378  1.00  0.00    -0.019 OA 
HETATM   27  O   UNL     1      -7.952   4.094  65.921  1.00  0.00    -0.093 OA 
ENDBRANCH  23  24
ENDBRANCH  22  23
ENDBRANCH   6  22
TORSDOF 9
ENDMDL
MODEL      197
REMARK 921   NORMALIZED FREE ENERGY PREDICTED BY IDOCK:   -3.85 KCAL/MOL
REMARK 922        TOTAL FREE ENERGY PREDICTED BY IDOCK:   -7.02 KCAL/MOL
REMARK 923 INTER-LIGAND FREE ENERGY PREDICTED BY IDOCK:   -6.16 KCAL/MOL
REMARK 924 INTRA-LIGAND FREE ENERGY PREDICTED BY IDOCK:   -0.87 KCAL/MOL
REMARK 927      BINDING AFFINITY PREDICTED BY RF-SCORE:    0.00 PKD
ROOT
HETATM    1  C   UNL     1     -10.578  13.050  67.370  1.00  0.00    -0.234 C  
HETATM    2  C   UNL     1     -11.504  12.276  66.449  1.00  0.00    -0.434 C  
HETATM    3  C   UNL     1     -10.584  11.371  65.633  1.00  0.00    -0.258 C  
HETATM    4  O   UNL     1     -10.267  11.976  64.379  1.00  0.00    -0.278 OA 
HETATM    5  C   UNL     1      -9.288  11.199  66.453  1.00  0.00    -0.207 C  
HETATM    6  C   UNL     1      -7.938  15.336  66.992  1.00  0.00    -0.243 C  
HETATM    7  C   UNL     1      -9.448  12.095  67.704  1.00  0.00    -0.187 C  
HETATM    8  H   UNL     1      -9.694  11.413  63.871  1.00  0.00     0.000 HD 
HETATM    9  C   UNL     1      -8.282  13.032  67.950  1.00  0.00    -0.166 C  
HETATM   10  O   UNL     1      -9.997  14.174  66.706  1.00  0.00    -0.254 OA 
HETATM   11  C   UNL     1      -8.699  14.250  67.186  1.00  0.00    -0.227 C  
ENDROOT
BRANCH   5  12
HETATM   12  C   UNL     1      -9.064   9.764  66.881  1.00  0.00    -0.162 C  
HETATM   13  C   UNL     1      -8.993   9.376  68.165  1.00  0.00    -0.128 C  
BRANCH  13  14
HETATM   14  C   UNL     1      -8.911   7.944  68.614  1.00  0.00    -0.134 C  
HETATM   15  O   UNL     1      -7.540   7.568  68.611  1.00  0.00    -0.104 OA 
HETATM   16  H   UNL     1      -7.488   6.664  68.895  1.00  0.00     0.000 HD 
BRANCH  14  17
HETATM   17  C   UNL     1      -9.467   7.753  70.029  1.00  0.00    -0.161 C  
BRANCH  17  18
HETATM   18  C   UNL     1     -10.574   8.754  70.373  1.00  0.00    -0.251 C  
BRANCH  18  19
HETATM   19  C   UNL     1     -10.813   8.839  71.881  1.00  0.00    -0.431 C  
BRANCH  19  20
HETATM   20  C   UNL     1     -12.051   8.036  72.279  1.00  0.00    -0.392 C  
HETATM   21  C   UNL     1     -13.322   8.652  71.718  1.00  0.00    -0.410 C  
ENDBRANCH  19  20
ENDBRANCH  18  19
ENDBRANCH  17  18
ENDBRANCH  14  17
ENDBRANCH  13  14
ENDBRANCH   5  12
BRANCH   6  22
HETATM   22  C   UNL     1      -8.393  16.573  66.273  1.00  0.00    -0.364 C  
BRANCH  22  23
HETATM   23  C   UNL     1      -7.258  17.583  66.112  1.00  0.00    -0.343 C  
BRANCH  23  24
HETATM   24  C   UNL     1      -7.394  18.710  67.131  1.00  0.00    -0.218 C  
HETATM   25  C   UNL     1      -6.056  19.225  67.596  1.00  0.00    -0.206 C  
HETATM   26  O   UNL     1      -5.663  19.152  68.750  1.00  0.00    -0.202 OA 
HETATM   27  O   UNL     1      -5.333  19.819  66.621  1.00  0.00    -0.164 OA 
ENDBRANCH  23  24
ENDBRANCH  22  23
ENDBRANCH   6  22
TORSDOF 9
ENDMDL
MODEL      198
REMARK 921   NORMALIZED FREE ENERGY PREDICTED BY IDOCK:   -3.84 KCAL/MOL
REMARK 922        TOTAL FREE ENERGY PREDICTED BY IDOCK:   -7.02 KCAL/MOL
REMARK 923 INTER-LIGAND FREE ENERGY PREDICTED BY IDOCK:   -6.02 KCAL/MOL
REMARK 924 INTRA-LIGAND FREE ENERGY PREDICTED BY IDOCK:   -0.99 KCAL/MOL
REMARK 927      BINDING AFFINITY PREDICTED BY RF-SCORE:    0.00 PKD
ROOT
HETATM    1  C   UNL     1     -10.281   5.680  66.377  1.00  0.00    -0.171 C  
HETATM    2  C   UNL     1     -10.005   4.410  67.161  1.00  0.00    -0.182 C  
HETATM    3  C   UNL     1      -9.716   4.878  68.585  1.00  0.00    -0.160 C  
HETATM    4  O   UNL     1      -8.311   5.005  68.798  1.00  0.00    -0.084 OA 
HETATM    5  C   UNL     1     -10.378   6.264  68.739  1.00  0.00    -0.245 C  
HETATM    6  C   UNL     1      -8.498   8.587  65.530  1.00  0.00    -0.183 C  
HETATM    7  C   UNL     1     -10.966   6.618  67.353  1.00  0.00    -0.434 C  
HETATM    8  H   UNL     1      -8.131   5.296  69.684  1.00  0.00     0.000 HD 
HETATM    9  C   UNL     1     -10.565   7.986  66.839  1.00  0.00    -0.324 C  
HETATM   10  O   UNL     1      -9.068   6.316  65.964  1.00  0.00    -0.156 OA 
HETATM   11  C   UNL     1      -9.312   7.675  66.082  1.00  0.00    -0.080 C  
ENDROOT
BRANCH   5  12
HETATM   12  C   UNL     1     -11.482   6.263  69.775  1.00  0.00    -0.449 C  
HETATM   13  C   UNL     1     -11.267   6.447  71.088  1.00  0.00    -0.357 C  
BRANCH  13  14
HETATM   14  C   UNL     1     -12.356   6.588  72.114  1.00  0.00    -0.198 C  
HETATM   15  O   UNL     1     -11.784   7.173  73.276  1.00  0.00    -0.463 OA 
HETATM   16  H   UNL     1     -12.473   7.262  73.924  1.00  0.00     0.000 HD 
BRANCH  14  17
HETATM   17  C   UNL     1     -13.495   7.488  71.623  1.00  0.00    -0.429 C  
BRANCH  17  18
HETATM   18  C   UNL     1     -13.399   8.917  72.164  1.00  0.00    -0.489 C  
BRANCH  18  19
HETATM   19  C   UNL     1     -13.383   9.950  71.037  1.00  0.00    -0.322 C  
BRANCH  19  20
HETATM   20  C   UNL     1     -12.170  10.873  71.163  1.00  0.00    -0.441 C  
HETATM   21  C   UNL     1     -11.603  11.239  69.802  1.00  0.00    -0.408 C  
ENDBRANCH  19  20
ENDBRANCH  18  19
ENDBRANCH  17  18
ENDBRANCH  14  17
ENDBRANCH  13  14
ENDBRANCH   5  12
BRANCH   6  22
HETATM   22  C   UNL     1      -7.275   8.255  64.724  1.00  0.00    -0.082 C  
BRANCH  22  23
HETATM   23  C   UNL     1      -7.184   9.107  63.459  1.00  0.00    -0.092 C  
BRANCH  23  24
HETATM   24  C   UNL     1      -8.563   9.621  63.057  1.00  0.00    -0.207 C  
HETATM   25  C   UNL     1      -8.681  11.116  63.206  1.00  0.00     0.011 C  
HETATM   26  O   UNL     1      -9.456  11.663  63.975  1.00  0.00    -0.160 OA 
HETATM   27  O   UNL     1      -7.874  11.812  62.375  1.00  0.00     0.083 OA 
ENDBRANCH  23  24
ENDBRANCH  22  23
ENDBRANCH   6  22
TORSDOF 9
ENDMDL
MODEL      199
REMARK 921   NORMALIZED FREE ENERGY PREDICTED BY IDOCK:   -3.83 KCAL/MOL
REMARK 922        TOTAL FREE ENERGY PREDICTED BY IDOCK:   -7.00 KCAL/MOL
REMARK 923 INTER-LIGAND FREE ENERGY PREDICTED BY IDOCK:   -5.76 KCAL/MOL
REMARK 924 INTRA-LIGAND FREE ENERGY PREDICTED BY IDOCK:   -1.24 KCAL/MOL
REMARK 927      BINDING AFFINITY PREDICTED BY RF-SCORE:    0.00 PKD
ROOT
HETATM    1  C   UNL     1     -10.030  10.845  65.967  1.00  0.00    -0.240 C  
HETATM    2  C   UNL     1      -8.845  10.300  65.190  1.00  0.00    -0.205 C  
HETATM    3  C   UNL     1      -7.676  10.340  66.171  1.00  0.00    -0.123 C  
HETATM    4  O   UNL     1      -6.912  11.532  65.995  1.00  0.00    -0.366 OA 
HETATM    5  C   UNL     1      -8.286  10.335  67.589  1.00  0.00    -0.114 C  
HETATM    6  C   UNL     1     -10.873  13.875  67.531  1.00  0.00    -0.274 C  
HETATM    7  C   UNL     1      -9.820  10.387  67.398  1.00  0.00    -0.210 C  
HETATM    8  H   UNL     1      -6.184  11.557  66.605  1.00  0.00     0.000 HD 
HETATM    9  C   UNL     1     -10.509  11.474  68.200  1.00  0.00    -0.216 C  
HETATM   10  O   UNL     1     -10.037  12.274  65.979  1.00  0.00    -0.237 OA 
HETATM   11  C   UNL     1     -10.483  12.625  67.243  1.00  0.00    -0.228 C  
ENDROOT
BRANCH   5  12
HETATM   12  C   UNL     1      -7.913   9.094  68.372  1.00  0.00    -0.103 C  
HETATM   13  C   UNL     1      -8.224   8.913  69.666  1.00  0.00    -0.114 C  
BRANCH  13  14
HETATM   14  C   UNL     1      -7.988   7.637  70.424  1.00  0.00    -0.097 C  
HETATM   15  O   UNL     1      -7.788   7.976  71.790  1.00  0.00    -0.094 OA 
HETATM   16  H   UNL     1      -7.639   7.169  72.269  1.00  0.00     0.000 HD 
BRANCH  14  17
HETATM   17  C   UNL     1      -9.182   6.681  70.326  1.00  0.00    -0.156 C  
BRANCH  17  18
HETATM   18  C   UNL     1     -10.401   7.319  69.657  1.00  0.00    -0.227 C  
BRANCH  18  19
HETATM   19  C   UNL     1     -11.142   6.326  68.760  1.00  0.00    -0.424 C  
BRANCH  19  20
HETATM   20  C   UNL     1     -10.887   6.633  67.285  1.00  0.00    -0.456 C  
HETATM   21  C   UNL     1     -10.554   5.374  66.502  1.00  0.00    -0.353 C  
ENDBRANCH  19  20
ENDBRANCH  18  19
ENDBRANCH  17  18
ENDBRANCH  14  17
ENDBRANCH  13  14
ENDBRANCH   5  12
BRANCH   6  22
HETATM   22  C   UNL     1     -10.895  15.006  66.543  1.00  0.00    -0.320 C  
BRANCH  22  23
HETATM   23  C   UNL     1     -10.896  16.365  67.239  1.00  0.00    -0.194 C  
BRANCH  23  24
HETATM   24  C   UNL     1      -9.661  17.171  66.846  1.00  0.00    -0.270 C  
HETATM   25  C   UNL     1      -8.741  17.414  68.014  1.00  0.00    -0.241 C  
HETATM   26  O   UNL     1      -8.481  18.523  68.455  1.00  0.00    -0.322 OA 
HETATM   27  O   UNL     1      -8.187  16.288  68.515  1.00  0.00    -0.176 OA 
ENDBRANCH  23  24
ENDBRANCH  22  23
ENDBRANCH   6  22
TORSDOF 9
ENDMDL
MODEL      200
REMARK 921   NORMALIZED FREE ENERGY PREDICTED BY IDOCK:   -3.82 KCAL/MOL
REMARK 922        TOTAL FREE ENERGY PREDICTED BY IDOCK:   -6.98 KCAL/MOL
REMARK 923 INTER-LIGAND FREE ENERGY PREDICTED BY IDOCK:   -6.08 KCAL/MOL
REMARK 924 INTRA-LIGAND FREE ENERGY PREDICTED BY IDOCK:   -0.90 KCAL/MOL
REMARK 927      BINDING AFFINITY PREDICTED BY RF-SCORE:    0.00 PKD
ROOT
HETATM    1  C   UNL     1      -8.780   7.455  68.782  1.00  0.00    -0.128 C  
HETATM    2  C   UNL     1      -8.401   7.046  67.370  1.00  0.00    -0.122 C  
HETATM    3  C   UNL     1      -9.640   7.338  66.527  1.00  0.00    -0.149 C  
HETATM    4  O   UNL     1     -10.433   6.161  66.376  1.00  0.00    -0.421 OA 
HETATM    5  C   UNL     1     -10.456   8.403  67.290  1.00  0.00    -0.373 C  
HETATM    6  C   UNL     1     -11.171   6.473  71.162  1.00  0.00    -0.353 C  
HETATM    7  C   UNL     1      -9.709   8.644  68.623  1.00  0.00    -0.171 C  
HETATM    8  H   UNL     1     -11.204   6.342  65.852  1.00  0.00     0.000 HD 
HETATM    9  C   UNL     1     -10.590   8.546  69.853  1.00  0.00    -0.228 C  
HETATM   10  O   UNL     1      -9.521   6.428  69.445  1.00  0.00    -0.140 OA 
HETATM   11  C   UNL     1     -10.471   7.095  70.202  1.00  0.00    -0.216 C  
ENDROOT
BRANCH   5  12
HETATM   12  C   UNL     1     -10.561   9.704  66.523  1.00  0.00    -0.142 C  
HETATM   13  C   UNL     1     -10.828  10.886  67.103  1.00  0.00    -0.337 C  
BRANCH  13  14
HETATM   14  C   UNL     1     -10.801  12.207  66.387  1.00  0.00    -0.271 C  
HETATM   15  O   UNL     1     -12.145  12.577  66.110  1.00  0.00    -0.571 OA 
HETATM   16  H   UNL     1     -12.127  13.412  65.657  1.00  0.00     0.000 HD 
BRANCH  14  17
HETATM   17  C   UNL     1     -10.156  13.308  67.237  1.00  0.00    -0.234 C  
BRANCH  17  18
HETATM   18  C   UNL     1     -10.891  13.547  68.558  1.00  0.00    -0.283 C  
BRANCH  18  19
HETATM   19  C   UNL     1     -11.369  14.993  68.688  1.00  0.00    -0.311 C  
BRANCH  19  20
HETATM   20  C   UNL     1     -12.290  15.154  69.898  1.00  0.00    -0.314 C  
HETATM   21  C   UNL     1     -12.313  13.898  70.752  1.00  0.00    -0.449 C  
ENDBRANCH  19  20
ENDBRANCH  18  19
ENDBRANCH  17  18
ENDBRANCH  14  17
ENDBRANCH  13  14
ENDBRANCH   5  12
BRANCH   6  22
HETATM   22  C   UNL     1     -10.998   5.029  71.537  1.00  0.00     0.064 C  
BRANCH  22  23
HETATM   23  C   UNL     1     -11.350   4.780  73.003  1.00  0.00    -0.325 C  
BRANCH  23  24
HETATM   24  C   UNL     1     -10.127   4.291  73.773  1.00  0.00    -0.193 C  
HETATM   25  C   UNL     1      -9.045   5.337  73.851  1.00  0.00    -0.122 C  
HETATM   26  O   UNL     1      -7.935   5.205  73.358  1.00  0.00    -0.108 OA 
HETATM   27  O   UNL     1      -9.396   6.433  74.559  1.00  0.00    -0.182 OA 
ENDBRANCH  23  24
ENDBRANCH  22  23
ENDBRANCH   6  22
TORSDOF 9
ENDMDL
MODEL      201
REMARK 921   NORMALIZED FREE ENERGY PREDICTED BY IDOCK:   -3.81 KCAL/MOL
REMARK 922        TOTAL FREE ENERGY PREDICTED BY IDOCK:   -6.97 KCAL/MOL
REMARK 923 INTER-LIGAND FREE ENERGY PREDICTED BY IDOCK:   -6.11 KCAL/MOL
REMARK 924 INTRA-LIGAND FREE ENERGY PREDICTED BY IDOCK:   -0.86 KCAL/MOL
REMARK 927      BINDING AFFINITY PREDICTED BY RF-SCORE:    0.00 PKD
ROOT
HETATM    1  C   UNL     1      -6.464  14.323  67.461  1.00  0.00    -0.041 C  
HETATM    2  C   UNL     1      -5.501  13.545  68.340  1.00  0.00    -0.095 C  
HETATM    3  C   UNL     1      -6.389  12.792  69.329  1.00  0.00    -0.108 C  
HETATM    4  O   UNL     1      -6.509  13.519  70.551  1.00  0.00    -0.397 OA 
HETATM    5  C   UNL     1      -7.781  12.672  68.673  1.00  0.00    -0.066 C  
HETATM    6  C   UNL     1      -8.852  16.858  67.923  1.00  0.00    -0.218 C  
HETATM    7  C   UNL     1      -7.698  13.450  67.338  1.00  0.00    -0.146 C  
HETATM    8  H   UNL     1      -7.061  13.051  71.166  1.00  0.00     0.000 HD 
HETATM    9  C   UNL     1      -8.806  14.464  67.140  1.00  0.00    -0.244 C  
HETATM   10  O   UNL     1      -6.872  15.544  68.083  1.00  0.00    -0.110 OA 
HETATM   11  C   UNL     1      -8.207  15.697  67.743  1.00  0.00    -0.145 C  
ENDROOT
BRANCH   5  12
HETATM   12  C   UNL     1      -8.167  11.234  68.401  1.00  0.00    -0.149 C  
HETATM   13  C   UNL     1      -8.559  10.377  69.359  1.00  0.00    -0.143 C  
BRANCH  13  14
HETATM   14  C   UNL     1      -9.077   8.992  69.096  1.00  0.00    -0.140 C  
HETATM   15  O   UNL     1      -8.382   8.099  69.957  1.00  0.00    -0.118 OA 
HETATM   16  H   UNL     1      -8.710   7.223  69.792  1.00  0.00     0.000 HD 
BRANCH  14  17
HETATM   17  C   UNL     1     -10.579   8.877  69.381  1.00  0.00    -0.226 C  
BRANCH  17  18
HETATM   18  C   UNL     1     -11.064   9.884  70.426  1.00  0.00    -0.382 C  
BRANCH  18  19
HETATM   19  C   UNL     1     -11.524   9.193  71.710  1.00  0.00    -0.452 C  
BRANCH  19  20
HETATM   20  C   UNL     1     -13.005   8.823  71.627  1.00  0.00    -0.390 C  
HETATM   21  C   UNL     1     -13.204   7.317  71.606  1.00  0.00    -0.421 C  
ENDBRANCH  19  20
ENDBRANCH  18  19
ENDBRANCH  17  18
ENDBRANCH  14  17
ENDBRANCH  13  14
ENDBRANCH   5  12
BRANCH   6  22
HETATM   22  C   UNL     1      -8.219  18.102  68.476  1.00  0.00    -0.320 C  
BRANCH  22  23
HETATM   23  C   UNL     1      -7.696  19.012  67.366  1.00  0.00    -0.254 C  
BRANCH  23  24
HETATM   24  C   UNL     1      -8.793  19.303  66.348  1.00  0.00    -0.365 C  
HETATM   25  C   UNL     1     -10.003  19.943  66.979  1.00  0.00    -0.428 C  
HETATM   26  O   UNL     1     -11.110  19.428  67.003  1.00  0.00    -0.420 OA 
HETATM   27  O   UNL     1      -9.766  21.172  67.488  1.00  0.00    -0.333 OA 
ENDBRANCH  23  24
ENDBRANCH  22  23
ENDBRANCH   6  22
TORSDOF 9
ENDMDL
MODEL      202
REMARK 921   NORMALIZED FREE ENERGY PREDICTED BY IDOCK:   -3.81 KCAL/MOL
REMARK 922        TOTAL FREE ENERGY PREDICTED BY IDOCK:   -6.96 KCAL/MOL
REMARK 923 INTER-LIGAND FREE ENERGY PREDICTED BY IDOCK:   -6.08 KCAL/MOL
REMARK 924 INTRA-LIGAND FREE ENERGY PREDICTED BY IDOCK:   -0.88 KCAL/MOL
REMARK 927      BINDING AFFINITY PREDICTED BY RF-SCORE:    0.00 PKD
ROOT
HETATM    1  C   UNL     1      -8.923   9.996  67.243  1.00  0.00    -0.135 C  
HETATM    2  C   UNL     1      -8.834  11.038  66.143  1.00  0.00    -0.197 C  
HETATM    3  C   UNL     1     -10.181  11.757  66.171  1.00  0.00    -0.220 C  
HETATM    4  O   UNL     1     -11.071  11.194  65.207  1.00  0.00    -0.147 OA 
HETATM    5  C   UNL     1     -10.767  11.549  67.583  1.00  0.00    -0.255 C  
HETATM    6  C   UNL     1     -10.909   7.180  67.928  1.00  0.00    -0.219 C  
HETATM    7  C   UNL     1      -9.777  10.623  68.328  1.00  0.00    -0.169 C  
HETATM    8  H   UNL     1     -11.909  11.641  65.224  1.00  0.00     0.000 HD 
HETATM    9  C   UNL     1     -10.426   9.418  68.980  1.00  0.00    -0.233 C  
HETATM   10  O   UNL     1      -9.603   8.820  66.798  1.00  0.00    -0.172 OA 
HETATM   11  C   UNL     1     -10.351   8.398  67.886  1.00  0.00    -0.221 C  
ENDROOT
BRANCH   5  12
HETATM   12  C   UNL     1     -10.915  12.851  68.342  1.00  0.00    -0.285 C  
HETATM   13  C   UNL     1     -11.198  14.024  67.753  1.00  0.00    -0.302 C  
BRANCH  13  14
HETATM   14  C   UNL     1     -11.486  15.298  68.496  1.00  0.00    -0.342 C  
HETATM   15  O   UNL     1     -10.914  15.182  69.792  1.00  0.00    -0.254 OA 
HETATM   16  H   UNL     1     -11.096  15.987  70.261  1.00  0.00     0.000 HD 
BRANCH  14  17
HETATM   17  C   UNL     1     -10.875  16.520  67.800  1.00  0.00    -0.304 C  
BRANCH  17  18
HETATM   18  C   UNL     1     -10.285  17.532  68.785  1.00  0.00    -0.373 C  
BRANCH  18  19
HETATM   19  C   UNL     1      -9.023  18.193  68.230  1.00  0.00    -0.306 C  
BRANCH  19  20
HETATM   20  C   UNL     1      -8.071  17.146  67.652  1.00  0.00    -0.187 C  
HETATM   21  C   UNL     1      -7.508  17.583  66.310  1.00  0.00    -0.355 C  
ENDBRANCH  19  20
ENDBRANCH  18  19
ENDBRANCH  17  18
ENDBRANCH  14  17
ENDBRANCH  13  14
ENDBRANCH   5  12
BRANCH   6  22
HETATM   22  C   UNL     1     -10.775   6.148  66.846  1.00  0.00    -0.413 C  
BRANCH  22  23
HETATM   23  C   UNL     1      -9.666   5.145  67.155  1.00  0.00    -0.171 C  
BRANCH  23  24
HETATM   24  C   UNL     1      -9.841   3.877  66.324  1.00  0.00    -0.131 C  
HETATM   25  C   UNL     1     -10.066   4.177  64.865  1.00  0.00    -0.202 C  
HETATM   26  O   UNL     1     -11.089   3.892  64.262  1.00  0.00    -0.341 OA 
HETATM   27  O   UNL     1      -9.007   4.759  64.259  1.00  0.00    -0.152 OA 
ENDBRANCH  23  24
ENDBRANCH  22  23
ENDBRANCH   6  22
TORSDOF 9
ENDMDL
MODEL      203
REMARK 921   NORMALIZED FREE ENERGY PREDICTED BY IDOCK:   -3.80 KCAL/MOL
REMARK 922        TOTAL FREE ENERGY PREDICTED BY IDOCK:   -6.94 KCAL/MOL
REMARK 923 INTER-LIGAND FREE ENERGY PREDICTED BY IDOCK:   -6.15 KCAL/MOL
REMARK 924 INTRA-LIGAND FREE ENERGY PREDICTED BY IDOCK:   -0.79 KCAL/MOL
REMARK 927      BINDING AFFINITY PREDICTED BY RF-SCORE:    0.00 PKD
ROOT
HETATM    1  C   UNL     1      -8.852  11.823  67.527  1.00  0.00    -0.162 C  
HETATM    2  C   UNL     1      -8.488  11.067  68.793  1.00  0.00    -0.144 C  
HETATM    3  C   UNL     1      -9.710  10.208  69.106  1.00  0.00    -0.215 C  
HETATM    4  O   UNL     1     -10.556  10.862  70.051  1.00  0.00    -0.454 OA 
HETATM    5  C   UNL     1     -10.478  10.028  67.779  1.00  0.00    -0.282 C  
HETATM    6  C   UNL     1     -11.290  14.165  66.573  1.00  0.00    -0.348 C  
HETATM    7  C   UNL     1      -9.725  10.876  66.727  1.00  0.00    -0.221 C  
HETATM    8  H   UNL     1     -11.317  10.327  70.246  1.00  0.00     0.000 HD 
HETATM    9  C   UNL     1     -10.612  11.822  65.942  1.00  0.00    -0.314 C  
HETATM   10  O   UNL     1      -9.640  12.980  67.816  1.00  0.00    -0.195 OA 
HETATM   11  C   UNL     1     -10.561  13.060  66.783  1.00  0.00    -0.262 C  
ENDROOT
BRANCH   5  12
HETATM   12  C   UNL     1     -10.522   8.583  67.331  1.00  0.00    -0.351 C  
HETATM   13  C   UNL     1      -9.468   7.938  66.804  1.00  0.00    -0.257 C  
BRANCH  13  14
HETATM   14  C   UNL     1      -9.447   6.470  66.482  1.00  0.00    -0.154 C  
HETATM   15  O   UNL     1      -8.160   6.159  65.964  1.00  0.00    -0.108 OA 
HETATM   16  H   UNL     1      -8.147   5.232  65.760  1.00  0.00     0.000 HD 
BRANCH  14  17
HETATM   17  C   UNL     1      -9.697   5.606  67.722  1.00  0.00    -0.140 C  
BRANCH  17  18
HETATM   18  C   UNL     1      -8.688   4.462  67.863  1.00  0.00    -0.116 C  
BRANCH  18  19
HETATM   19  C   UNL     1      -9.383   3.106  67.995  1.00  0.00    -0.248 C  
BRANCH  19  20
HETATM   20  C   UNL     1      -8.827   2.112  66.975  1.00  0.00    -0.149 C  
HETATM   21  C   UNL     1      -7.761   2.747  66.099  1.00  0.00    -0.077 C  
ENDBRANCH  19  20
ENDBRANCH  18  19
ENDBRANCH  17  18
ENDBRANCH  14  17
ENDBRANCH  13  14
ENDBRANCH   5  12
BRANCH   6  22
HETATM   22  C   UNL     1     -11.185  15.419  67.392  1.00  0.00    -0.287 C  
BRANCH  22  23
HETATM   23  C   UNL     1     -10.435  16.521  66.645  1.00  0.00    -0.266 C  
BRANCH  23  24
HETATM   24  C   UNL     1     -10.626  17.866  67.339  1.00  0.00    -0.370 C  
HETATM   25  C   UNL     1      -9.448  18.785  67.139  1.00  0.00    -0.305 C  
HETATM   26  O   UNL     1      -8.740  19.190  68.048  1.00  0.00    -0.292 OA 
HETATM   27  O   UNL     1      -9.262  19.161  65.854  1.00  0.00    -0.436 OA 
ENDBRANCH  23  24
ENDBRANCH  22  23
ENDBRANCH   6  22
TORSDOF 9
ENDMDL
MODEL      204
REMARK 921   NORMALIZED FREE ENERGY PREDICTED BY IDOCK:   -3.78 KCAL/MOL
REMARK 922        TOTAL FREE ENERGY PREDICTED BY IDOCK:   -6.92 KCAL/MOL
REMARK 923 INTER-LIGAND FREE ENERGY PREDICTED BY IDOCK:   -6.11 KCAL/MOL
REMARK 924 INTRA-LIGAND FREE ENERGY PREDICTED BY IDOCK:   -0.81 KCAL/MOL
REMARK 927      BINDING AFFINITY PREDICTED BY RF-SCORE:    0.00 PKD
ROOT
HETATM    1  C   UNL     1     -10.886  12.389  66.646  1.00  0.00    -0.246 C  
HETATM    2  C   UNL     1     -12.169  13.027  67.148  1.00  0.00    -0.200 C  
HETATM    3  C   UNL     1     -11.735  13.938  68.294  1.00  0.00    -0.361 C  
HETATM    4  O   UNL     1     -11.881  13.274  69.548  1.00  0.00    -0.299 OA 
HETATM    5  C   UNL     1     -10.244  14.261  68.064  1.00  0.00    -0.226 C  
HETATM    6  C   UNL     1      -8.405  10.282  67.966  1.00  0.00    -0.114 C  
HETATM    7  C   UNL     1      -9.812  13.445  66.823  1.00  0.00    -0.265 C  
HETATM    8  H   UNL     1     -11.612  13.841  70.261  1.00  0.00     0.000 HD 
HETATM    9  C   UNL     1      -8.560  12.615  67.030  1.00  0.00    -0.181 C  
HETATM   10  O   UNL     1     -10.510  11.267  67.448  1.00  0.00    -0.196 OA 
HETATM   11  C   UNL     1      -9.127  11.320  67.522  1.00  0.00    -0.151 C  
ENDROOT
BRANCH   5  12
HETATM   12  C   UNL     1     -10.006  15.735  67.810  1.00  0.00    -0.227 C  
HETATM   13  C   UNL     1     -10.174  16.317  66.611  1.00  0.00    -0.287 C  
BRANCH  13  14
HETATM   14  C   UNL     1     -10.079  17.797  66.367  1.00  0.00    -0.357 C  
HETATM   15  O   UNL     1     -10.956  18.115  65.294  1.00  0.00    -0.571 OA 
HETATM   16  H   UNL     1     -10.896  19.051  65.140  1.00  0.00     0.000 HD 
BRANCH  14  17
HETATM   17  C   UNL     1     -10.497  18.610  67.597  1.00  0.00    -0.468 C  
BRANCH  17  18
HETATM   18  C   UNL     1      -9.521  19.744  67.920  1.00  0.00    -0.458 C  
BRANCH  18  19
HETATM   19  C   UNL     1      -8.510  19.335  68.992  1.00  0.00    -0.259 C  
BRANCH  19  20
HETATM   20  C   UNL     1      -7.085  19.382  68.440  1.00  0.00    -0.339 C  
HETATM   21  C   UNL     1      -6.918  20.495  67.418  1.00  0.00    -0.363 C  
ENDBRANCH  19  20
ENDBRANCH  18  19
ENDBRANCH  17  18
ENDBRANCH  14  17
ENDBRANCH  13  14
ENDBRANCH   5  12
BRANCH   6  22
HETATM   22  C   UNL     1      -8.987   8.968  68.402  1.00  0.00    -0.133 C  
BRANCH  22  23
HETATM   23  C   UNL     1      -8.823   7.893  67.328  1.00  0.00    -0.131 C  
BRANCH  23  24
HETATM   24  C   UNL     1      -7.346   7.631  67.053  1.00  0.00    -0.090 C  
HETATM   25  C   UNL     1      -6.942   8.045  65.661  1.00  0.00    -0.063 C  
HETATM   26  O   UNL     1      -6.534   7.268  64.812  1.00  0.00    -0.037 OA 
HETATM   27  O   UNL     1      -7.031   9.376  65.442  1.00  0.00    -0.086 OA 
ENDBRANCH  23  24
ENDBRANCH  22  23
ENDBRANCH   6  22
TORSDOF 9
ENDMDL
MODEL      205
REMARK 921   NORMALIZED FREE ENERGY PREDICTED BY IDOCK:   -3.78 KCAL/MOL
REMARK 922        TOTAL FREE ENERGY PREDICTED BY IDOCK:   -6.91 KCAL/MOL
REMARK 923 INTER-LIGAND FREE ENERGY PREDICTED BY IDOCK:   -5.59 KCAL/MOL
REMARK 924 INTRA-LIGAND FREE ENERGY PREDICTED BY IDOCK:   -1.33 KCAL/MOL
REMARK 927      BINDING AFFINITY PREDICTED BY RF-SCORE:    0.00 PKD
ROOT
HETATM    1  C   UNL     1      -8.440   9.215  67.481  1.00  0.00    -0.116 C  
HETATM    2  C   UNL     1      -7.755   9.532  66.163  1.00  0.00    -0.101 C  
HETATM    3  C   UNL     1      -8.884   9.605  65.138  1.00  0.00    -0.180 C  
HETATM    4  O   UNL     1      -9.032   8.356  64.463  1.00  0.00    -0.404 OA 
HETATM    5  C   UNL     1     -10.177   9.911  65.923  1.00  0.00    -0.264 C  
HETATM    6  C   UNL     1     -10.379   6.588  68.776  1.00  0.00    -0.220 C  
HETATM    7  C   UNL     1      -9.783   9.918  67.418  1.00  0.00    -0.199 C  
HETATM    8  H   UNL     1      -9.734   8.401  63.825  1.00  0.00     0.000 HD 
HETATM    9  C   UNL     1     -10.658   9.045  68.295  1.00  0.00    -0.213 C  
HETATM   10  O   UNL     1      -8.703   7.816  67.613  1.00  0.00    -0.125 OA 
HETATM   11  C   UNL     1      -9.933   7.736  68.246  1.00  0.00    -0.178 C  
ENDROOT
BRANCH   5  12
HETATM   12  C   UNL     1     -10.774  11.251  65.548  1.00  0.00    -0.283 C  
HETATM   13  C   UNL     1     -10.409  11.946  64.457  1.00  0.00    -0.334 C  
BRANCH  13  14
HETATM   14  C   UNL     1     -11.082  13.206  63.991  1.00  0.00    -0.361 C  
HETATM   15  O   UNL     1     -12.423  12.881  63.650  1.00  0.00    -0.652 OA 
HETATM   16  H   UNL     1     -12.848  13.678  63.356  1.00  0.00     0.000 HD 
BRANCH  14  17
HETATM   17  C   UNL     1     -11.102  14.283  65.081  1.00  0.00    -0.354 C  
BRANCH  17  18
HETATM   18  C   UNL     1      -9.723  14.900  65.334  1.00  0.00    -0.211 C  
BRANCH  18  19
HETATM   19  C   UNL     1      -9.519  15.248  66.808  1.00  0.00    -0.264 C  
BRANCH  19  20
HETATM   20  C   UNL     1     -10.124  14.171  67.709  1.00  0.00    -0.239 C  
HETATM   21  C   UNL     1      -9.086  13.141  68.122  1.00  0.00    -0.200 C  
ENDBRANCH  19  20
ENDBRANCH  18  19
ENDBRANCH  17  18
ENDBRANCH  14  17
ENDBRANCH  13  14
ENDBRANCH   5  12
BRANCH   6  22
HETATM   22  C   UNL     1      -9.613   5.296  68.768  1.00  0.00    -0.187 C  
BRANCH  22  23
HETATM   23  C   UNL     1      -9.657   4.604  70.129  1.00  0.00    -0.266 C  
BRANCH  23  24
HETATM   24  C   UNL     1      -8.457   5.012  70.978  1.00  0.00    -0.122 C  
HETATM   25  C   UNL     1      -7.448   3.901  71.112  1.00  0.00    -0.044 C  
HETATM   26  O   UNL     1      -7.153   3.375  72.174  1.00  0.00    -0.039 OA 
HETATM   27  O   UNL     1      -6.857   3.558  69.946  1.00  0.00    -0.033 OA 
ENDBRANCH  23  24
ENDBRANCH  22  23
ENDBRANCH   6  22
TORSDOF 9
ENDMDL
MODEL      206
REMARK 921   NORMALIZED FREE ENERGY PREDICTED BY IDOCK:   -3.76 KCAL/MOL
REMARK 922        TOTAL FREE ENERGY PREDICTED BY IDOCK:   -6.89 KCAL/MOL
REMARK 923 INTER-LIGAND FREE ENERGY PREDICTED BY IDOCK:   -5.96 KCAL/MOL
REMARK 924 INTRA-LIGAND FREE ENERGY PREDICTED BY IDOCK:   -0.93 KCAL/MOL
REMARK 927      BINDING AFFINITY PREDICTED BY RF-SCORE:    0.00 PKD
ROOT
HETATM    1  C   UNL     1      -8.112   7.968  66.763  1.00  0.00    -0.107 C  
HETATM    2  C   UNL     1      -6.783   8.059  67.493  1.00  0.00    -0.069 C  
HETATM    3  C   UNL     1      -7.088   8.834  68.773  1.00  0.00    -0.063 C  
HETATM    4  O   UNL     1      -6.793  10.220  68.604  1.00  0.00    -0.056 OA 
HETATM    5  C   UNL     1      -8.598   8.667  69.044  1.00  0.00    -0.129 C  
HETATM    6  C   UNL     1     -10.411  10.230  65.371  1.00  0.00    -0.125 C  
HETATM    7  C   UNL     1      -9.165   7.865  67.850  1.00  0.00    -0.139 C  
HETATM    8  H   UNL     1      -6.982  10.702  69.400  1.00  0.00     0.000 HD 
HETATM    9  C   UNL     1     -10.379   8.496  67.199  1.00  0.00    -0.377 C  
HETATM   10  O   UNL     1      -8.386   9.160  66.023  1.00  0.00    -0.115 OA 
HETATM   11  C   UNL     1      -9.752   9.361  66.150  1.00  0.00    -0.265 C  
ENDROOT
BRANCH   5  12
HETATM   12  C   UNL     1      -8.872   7.921  70.333  1.00  0.00    -0.142 C  
HETATM   13  C   UNL     1      -9.185   8.530  71.489  1.00  0.00    -0.288 C  
BRANCH  13  14
HETATM   14  C   UNL     1      -9.595   7.809  72.742  1.00  0.00    -0.221 C  
HETATM   15  O   UNL     1      -9.156   8.583  73.851  1.00  0.00    -0.127 OA 
HETATM   16  H   UNL     1      -9.415   8.127  74.643  1.00  0.00     0.000 HD 
BRANCH  14  17
HETATM   17  C   UNL     1     -11.116   7.639  72.836  1.00  0.00    -0.448 C  
BRANCH  17  18
HETATM   18  C   UNL     1     -11.592   6.267  72.352  1.00  0.00    -0.325 C  
BRANCH  18  19
HETATM   19  C   UNL     1     -11.019   5.134  73.204  1.00  0.00    -0.368 C  
BRANCH  19  20
HETATM   20  C   UNL     1     -10.168   4.192  72.352  1.00  0.00    -0.239 C  
HETATM   21  C   UNL     1     -10.399   2.738  72.727  1.00  0.00    -0.236 C  
ENDBRANCH  19  20
ENDBRANCH  18  19
ENDBRANCH  17  18
ENDBRANCH  14  17
ENDBRANCH  13  14
ENDBRANCH   5  12
BRANCH   6  22
HETATM   22  C   UNL     1      -9.775  11.048  64.285  1.00  0.00    -0.333 C  
BRANCH  22  23
HETATM   23  C   UNL     1     -10.400  12.439  64.184  1.00  0.00    -0.409 C  
BRANCH  23  24
HETATM   24  C   UNL     1     -10.354  13.146  65.535  1.00  0.00    -0.299 C  
HETATM   25  C   UNL     1     -10.162  14.634  65.394  1.00  0.00    -0.387 C  
HETATM   26  O   UNL     1      -9.186  15.236  65.817  1.00  0.00    -0.289 OA 
HETATM   27  O   UNL     1     -11.193  15.263  64.788  1.00  0.00    -0.405 OA 
ENDBRANCH  23  24
ENDBRANCH  22  23
ENDBRANCH   6  22
TORSDOF 9
ENDMDL
MODEL      207
REMARK 921   NORMALIZED FREE ENERGY PREDICTED BY IDOCK:   -3.75 KCAL/MOL
REMARK 922        TOTAL FREE ENERGY PREDICTED BY IDOCK:   -6.87 KCAL/MOL
REMARK 923 INTER-LIGAND FREE ENERGY PREDICTED BY IDOCK:   -5.25 KCAL/MOL
REMARK 924 INTRA-LIGAND FREE ENERGY PREDICTED BY IDOCK:   -1.62 KCAL/MOL
REMARK 927      BINDING AFFINITY PREDICTED BY RF-SCORE:    0.00 PKD
ROOT
HETATM    1  C   UNL     1     -10.368   8.242  68.379  1.00  0.00    -0.199 C  
HETATM    2  C   UNL     1      -9.072   8.642  67.696  1.00  0.00    -0.145 C  
HETATM    3  C   UNL     1      -8.212   7.381  67.710  1.00  0.00    -0.119 C  
HETATM    4  O   UNL     1      -7.323   7.392  68.827  1.00  0.00    -0.090 OA 
HETATM    5  C   UNL     1      -9.178   6.186  67.845  1.00  0.00    -0.115 C  
HETATM    6  C   UNL     1     -11.320   7.098  71.561  1.00  0.00    -0.285 C  
HETATM    7  C   UNL     1     -10.593   6.790  68.002  1.00  0.00    -0.283 C  
HETATM    8  H   UNL     1      -6.787   6.608  68.836  1.00  0.00     0.000 HD 
HETATM    9  C   UNL     1     -11.370   6.254  69.188  1.00  0.00    -0.358 C  
HETATM   10  O   UNL     1     -10.248   8.293  69.803  1.00  0.00    -0.194 OA 
HETATM   11  C   UNL     1     -10.983   7.215  70.269  1.00  0.00    -0.263 C  
ENDROOT
BRANCH   5  12
HETATM   12  C   UNL     1      -9.144   5.278  66.634  1.00  0.00    -0.122 C  
HETATM   13  C   UNL     1     -10.229   4.657  66.142  1.00  0.00    -0.308 C  
BRANCH  13  14
HETATM   14  C   UNL     1     -10.246   3.866  64.864  1.00  0.00    -0.164 C  
HETATM   15  O   UNL     1     -11.400   4.255  64.130  1.00  0.00    -0.509 OA 
HETATM   16  H   UNL     1     -11.411   3.755  63.323  1.00  0.00     0.000 HD 
BRANCH  14  17
HETATM   17  C   UNL     1      -9.006   4.135  64.005  1.00  0.00    -0.141 C  
BRANCH  17  18
HETATM   18  C   UNL     1      -8.237   2.859  63.655  1.00  0.00    -0.085 C  
BRANCH  18  19
HETATM   19  C   UNL     1      -8.214   1.872  64.823  1.00  0.00    -0.079 C  
BRANCH  19  20
HETATM   20  C   UNL     1      -7.073   2.200  65.787  1.00  0.00    -0.055 C  
HETATM   21  C   UNL     1      -7.524   2.111  67.236  1.00  0.00    -0.060 C  
ENDBRANCH  19  20
ENDBRANCH  18  19
ENDBRANCH  17  18
ENDBRANCH  14  17
ENDBRANCH  13  14
ENDBRANCH   5  12
BRANCH   6  22
HETATM   22  C   UNL     1     -10.972   8.101  72.623  1.00  0.00    -0.440 C  
BRANCH  22  23
HETATM   23  C   UNL     1      -9.882   7.580  73.558  1.00  0.00    -0.372 C  
BRANCH  23  24
HETATM   24  C   UNL     1      -8.589   7.329  72.788  1.00  0.00    -0.141 C  
HETATM   25  C   UNL     1      -7.749   8.573  72.660  1.00  0.00    -0.014 C  
HETATM   26  O   UNL     1      -7.476   9.102  71.594  1.00  0.00    -0.326 OA 
HETATM   27  O   UNL     1      -7.282   9.039  73.839  1.00  0.00    -0.380 OA 
ENDBRANCH  23  24
ENDBRANCH  22  23
ENDBRANCH   6  22
TORSDOF 9
ENDMDL
MODEL      208
REMARK 921   NORMALIZED FREE ENERGY PREDICTED BY IDOCK:   -3.73 KCAL/MOL
REMARK 922        TOTAL FREE ENERGY PREDICTED BY IDOCK:   -6.84 KCAL/MOL
REMARK 923 INTER-LIGAND FREE ENERGY PREDICTED BY IDOCK:   -5.81 KCAL/MOL
REMARK 924 INTRA-LIGAND FREE ENERGY PREDICTED BY IDOCK:   -1.03 KCAL/MOL
REMARK 927      BINDING AFFINITY PREDICTED BY RF-SCORE:    0.00 PKD
ROOT
HETATM    1  C   UNL     1      -7.527  15.786  67.212  1.00  0.00    -0.217 C  
HETATM    2  C   UNL     1      -6.085  15.393  67.480  1.00  0.00    -0.095 C  
HETATM    3  C   UNL     1      -6.138  14.525  68.735  1.00  0.00    -0.087 C  
HETATM    4  O   UNL     1      -5.869  15.306  69.898  1.00  0.00    -0.118 OA 
HETATM    5  C   UNL     1      -7.572  13.962  68.825  1.00  0.00    -0.108 C  
HETATM    6  C   UNL     1     -10.027  17.594  68.891  1.00  0.00    -0.324 C  
HETATM    7  C   UNL     1      -8.359  14.597  67.655  1.00  0.00    -0.186 C  
HETATM    8  H   UNL     1      -5.901  14.766  70.679  1.00  0.00     0.000 HD 
HETATM    9  C   UNL     1      -9.668  15.241  68.065  1.00  0.00    -0.211 C  
HETATM   10  O   UNL     1      -7.925  16.900  68.014  1.00  0.00    -0.176 OA 
HETATM   11  C   UNL     1      -9.241  16.644  68.366  1.00  0.00    -0.225 C  
ENDROOT
BRANCH   5  12
HETATM   12  C   UNL     1      -7.606  12.453  68.701  1.00  0.00    -0.082 C  
HETATM   13  C   UNL     1      -6.716  11.640  69.294  1.00  0.00    -0.115 C  
BRANCH  13  14
HETATM   14  C   UNL     1      -6.810  10.140  69.299  1.00  0.00    -0.063 C  
HETATM   15  O   UNL     1      -6.981   9.722  70.647  1.00  0.00    -0.155 OA 
HETATM   16  H   UNL     1      -7.041   8.775  70.650  1.00  0.00     0.000 HD 
BRANCH  14  17
HETATM   17  C   UNL     1      -8.001   9.637  68.476  1.00  0.00    -0.089 C  
BRANCH  17  18
HETATM   18  C   UNL     1      -9.177   9.186  69.346  1.00  0.00    -0.156 C  
BRANCH  18  19
HETATM   19  C   UNL     1     -10.517   9.655  68.777  1.00  0.00    -0.238 C  
BRANCH  19  20
HETATM   20  C   UNL     1     -10.624   9.313  67.291  1.00  0.00    -0.303 C  
HETATM   21  C   UNL     1     -10.525   7.815  67.054  1.00  0.00    -0.419 C  
ENDBRANCH  19  20
ENDBRANCH  18  19
ENDBRANCH  17  18
ENDBRANCH  14  17
ENDBRANCH  13  14
ENDBRANCH   5  12
BRANCH   6  22
HETATM   22  C   UNL     1      -9.598  19.013  69.133  1.00  0.00    -0.278 C  
BRANCH  22  23
HETATM   23  C   UNL     1     -10.460  20.005  68.353  1.00  0.00    -0.369 C  
BRANCH  23  24
HETATM   24  C   UNL     1      -9.702  20.537  67.140  1.00  0.00    -0.581 C  
HETATM   25  C   UNL     1      -9.522  19.487  66.074  1.00  0.00    -0.253 C  
HETATM   26  O   UNL     1      -8.434  19.068  65.711  1.00  0.00    -0.428 OA 
HETATM   27  O   UNL     1     -10.680  19.073  65.516  1.00  0.00    -0.536 OA 
ENDBRANCH  23  24
ENDBRANCH  22  23
ENDBRANCH   6  22
TORSDOF 9
ENDMDL
MODEL      209
REMARK 921   NORMALIZED FREE ENERGY PREDICTED BY IDOCK:   -3.71 KCAL/MOL
REMARK 922        TOTAL FREE ENERGY PREDICTED BY IDOCK:   -6.81 KCAL/MOL
REMARK 923 INTER-LIGAND FREE ENERGY PREDICTED BY IDOCK:   -5.58 KCAL/MOL
REMARK 924 INTRA-LIGAND FREE ENERGY PREDICTED BY IDOCK:   -1.22 KCAL/MOL
REMARK 927      BINDING AFFINITY PREDICTED BY RF-SCORE:    0.00 PKD
ROOT
HETATM    1  C   UNL     1      -8.576   9.393  69.420  1.00  0.00    -0.148 C  
HETATM    2  C   UNL     1      -7.561   9.989  68.461  1.00  0.00    -0.087 C  
HETATM    3  C   UNL     1      -8.146   9.754  67.070  1.00  0.00    -0.113 C  
HETATM    4  O   UNL     1      -7.606   8.565  66.492  1.00  0.00    -0.086 OA 
HETATM    5  C   UNL     1      -9.668   9.581  67.252  1.00  0.00    -0.215 C  
HETATM    6  C   UNL     1      -9.925   6.210  70.044  1.00  0.00    -0.217 C  
HETATM    7  C   UNL     1      -9.929   9.628  68.776  1.00  0.00    -0.184 C  
HETATM    8  H   UNL     1      -7.970   8.419  65.627  1.00  0.00     0.000 HD 
HETATM    9  C   UNL     1     -10.753   8.470  69.301  1.00  0.00    -0.147 C  
HETATM   10  O   UNL     1      -8.410   7.979  69.547  1.00  0.00    -0.123 OA 
HETATM   11  C   UNL     1      -9.695   7.469  69.646  1.00  0.00    -0.167 C  
ENDROOT
BRANCH   5  12
HETATM   12  C   UNL     1     -10.458  10.677  66.567  1.00  0.00    -0.285 C  
HETATM   13  C   UNL     1      -9.913  11.559  65.713  1.00  0.00    -0.271 C  
BRANCH  13  14
HETATM   14  C   UNL     1     -10.698  12.564  64.918  1.00  0.00    -0.295 C  
HETATM   15  O   UNL     1     -10.632  12.181  63.551  1.00  0.00    -0.414 OA 
HETATM   16  H   UNL     1     -11.128  12.817  63.048  1.00  0.00     0.000 HD 
BRANCH  14  17
HETATM   17  C   UNL     1     -12.170  12.609  65.343  1.00  0.00    -0.517 C  
BRANCH  17  18
HETATM   18  C   UNL     1     -12.513  13.851  66.169  1.00  0.00    -0.478 C  
BRANCH  18  19
HETATM   19  C   UNL     1     -12.177  13.659  67.649  1.00  0.00    -0.224 C  
BRANCH  19  20
HETATM   20  C   UNL     1     -11.578  14.935  68.239  1.00  0.00    -0.356 C  
HETATM   21  C   UNL     1     -10.192  14.689  68.812  1.00  0.00    -0.242 C  
ENDBRANCH  19  20
ENDBRANCH  18  19
ENDBRANCH  17  18
ENDBRANCH  14  17
ENDBRANCH  13  14
ENDBRANCH   5  12
BRANCH   6  22
HETATM   22  C   UNL     1      -8.852   5.237  70.442  1.00  0.00    -0.146 C  
BRANCH  22  23
HETATM   23  C   UNL     1      -8.323   4.457  69.240  1.00  0.00    -0.083 C  
BRANCH  23  24
HETATM   24  C   UNL     1      -9.472   3.825  68.461  1.00  0.00    -0.211 C  
HETATM   25  C   UNL     1      -9.541   4.321  67.040  1.00  0.00    -0.203 C  
HETATM   26  O   UNL     1     -10.484   4.950  66.584  1.00  0.00    -0.262 OA 
HETATM   27  O   UNL     1      -8.474   3.972  66.289  1.00  0.00    -0.108 OA 
ENDBRANCH  23  24
ENDBRANCH  22  23
ENDBRANCH   6  22
TORSDOF 9
ENDMDL
MODEL      210
REMARK 921   NORMALIZED FREE ENERGY PREDICTED BY IDOCK:   -3.71 KCAL/MOL
REMARK 922        TOTAL FREE ENERGY PREDICTED BY IDOCK:   -6.80 KCAL/MOL
REMARK 923 INTER-LIGAND FREE ENERGY PREDICTED BY IDOCK:   -5.59 KCAL/MOL
REMARK 924 INTRA-LIGAND FREE ENERGY PREDICTED BY IDOCK:   -1.21 KCAL/MOL
REMARK 927      BINDING AFFINITY PREDICTED BY RF-SCORE:    0.00 PKD
ROOT
HETATM    1  C   UNL     1      -9.105  11.228  66.396  1.00  0.00    -0.192 C  
HETATM    2  C   UNL     1     -10.500  11.164  65.800  1.00  0.00    -0.305 C  
HETATM    3  C   UNL     1     -11.430  11.620  66.922  1.00  0.00    -0.247 C  
HETATM    4  O   UNL     1     -11.960  10.496  67.625  1.00  0.00    -0.502 OA 
HETATM    5  C   UNL     1     -10.576  12.465  67.891  1.00  0.00    -0.231 C  
HETATM    6  C   UNL     1      -7.392   9.679  69.043  1.00  0.00    -0.073 C  
HETATM    7  C   UNL     1      -9.127  12.404  67.353  1.00  0.00    -0.183 C  
HETATM    8  H   UNL     1     -12.539  10.780  68.322  1.00  0.00     0.000 HD 
HETATM    9  C   UNL     1      -8.096  12.009  68.391  1.00  0.00    -0.154 C  
HETATM   10  O   UNL     1      -8.810  10.062  67.168  1.00  0.00    -0.134 OA 
HETATM   11  C   UNL     1      -8.071  10.519  68.249  1.00  0.00    -0.115 C  
ENDROOT
BRANCH   5  12
HETATM   12  C   UNL     1     -11.035  13.906  67.954  1.00  0.00    -0.265 C  
HETATM   13  C   UNL     1     -11.120  14.608  69.097  1.00  0.00    -0.285 C  
BRANCH  13  14
HETATM   14  C   UNL     1     -11.438  16.075  69.169  1.00  0.00    -0.347 C  
HETATM   15  O   UNL     1     -11.994  16.334  70.452  1.00  0.00    -0.417 OA 
HETATM   16  H   UNL     1     -12.195  17.261  70.498  1.00  0.00     0.000 HD 
BRANCH  14  17
HETATM   17  C   UNL     1     -10.188  16.943  68.993  1.00  0.00    -0.308 C  
BRANCH  17  18
HETATM   18  C   UNL     1      -8.887  16.151  69.149  1.00  0.00    -0.239 C  
BRANCH  18  19
HETATM   19  C   UNL     1      -7.780  16.694  68.244  1.00  0.00    -0.183 C  
BRANCH  19  20
HETATM   20  C   UNL     1      -8.149  16.519  66.771  1.00  0.00    -0.286 C  
HETATM   21  C   UNL     1      -7.211  17.298  65.864  1.00  0.00    -0.069 C  
ENDBRANCH  19  20
ENDBRANCH  18  19
ENDBRANCH  17  18
ENDBRANCH  14  17
ENDBRANCH  13  14
ENDBRANCH   5  12
BRANCH   6  22
HETATM   22  C   UNL     1      -7.332   8.191  68.851  1.00  0.00    -0.090 C  
BRANCH  22  23
HETATM   23  C   UNL     1      -8.246   7.457  69.830  1.00  0.00    -0.132 C  
BRANCH  23  24
HETATM   24  C   UNL     1      -9.506   6.966  69.124  1.00  0.00    -0.142 C  
HETATM   25  C   UNL     1     -10.318   6.034  69.986  1.00  0.00    -0.229 C  
HETATM   26  O   UNL     1     -10.532   4.864  69.707  1.00  0.00    -0.232 OA 
HETATM   27  O   UNL     1     -10.831   6.620  71.089  1.00  0.00    -0.228 OA 
ENDBRANCH  23  24
ENDBRANCH  22  23
ENDBRANCH   6  22
TORSDOF 9
ENDMDL
MODEL      211
REMARK 921   NORMALIZED FREE ENERGY PREDICTED BY IDOCK:   -3.70 KCAL/MOL
REMARK 922        TOTAL FREE ENERGY PREDICTED BY IDOCK:   -6.80 KCAL/MOL
REMARK 923 INTER-LIGAND FREE ENERGY PREDICTED BY IDOCK:   -5.95 KCAL/MOL
REMARK 924 INTRA-LIGAND FREE ENERGY PREDICTED BY IDOCK:   -0.85 KCAL/MOL
REMARK 927      BINDING AFFINITY PREDICTED BY RF-SCORE:    0.00 PKD
ROOT
HETATM    1  C   UNL     1     -11.742   7.358  71.043  1.00  0.00    -0.297 C  
HETATM    2  C   UNL     1     -11.585   8.593  71.912  1.00  0.00    -0.420 C  
HETATM    3  C   UNL     1     -10.247   9.201  71.498  1.00  0.00    -0.333 C  
HETATM    4  O   UNL     1      -9.206   8.770  72.375  1.00  0.00    -0.361 OA 
HETATM    5  C   UNL     1      -9.950   8.690  70.072  1.00  0.00    -0.191 C  
HETATM    6  C   UNL     1     -10.013   4.335  70.579  1.00  0.00    -0.219 C  
HETATM    7  C   UNL     1     -11.092   7.709  69.718  1.00  0.00    -0.115 C  
HETATM    8  H   UNL     1      -8.374   9.148  72.118  1.00  0.00     0.000 HD 
HETATM    9  C   UNL     1     -10.619   6.362  69.211  1.00  0.00    -0.311 C  
HETATM   10  O   UNL     1     -11.025   6.244  71.581  1.00  0.00    -0.241 OA 
HETATM   11  C   UNL     1     -10.514   5.575  70.480  1.00  0.00    -0.277 C  
ENDROOT
BRANCH   5  12
HETATM   12  C   UNL     1      -9.910   9.812  69.056  1.00  0.00    -0.183 C  
HETATM   13  C   UNL     1     -10.973  10.574  68.751  1.00  0.00    -0.296 C  
BRANCH  13  14
HETATM   14  C   UNL     1     -10.924  11.777  67.852  1.00  0.00    -0.221 C  
HETATM   15  O   UNL     1     -12.084  11.752  67.031  1.00  0.00    -0.575 OA 
HETATM   16  H   UNL     1     -12.053  12.512  66.463  1.00  0.00     0.000 HD 
BRANCH  14  17
HETATM   17  C   UNL     1     -10.916  13.088  68.647  1.00  0.00    -0.297 C  
BRANCH  17  18
HETATM   18  C   UNL     1     -10.655  14.314  67.769  1.00  0.00    -0.253 C  
BRANCH  18  19
HETATM   19  C   UNL     1     -10.493  15.585  68.603  1.00  0.00    -0.237 C  
BRANCH  19  20
HETATM   20  C   UNL     1      -9.612  16.602  67.876  1.00  0.00    -0.234 C  
HETATM   21  C   UNL     1     -10.445  17.623  67.120  1.00  0.00    -0.319 C  
ENDBRANCH  19  20
ENDBRANCH  18  19
ENDBRANCH  17  18
ENDBRANCH  14  17
ENDBRANCH  13  14
ENDBRANCH   5  12
BRANCH   6  22
HETATM   22  C   UNL     1      -9.968   3.538  71.851  1.00  0.00    -0.212 C  
BRANCH  22  23
HETATM   23  C   UNL     1      -8.550   3.071  72.175  1.00  0.00    -0.092 C  
BRANCH  23  24
HETATM   24  C   UNL     1      -7.979   3.863  73.348  1.00  0.00    -0.088 C  
HETATM   25  C   UNL     1      -6.892   4.814  72.920  1.00  0.00    -0.070 C  
HETATM   26  O   UNL     1      -5.733   4.736  73.297  1.00  0.00    -0.015 OA 
HETATM   27  O   UNL     1      -7.321   5.801  72.104  1.00  0.00    -0.090 OA 
ENDBRANCH  23  24
ENDBRANCH  22  23
ENDBRANCH   6  22
TORSDOF 9
ENDMDL
MODEL      212
REMARK 921   NORMALIZED FREE ENERGY PREDICTED BY IDOCK:   -3.68 KCAL/MOL
REMARK 922        TOTAL FREE ENERGY PREDICTED BY IDOCK:   -6.77 KCAL/MOL
REMARK 923 INTER-LIGAND FREE ENERGY PREDICTED BY IDOCK:   -5.39 KCAL/MOL
REMARK 924 INTRA-LIGAND FREE ENERGY PREDICTED BY IDOCK:   -1.37 KCAL/MOL
REMARK 927      BINDING AFFINITY PREDICTED BY RF-SCORE:    0.00 PKD
ROOT
HETATM    1  C   UNL     1     -10.698   9.117  67.573  1.00  0.00    -0.185 C  
HETATM    2  C   UNL     1     -11.081  10.210  68.556  1.00  0.00    -0.266 C  
HETATM    3  C   UNL     1     -10.265  11.428  68.130  1.00  0.00    -0.187 C  
HETATM    4  O   UNL     1      -9.063  11.521  68.895  1.00  0.00    -0.366 OA 
HETATM    5  C   UNL     1      -9.902  11.224  66.644  1.00  0.00    -0.235 C  
HETATM    6  C   UNL     1      -7.764   7.396  66.696  1.00  0.00    -0.101 C  
HETATM    7  C   UNL     1     -10.444   9.827  66.257  1.00  0.00    -0.160 C  
HETATM    8  H   UNL     1      -8.556  12.279  68.631  1.00  0.00     0.000 HD 
HETATM    9  C   UNL     1      -9.424   8.930  65.585  1.00  0.00    -0.230 C  
HETATM   10  O   UNL     1      -9.475   8.479  67.949  1.00  0.00    -0.138 OA 
HETATM   11  C   UNL     1      -8.816   8.224  66.756  1.00  0.00    -0.140 C  
ENDROOT
BRANCH   5  12
HETATM   12  C   UNL     1     -10.524  12.276  65.750  1.00  0.00    -0.287 C  
HETATM   13  C   UNL     1     -11.846  12.382  65.539  1.00  0.00    -0.469 C  
BRANCH  13  14
HETATM   14  C   UNL     1     -12.495  13.499  64.770  1.00  0.00    -0.355 C  
HETATM   15  O   UNL     1     -13.475  14.092  65.612  1.00  0.00    -0.713 OA 
HETATM   16  H   UNL     1     -13.884  14.797  65.126  1.00  0.00     0.000 HD 
BRANCH  14  17
HETATM   17  C   UNL     1     -11.485  14.577  64.361  1.00  0.00    -0.282 C  
BRANCH  17  18
HETATM   18  C   UNL     1     -11.582  15.839  65.222  1.00  0.00     0.150 C  
BRANCH  18  19
HETATM   19  C   UNL     1     -10.302  16.079  66.024  1.00  0.00    -0.366 C  
BRANCH  19  20
HETATM   20  C   UNL     1     -10.629  16.405  67.481  1.00  0.00    -0.309 C  
HETATM   21  C   UNL     1     -11.275  15.225  68.186  1.00  0.00    -0.328 C  
ENDBRANCH  19  20
ENDBRANCH  18  19
ENDBRANCH  17  18
ENDBRANCH  14  17
ENDBRANCH  13  14
ENDBRANCH   5  12
BRANCH   6  22
HETATM   22  C   UNL     1      -7.202   6.651  67.873  1.00  0.00    -0.091 C  
BRANCH  22  23
HETATM   23  C   UNL     1      -6.719   5.256  67.480  1.00  0.00    -0.055 C  
BRANCH  23  24
HETATM   24  C   UNL     1      -7.819   4.492  66.750  1.00  0.00    -0.098 C  
HETATM   25  C   UNL     1      -7.406   3.084  66.405  1.00  0.00    -0.074 C  
HETATM   26  O   UNL     1      -7.304   2.667  65.261  1.00  0.00    -0.061 OA 
HETATM   27  O   UNL     1      -7.193   2.299  67.483  1.00  0.00    -0.050 OA 
ENDBRANCH  23  24
ENDBRANCH  22  23
ENDBRANCH   6  22
TORSDOF 9
ENDMDL
MODEL      213
REMARK 921   NORMALIZED FREE ENERGY PREDICTED BY IDOCK:   -3.66 KCAL/MOL
REMARK 922        TOTAL FREE ENERGY PREDICTED BY IDOCK:   -6.74 KCAL/MOL
REMARK 923 INTER-LIGAND FREE ENERGY PREDICTED BY IDOCK:   -5.92 KCAL/MOL
REMARK 924 INTRA-LIGAND FREE ENERGY PREDICTED BY IDOCK:   -0.82 KCAL/MOL
REMARK 927      BINDING AFFINITY PREDICTED BY RF-SCORE:    0.00 PKD
ROOT
HETATM    1  C   UNL     1      -8.636  10.225  65.504  1.00  0.00    -0.164 C  
HETATM    2  C   UNL     1      -8.577  11.014  64.209  1.00  0.00     0.151 C  
HETATM    3  C   UNL     1     -10.023  11.412  63.921  1.00  0.00    -0.315 C  
HETATM    4  O   UNL     1     -10.630  10.483  63.024  1.00  0.00    -0.548 OA 
HETATM    5  C   UNL     1     -10.771  11.373  65.271  1.00  0.00    -0.326 C  
HETATM    6  C   UNL     1     -10.136   7.244  66.602  1.00  0.00    -0.238 C  
HETATM    7  C   UNL     1      -9.752  10.858  66.314  1.00  0.00    -0.245 C  
HETATM    8  H   UNL     1     -11.530  10.730  62.844  1.00  0.00     0.000 HD 
HETATM    9  C   UNL     1     -10.254   9.699  67.152  1.00  0.00    -0.305 C  
HETATM   10  O   UNL     1      -9.005   8.863  65.272  1.00  0.00    -0.200 OA 
HETATM   11  C   UNL     1      -9.819   8.520  66.340  1.00  0.00    -0.257 C  
ENDROOT
BRANCH   5  12
HETATM   12  C   UNL     1     -11.278  12.738  65.686  1.00  0.00    -0.335 C  
HETATM   13  C   UNL     1     -10.599  13.565  66.498  1.00  0.00    -0.281 C  
BRANCH  13  14
HETATM   14  C   UNL     1     -11.015  14.974  66.813  1.00  0.00    -0.323 C  
HETATM   15  O   UNL     1     -11.857  14.932  67.958  1.00  0.00    -0.421 OA 
HETATM   16  H   UNL     1     -12.119  15.822  68.156  1.00  0.00     0.000 HD 
BRANCH  14  17
HETATM   17  C   UNL     1      -9.812  15.873  67.123  1.00  0.00    -0.232 C  
BRANCH  17  18
HETATM   18  C   UNL     1      -9.888  16.507  68.514  1.00  0.00    -0.243 C  
BRANCH  18  19
HETATM   19  C   UNL     1      -9.684  18.022  68.459  1.00  0.00    -0.357 C  
BRANCH  19  20
HETATM   20  C   UNL     1     -10.686  18.669  67.502  1.00  0.00    -0.447 C  
HETATM   21  C   UNL     1     -10.138  19.954  66.904  1.00  0.00    -0.579 C  
ENDBRANCH  19  20
ENDBRANCH  18  19
ENDBRANCH  17  18
ENDBRANCH  14  17
ENDBRANCH  13  14
ENDBRANCH   5  12
BRANCH   6  22
HETATM   22  C   UNL     1      -9.644   6.067  65.809  1.00  0.00     0.134 C  
BRANCH  22  23
HETATM   23  C   UNL     1      -8.332   5.518  66.367  1.00  0.00    -0.111 C  
BRANCH  23  24
HETATM   24  C   UNL     1      -7.627   4.653  65.328  1.00  0.00    -0.081 C  
HETATM   25  C   UNL     1      -7.401   3.245  65.814  1.00  0.00    -0.072 C  
HETATM   26  O   UNL     1      -6.296   2.750  65.975  1.00  0.00    -0.027 OA 
HETATM   27  O   UNL     1      -8.542   2.551  66.023  1.00  0.00    -0.102 OA 
ENDBRANCH  23  24
ENDBRANCH  22  23
ENDBRANCH   6  22
TORSDOF 9
ENDMDL
MODEL      214
REMARK 921   NORMALIZED FREE ENERGY PREDICTED BY IDOCK:   -3.65 KCAL/MOL
REMARK 922        TOTAL FREE ENERGY PREDICTED BY IDOCK:   -6.72 KCAL/MOL
REMARK 923 INTER-LIGAND FREE ENERGY PREDICTED BY IDOCK:   -6.16 KCAL/MOL
REMARK 924 INTRA-LIGAND FREE ENERGY PREDICTED BY IDOCK:   -0.55 KCAL/MOL
REMARK 927      BINDING AFFINITY PREDICTED BY RF-SCORE:    0.00 PKD
ROOT
HETATM    1  C   UNL     1     -10.890  14.140  67.966  1.00  0.00    -0.246 C  
HETATM    2  C   UNL     1     -12.024  13.141  67.816  1.00  0.00    -0.352 C  
HETATM    3  C   UNL     1     -11.670  12.324  66.576  1.00  0.00    -0.352 C  
HETATM    4  O   UNL     1     -12.328  12.850  65.423  1.00  0.00    -0.457 OA 
HETATM    5  C   UNL     1     -10.144  12.445  66.385  1.00  0.00    -0.252 C  
HETATM    6  C   UNL     1      -9.556  16.779  66.069  1.00  0.00    -0.265 C  
HETATM    7  C   UNL     1      -9.648  13.419  67.480  1.00  0.00    -0.221 C  
HETATM    8  H   UNL     1     -12.109  12.342  64.651  1.00  0.00     0.000 HD 
HETATM    9  C   UNL     1      -8.786  14.552  66.959  1.00  0.00    -0.256 C  
HETATM   10  O   UNL     1     -11.076  15.276  67.117  1.00  0.00    -0.333 OA 
HETATM   11  C   UNL     1      -9.807  15.607  66.669  1.00  0.00    -0.244 C  
ENDROOT
BRANCH   5  12
HETATM   12  C   UNL     1      -9.439  11.113  66.531  1.00  0.00    -0.215 C  
HETATM   13  C   UNL     1      -8.726  10.540  65.547  1.00  0.00    -0.197 C  
BRANCH  13  14
HETATM   14  C   UNL     1      -7.906   9.291  65.712  1.00  0.00    -0.098 C  
HETATM   15  O   UNL     1      -8.154   8.778  67.014  1.00  0.00    -0.098 OA 
HETATM   16  H   UNL     1      -7.636   7.989  67.117  1.00  0.00     0.000 HD 
BRANCH  14  17
HETATM   17  C   UNL     1      -8.281   8.218  64.684  1.00  0.00    -0.145 C  
BRANCH  17  18
HETATM   18  C   UNL     1      -7.444   6.944  64.821  1.00  0.00    -0.096 C  
BRANCH  18  19
HETATM   19  C   UNL     1      -6.391   6.835  63.718  1.00  0.00    -0.042 C  
BRANCH  19  20
HETATM   20  C   UNL     1      -6.660   7.852  62.609  1.00  0.00    -0.084 C  
HETATM   21  C   UNL     1      -5.788   9.088  62.760  1.00  0.00    -0.085 C  
ENDBRANCH  19  20
ENDBRANCH  18  19
ENDBRANCH  17  18
ENDBRANCH  14  17
ENDBRANCH  13  14
ENDBRANCH   5  12
BRANCH   6  22
HETATM   22  C   UNL     1     -10.582  17.851  65.837  1.00  0.00    -0.216 C  
BRANCH  22  23
HETATM   23  C   UNL     1     -10.062  19.228  66.246  1.00  0.00    -0.519 C  
BRANCH  23  24
HETATM   24  C   UNL     1     -10.494  19.564  67.670  1.00  0.00    -0.593 C  
HETATM   25  C   UNL     1      -9.607  18.919  68.703  1.00  0.00    -0.391 C  
HETATM   26  O   UNL     1      -9.997  18.090  69.512  1.00  0.00    -0.049 OA 
HETATM   27  O   UNL     1      -8.333  19.370  68.687  1.00  0.00    -0.356 OA 
ENDBRANCH  23  24
ENDBRANCH  22  23
ENDBRANCH   6  22
TORSDOF 9
ENDMDL
MODEL      215
REMARK 921   NORMALIZED FREE ENERGY PREDICTED BY IDOCK:   -3.65 KCAL/MOL
REMARK 922        TOTAL FREE ENERGY PREDICTED BY IDOCK:   -6.72 KCAL/MOL
REMARK 923 INTER-LIGAND FREE ENERGY PREDICTED BY IDOCK:   -5.63 KCAL/MOL
REMARK 924 INTRA-LIGAND FREE ENERGY PREDICTED BY IDOCK:   -1.09 KCAL/MOL
REMARK 927      BINDING AFFINITY PREDICTED BY RF-SCORE:    0.00 PKD
ROOT
HETATM    1  C   UNL     1      -8.044   8.221  67.048  1.00  0.00    -0.104 C  
HETATM    2  C   UNL     1      -9.146   7.892  66.057  1.00  0.00    -0.181 C  
HETATM    3  C   UNL     1     -10.401   8.550  66.628  1.00  0.00    -0.233 C  
HETATM    4  O   UNL     1     -11.160   7.610  67.387  1.00  0.00    -0.537 OA 
HETATM    5  C   UNL     1      -9.923   9.684  67.559  1.00  0.00    -0.231 C  
HETATM    6  C   UNL     1      -7.385   7.559  70.434  1.00  0.00    -0.072 C  
HETATM    7  C   UNL     1      -8.378   9.601  67.582  1.00  0.00    -0.121 C  
HETATM    8  H   UNL     1     -11.941   8.019  67.742  1.00  0.00     0.000 HD 
HETATM    9  C   UNL     1      -7.780   9.573  68.975  1.00  0.00    -0.076 C  
HETATM   10  O   UNL     1      -8.055   7.324  68.161  1.00  0.00    -0.121 OA 
HETATM   11  C   UNL     1      -7.731   8.104  69.260  1.00  0.00    -0.104 C  
ENDROOT
BRANCH   5  12
HETATM   12  C   UNL     1     -10.351  11.050  67.068  1.00  0.00    -0.269 C  
HETATM   13  C   UNL     1     -10.857  11.273  65.844  1.00  0.00    -0.264 C  
BRANCH  13  14
HETATM   14  C   UNL     1     -11.416  12.590  65.384  1.00  0.00    -0.344 C  
HETATM   15  O   UNL     1     -12.759  12.371  64.974  1.00  0.00    -0.631 OA 
HETATM   16  H   UNL     1     -13.112  13.204  64.684  1.00  0.00     0.000 HD 
BRANCH  14  17
HETATM   17  C   UNL     1     -11.411  13.638  66.503  1.00  0.00    -0.335 C  
BRANCH  17  18
HETATM   18  C   UNL     1     -10.401  14.762  66.259  1.00  0.00    -0.305 C  
BRANCH  18  19
HETATM   19  C   UNL     1     -10.122  15.561  67.533  1.00  0.00    -0.241 C  
BRANCH  19  20
HETATM   20  C   UNL     1      -8.621  15.623  67.817  1.00  0.00    -0.168 C  
HETATM   21  C   UNL     1      -7.841  16.095  66.602  1.00  0.00    -0.288 C  
ENDBRANCH  19  20
ENDBRANCH  18  19
ENDBRANCH  17  18
ENDBRANCH  14  17
ENDBRANCH  13  14
ENDBRANCH   5  12
BRANCH   6  22
HETATM   22  C   UNL     1      -7.286   6.082  70.687  1.00  0.00    -0.085 C  
BRANCH  22  23
HETATM   23  C   UNL     1      -7.819   5.708  72.069  1.00  0.00    -0.106 C  
BRANCH  23  24
HETATM   24  C   UNL     1      -9.319   5.972  72.156  1.00  0.00    -0.155 C  
HETATM   25  C   UNL     1     -10.104   5.136  71.177  1.00  0.00    -0.222 C  
HETATM   26  O   UNL     1     -10.769   5.603  70.265  1.00  0.00    -0.290 OA 
HETATM   27  O   UNL     1     -10.043   3.809  71.422  1.00  0.00    -0.145 OA 
ENDBRANCH  23  24
ENDBRANCH  22  23
ENDBRANCH   6  22
TORSDOF 9
ENDMDL
MODEL      216
REMARK 921   NORMALIZED FREE ENERGY PREDICTED BY IDOCK:   -3.62 KCAL/MOL
REMARK 922        TOTAL FREE ENERGY PREDICTED BY IDOCK:   -6.68 KCAL/MOL
REMARK 923 INTER-LIGAND FREE ENERGY PREDICTED BY IDOCK:   -6.40 KCAL/MOL
REMARK 924 INTRA-LIGAND FREE ENERGY PREDICTED BY IDOCK:   -0.27 KCAL/MOL
REMARK 927      BINDING AFFINITY PREDICTED BY RF-SCORE:    0.00 PKD
ROOT
HETATM    1  C   UNL     1     -10.505  10.829  66.111  1.00  0.00    -0.214 C  
HETATM    2  C   UNL     1      -9.572  10.008  65.239  1.00  0.00    -0.355 C  
HETATM    3  C   UNL     1      -8.371   9.696  66.130  1.00  0.00    -0.119 C  
HETATM    4  O   UNL     1      -7.323  10.640  65.911  1.00  0.00    -0.144 OA 
HETATM    5  C   UNL     1      -8.859   9.812  67.589  1.00  0.00    -0.127 C  
HETATM    6  C   UNL     1     -10.374  13.922  67.770  1.00  0.00    -0.240 C  
HETATM    7  C   UNL     1     -10.330  10.286  67.516  1.00  0.00    -0.276 C  
HETATM    8  H   UNL     1      -6.576  10.446  66.464  1.00  0.00     0.000 HD 
HETATM    9  C   UNL     1     -10.636  11.492  68.380  1.00  0.00    -0.227 C  
HETATM   10  O   UNL     1     -10.119  12.205  66.140  1.00  0.00    -0.219 OA 
HETATM   11  C   UNL     1     -10.363  12.624  67.439  1.00  0.00    -0.220 C  
ENDROOT
BRANCH   5  12
HETATM   12  C   UNL     1      -8.787   8.491  68.327  1.00  0.00    -0.142 C  
HETATM   13  C   UNL     1      -9.023   8.364  69.643  1.00  0.00    -0.145 C  
BRANCH  13  14
HETATM   14  C   UNL     1      -9.093   7.049  70.368  1.00  0.00    -0.156 C  
HETATM   15  O   UNL     1      -8.660   7.268  71.704  1.00  0.00    -0.117 OA 
HETATM   16  H   UNL     1      -8.705   6.437  72.162  1.00  0.00     0.000 HD 
BRANCH  14  17
HETATM   17  C   UNL     1     -10.518   6.487  70.402  1.00  0.00    -0.256 C  
BRANCH  17  18
HETATM   18  C   UNL     1     -10.719   5.316  69.436  1.00  0.00    -0.106 C  
BRANCH  18  19
HETATM   19  C   UNL     1      -9.594   5.234  68.403  1.00  0.00    -0.176 C  
BRANCH  19  20
HETATM   20  C   UNL     1     -10.161   5.218  66.983  1.00  0.00    -0.274 C  
HETATM   21  C   UNL     1      -9.241   5.931  66.006  1.00  0.00    -0.143 C  
ENDBRANCH  19  20
ENDBRANCH  18  19
ENDBRANCH  17  18
ENDBRANCH  14  17
ENDBRANCH  13  14
ENDBRANCH   5  12
BRANCH   6  22
HETATM   22  C   UNL     1     -10.154  15.047  66.801  1.00  0.00    -0.257 C  
BRANCH  22  23
HETATM   23  C   UNL     1     -10.153  14.555  65.354  1.00  0.00    -0.394 C  
BRANCH  23  24
HETATM   24  C   UNL     1     -11.343  15.129  64.591  1.00  0.00    -0.362 C  
HETATM   25  C   UNL     1     -12.326  14.063  64.179  1.00  0.00    -0.332 C  
HETATM   26  O   UNL     1     -12.587  13.791  63.018  1.00  0.00    -0.721 OA 
HETATM   27  O   UNL     1     -12.934  13.452  65.220  1.00  0.00    -0.681 OA 
ENDBRANCH  23  24
ENDBRANCH  22  23
ENDBRANCH   6  22
TORSDOF 9
ENDMDL
MODEL      217
REMARK 921   NORMALIZED FREE ENERGY PREDICTED BY IDOCK:   -3.61 KCAL/MOL
REMARK 922        TOTAL FREE ENERGY PREDICTED BY IDOCK:   -6.66 KCAL/MOL
REMARK 923 INTER-LIGAND FREE ENERGY PREDICTED BY IDOCK:   -5.11 KCAL/MOL
REMARK 924 INTRA-LIGAND FREE ENERGY PREDICTED BY IDOCK:   -1.55 KCAL/MOL
REMARK 927      BINDING AFFINITY PREDICTED BY RF-SCORE:    0.00 PKD
ROOT
HETATM    1  C   UNL     1     -11.033   7.125  67.253  1.00  0.00    -0.263 C  
HETATM    2  C   UNL     1     -10.581   5.719  66.897  1.00  0.00    -0.377 C  
HETATM    3  C   UNL     1      -9.187   5.586  67.505  1.00  0.00    -0.110 C  
HETATM    4  O   UNL     1      -8.184   5.875  66.531  1.00  0.00    -0.108 OA 
HETATM    5  C   UNL     1      -9.098   6.623  68.644  1.00  0.00    -0.126 C  
HETATM    6  C   UNL     1      -9.945  10.396  66.577  1.00  0.00    -0.271 C  
HETATM    7  C   UNL     1     -10.429   7.412  68.614  1.00  0.00    -0.211 C  
HETATM    8  H   UNL     1      -7.317   5.792  66.909  1.00  0.00     0.000 HD 
HETATM    9  C   UNL     1     -10.257   8.917  68.592  1.00  0.00    -0.221 C  
HETATM   10  O   UNL     1     -10.502   8.092  66.344  1.00  0.00    -0.154 OA 
HETATM   11  C   UNL     1     -10.209   9.201  67.123  1.00  0.00    -0.261 C  
ENDROOT
BRANCH   5  12
HETATM   12  C   UNL     1      -8.923   5.973  70.001  1.00  0.00    -0.149 C  
HETATM   13  C   UNL     1      -8.493   6.634  71.089  1.00  0.00    -0.126 C  
BRANCH  13  14
HETATM   14  C   UNL     1      -8.443   6.047  72.471  1.00  0.00    -0.119 C  
HETATM   15  O   UNL     1      -8.376   7.124  73.396  1.00  0.00    -0.112 OA 
HETATM   16  H   UNL     1      -8.345   6.754  74.270  1.00  0.00     0.000 HD 
BRANCH  14  17
HETATM   17  C   UNL     1      -9.688   5.210  72.785  1.00  0.00    -0.177 C  
BRANCH  17  18
HETATM   18  C   UNL     1     -10.858   6.053  73.298  1.00  0.00    -0.277 C  
BRANCH  18  19
HETATM   19  C   UNL     1     -11.650   6.681  72.151  1.00  0.00    -0.335 C  
BRANCH  19  20
HETATM   20  C   UNL     1     -11.603   8.207  72.231  1.00  0.00    -0.436 C  
HETATM   21  C   UNL     1     -12.606   8.847  71.286  1.00  0.00    -0.309 C  
ENDBRANCH  19  20
ENDBRANCH  18  19
ENDBRANCH  17  18
ENDBRANCH  14  17
ENDBRANCH  13  14
ENDBRANCH   5  12
BRANCH   6  22
HETATM   22  C   UNL     1      -9.957  10.676  65.102  1.00  0.00    -0.366 C  
BRANCH  22  23
HETATM   23  C   UNL     1      -8.912   9.844  64.360  1.00  0.00    -0.275 C  
BRANCH  23  24
HETATM   24  C   UNL     1      -7.507  10.202  64.833  1.00  0.00    -0.137 C  
HETATM   25  C   UNL     1      -6.887   9.106  65.662  1.00  0.00    -0.077 C  
HETATM   26  O   UNL     1      -6.574   9.236  66.836  1.00  0.00    -0.066 OA 
HETATM   27  O   UNL     1      -6.665   7.964  64.977  1.00  0.00    -0.050 OA 
ENDBRANCH  23  24
ENDBRANCH  22  23
ENDBRANCH   6  22
TORSDOF 9
ENDMDL
MODEL      218
REMARK 921   NORMALIZED FREE ENERGY PREDICTED BY IDOCK:   -3.60 KCAL/MOL
REMARK 922        TOTAL FREE ENERGY PREDICTED BY IDOCK:   -6.65 KCAL/MOL
REMARK 923 INTER-LIGAND FREE ENERGY PREDICTED BY IDOCK:   -5.96 KCAL/MOL
REMARK 924 INTRA-LIGAND FREE ENERGY PREDICTED BY IDOCK:   -0.69 KCAL/MOL
REMARK 927      BINDING AFFINITY PREDICTED BY RF-SCORE:    0.00 PKD
ROOT
HETATM    1  C   UNL     1      -8.359   9.567  65.769  1.00  0.00    -0.128 C  
HETATM    2  C   UNL     1      -6.971   9.450  66.373  1.00  0.00    -0.084 C  
HETATM    3  C   UNL     1      -7.176   9.638  67.875  1.00  0.00    -0.081 C  
HETATM    4  O   UNL     1      -6.942  10.996  68.248  1.00  0.00    -0.066 OA 
HETATM    5  C   UNL     1      -8.648   9.280  68.170  1.00  0.00    -0.125 C  
HETATM    6  C   UNL     1     -10.847  12.038  65.564  1.00  0.00    -0.336 C  
HETATM    7  C   UNL     1      -9.301   8.976  66.800  1.00  0.00    -0.213 C  
HETATM    8  H   UNL     1      -7.069  11.113  69.182  1.00  0.00     0.000 HD 
HETATM    9  C   UNL     1     -10.590   9.732  66.546  1.00  0.00    -0.150 C  
HETATM   10  O   UNL     1      -8.738  10.933  65.585  1.00  0.00    -0.187 OA 
HETATM   11  C   UNL     1     -10.091  10.978  65.883  1.00  0.00    -0.249 C  
ENDROOT
BRANCH   5  12
HETATM   12  C   UNL     1      -8.776   8.072  69.073  1.00  0.00    -0.137 C  
HETATM   13  C   UNL     1      -9.955   7.561  69.464  1.00  0.00    -0.180 C  
BRANCH  13  14
HETATM   14  C   UNL     1     -10.109   6.286  70.244  1.00  0.00    -0.184 C  
HETATM   15  O   UNL     1      -8.879   6.034  70.910  1.00  0.00    -0.134 OA 
HETATM   16  H   UNL     1      -8.976   5.228  71.403  1.00  0.00     0.000 HD 
BRANCH  14  17
HETATM   17  C   UNL     1     -11.222   6.385  71.293  1.00  0.00    -0.346 C  
BRANCH  17  18
HETATM   18  C   UNL     1     -10.722   6.122  72.716  1.00  0.00    -0.268 C  
BRANCH  18  19
HETATM   19  C   UNL     1     -11.327   4.846  73.304  1.00  0.00    -0.408 C  
BRANCH  19  20
HETATM   20  C   UNL     1     -10.252   4.002  73.988  1.00  0.00    -0.223 C  
HETATM   21  C   UNL     1     -10.562   2.517  73.890  1.00  0.00    -0.243 C  
ENDBRANCH  19  20
ENDBRANCH  18  19
ENDBRANCH  17  18
ENDBRANCH  14  17
ENDBRANCH  13  14
ENDBRANCH   5  12
BRANCH   6  22
HETATM   22  C   UNL     1     -10.342  13.256  64.848  1.00  0.00    -0.368 C  
BRANCH  22  23
HETATM   23  C   UNL     1      -9.804  14.303  65.822  1.00  0.00    -0.314 C  
BRANCH  23  24
HETATM   24  C   UNL     1     -10.939  15.166  66.364  1.00  0.00    -0.329 C  
HETATM   25  C   UNL     1     -10.532  16.607  66.533  1.00  0.00    -0.262 C  
HETATM   26  O   UNL     1     -10.498  17.181  67.611  1.00  0.00    -0.335 OA 
HETATM   27  O   UNL     1     -10.241  17.231  65.371  1.00  0.00    -0.604 OA 
ENDBRANCH  23  24
ENDBRANCH  22  23
ENDBRANCH   6  22
TORSDOF 9
ENDMDL
MODEL      219
REMARK 921   NORMALIZED FREE ENERGY PREDICTED BY IDOCK:   -3.58 KCAL/MOL
REMARK 922        TOTAL FREE ENERGY PREDICTED BY IDOCK:   -6.62 KCAL/MOL
REMARK 923 INTER-LIGAND FREE ENERGY PREDICTED BY IDOCK:   -5.06 KCAL/MOL
REMARK 924 INTRA-LIGAND FREE ENERGY PREDICTED BY IDOCK:   -1.55 KCAL/MOL
REMARK 927      BINDING AFFINITY PREDICTED BY RF-SCORE:    0.00 PKD
ROOT
HETATM    1  C   UNL     1     -10.364   9.179  69.484  1.00  0.00    -0.215 C  
HETATM    2  C   UNL     1      -9.590   9.318  70.782  1.00  0.00    -0.341 C  
HETATM    3  C   UNL     1      -8.146   9.575  70.356  1.00  0.00    -0.183 C  
HETATM    4  O   UNL     1      -7.401   8.358  70.346  1.00  0.00    -0.052 OA 
HETATM    5  C   UNL     1      -8.201  10.147  68.924  1.00  0.00    -0.124 C  
HETATM    6  C   UNL     1     -10.330   7.011  66.720  1.00  0.00    -0.291 C  
HETATM    7  C   UNL     1      -9.690  10.124  68.507  1.00  0.00    -0.161 C  
HETATM    8  H   UNL     1      -6.503   8.517  70.081  1.00  0.00     0.000 HD 
HETATM    9  C   UNL     1      -9.949   9.460  67.169  1.00  0.00    -0.263 C  
HETATM   10  O   UNL     1     -10.248   7.861  68.943  1.00  0.00    -0.197 OA 
HETATM   11  C   UNL     1     -10.176   8.036  67.570  1.00  0.00    -0.245 C  
ENDROOT
BRANCH   5  12
HETATM   12  C   UNL     1      -7.674  11.564  68.850  1.00  0.00    -0.088 C  
HETATM   13  C   UNL     1      -8.289  12.549  68.173  1.00  0.00    -0.175 C  
BRANCH  13  14
HETATM   14  C   UNL     1      -7.862  13.990  68.199  1.00  0.00    -0.144 C  
HETATM   15  O   UNL     1      -6.895  14.173  67.173  1.00  0.00    -0.402 OA 
HETATM   16  H   UNL     1      -6.626  15.084  67.189  1.00  0.00     0.000 HD 
BRANCH  14  17
HETATM   17  C   UNL     1      -9.036  14.941  67.942  1.00  0.00    -0.177 C  
BRANCH  17  18
HETATM   18  C   UNL     1      -9.442  15.734  69.186  1.00  0.00    -0.255 C  
BRANCH  18  19
HETATM   19  C   UNL     1     -10.744  15.210  69.793  1.00  0.00    -0.288 C  
BRANCH  19  20
HETATM   20  C   UNL     1     -11.625  14.573  68.719  1.00  0.00    -0.343 C  
HETATM   21  C   UNL     1     -11.842  13.091  68.980  1.00  0.00    -0.362 C  
ENDBRANCH  19  20
ENDBRANCH  18  19
ENDBRANCH  17  18
ENDBRANCH  14  17
ENDBRANCH  13  14
ENDBRANCH   5  12
BRANCH   6  22
HETATM   22  C   UNL     1     -10.614   5.597  67.138  1.00  0.00    -0.344 C  
BRANCH  22  23
HETATM   23  C   UNL     1      -9.371   4.917  67.711  1.00  0.00    -0.154 C  
BRANCH  23  24
HETATM   24  C   UNL     1      -8.124   5.342  66.943  1.00  0.00    -0.104 C  
HETATM   25  C   UNL     1      -7.007   5.773  67.858  1.00  0.00    -0.066 C  
HETATM   26  O   UNL     1      -6.544   6.903  67.880  1.00  0.00    -0.054 OA 
HETATM   27  O   UNL     1      -6.527   4.779  68.637  1.00  0.00    -0.035 OA 
ENDBRANCH  23  24
ENDBRANCH  22  23
ENDBRANCH   6  22
TORSDOF 9
ENDMDL
MODEL      220
REMARK 921   NORMALIZED FREE ENERGY PREDICTED BY IDOCK:   -3.57 KCAL/MOL
REMARK 922        TOTAL FREE ENERGY PREDICTED BY IDOCK:   -6.60 KCAL/MOL
REMARK 923 INTER-LIGAND FREE ENERGY PREDICTED BY IDOCK:   -5.74 KCAL/MOL
REMARK 924 INTRA-LIGAND FREE ENERGY PREDICTED BY IDOCK:   -0.86 KCAL/MOL
REMARK 927      BINDING AFFINITY PREDICTED BY RF-SCORE:    0.00 PKD
ROOT
HETATM    1  C   UNL     1      -9.673  11.158  65.269  1.00  0.00    -0.241 C  
HETATM    2  C   UNL     1     -11.083  11.677  65.492  1.00  0.00    -0.297 C  
HETATM    3  C   UNL     1     -11.225  11.798  67.007  1.00  0.00    -0.322 C  
HETATM    4  O   UNL     1     -11.847  10.633  67.548  1.00  0.00    -0.548 OA 
HETATM    5  C   UNL     1      -9.797  11.920  67.579  1.00  0.00    -0.194 C  
HETATM    6  C   UNL     1      -7.860   8.270  66.112  1.00  0.00    -0.098 C  
HETATM    7  C   UNL     1      -8.836  11.773  66.375  1.00  0.00    -0.170 C  
HETATM    8  H   UNL     1     -11.936  10.708  68.491  1.00  0.00     0.000 HD 
HETATM    9  C   UNL     1      -7.743  10.743  66.577  1.00  0.00    -0.145 C  
HETATM   10  O   UNL     1      -9.605   9.739  65.428  1.00  0.00    -0.255 OA 
HETATM   11  C   UNL     1      -8.387   9.501  66.046  1.00  0.00    -0.119 C  
ENDROOT
BRANCH   5  12
HETATM   12  C   UNL     1      -9.561  13.253  68.257  1.00  0.00    -0.221 C  
HETATM   13  C   UNL     1      -9.707  14.436  67.638  1.00  0.00    -0.219 C  
BRANCH  13  14
HETATM   14  C   UNL     1      -9.614  15.770  68.324  1.00  0.00    -0.201 C  
HETATM   15  O   UNL     1     -10.387  16.697  67.575  1.00  0.00    -0.280 OA 
HETATM   16  H   UNL     1     -10.328  17.540  68.009  1.00  0.00     0.000 HD 
BRANCH  14  17
HETATM   17  C   UNL     1     -10.162  15.719  69.754  1.00  0.00    -0.291 C  
BRANCH  17  18
HETATM   18  C   UNL     1     -11.688  15.835  69.811  1.00  0.00    -0.355 C  
BRANCH  18  19
HETATM   19  C   UNL     1     -12.205  15.814  71.249  1.00  0.00    -0.491 C  
BRANCH  19  20
HETATM   20  C   UNL     1     -12.806  14.450  71.590  1.00  0.00    -0.416 C  
HETATM   21  C   UNL     1     -13.887  14.565  72.652  1.00  0.00    -0.483 C  
ENDBRANCH  19  20
ENDBRANCH  18  19
ENDBRANCH  17  18
ENDBRANCH  14  17
ENDBRANCH  13  14
ENDBRANCH   5  12
BRANCH   6  22
HETATM   22  C   UNL     1      -8.494   7.043  65.523  1.00  0.00    -0.120 C  
BRANCH  22  23
HETATM   23  C   UNL     1      -8.308   5.823  66.424  1.00  0.00    -0.113 C  
BRANCH  23  24
HETATM   24  C   UNL     1      -7.025   5.948  67.240  1.00  0.00    -0.069 C  
HETATM   25  C   UNL     1      -6.331   4.623  67.419  1.00  0.00    -0.041 C  
HETATM   26  O   UNL     1      -6.156   4.088  68.504  1.00  0.00    -0.029 OA 
HETATM   27  O   UNL     1      -5.873   4.087  66.266  1.00  0.00    -0.021 OA 
ENDBRANCH  23  24
ENDBRANCH  22  23
ENDBRANCH   6  22
TORSDOF 9
ENDMDL
MODEL      221
REMARK 921   NORMALIZED FREE ENERGY PREDICTED BY IDOCK:   -3.55 KCAL/MOL
REMARK 922        TOTAL FREE ENERGY PREDICTED BY IDOCK:   -6.56 KCAL/MOL
REMARK 923 INTER-LIGAND FREE ENERGY PREDICTED BY IDOCK:   -5.71 KCAL/MOL
REMARK 924 INTRA-LIGAND FREE ENERGY PREDICTED BY IDOCK:   -0.85 KCAL/MOL
REMARK 927      BINDING AFFINITY PREDICTED BY RF-SCORE:    0.00 PKD
ROOT
HETATM    1  C   UNL     1      -9.914  11.659  68.318  1.00  0.00    -0.201 C  
HETATM    2  C   UNL     1     -11.257  11.052  67.953  1.00  0.00    -0.375 C  
HETATM    3  C   UNL     1     -11.409  11.301  66.454  1.00  0.00    -0.014 C  
HETATM    4  O   UNL     1     -12.172  12.484  66.216  1.00  0.00    -0.600 OA 
HETATM    5  C   UNL     1      -9.987  11.496  65.889  1.00  0.00    -0.267 C  
HETATM    6  C   UNL     1      -8.465  14.859  68.255  1.00  0.00    -0.151 C  
HETATM    7  C   UNL     1      -9.030  11.447  67.103  1.00  0.00    -0.162 C  
HETATM    8  H   UNL     1     -12.268  12.639  65.284  1.00  0.00     0.000 HD 
HETATM    9  C   UNL     1      -8.067  12.615  67.183  1.00  0.00    -0.141 C  
HETATM   10  O   UNL     1     -10.014  13.071  68.523  1.00  0.00    -0.227 OA 
HETATM   11  C   UNL     1      -8.844  13.599  68.002  1.00  0.00    -0.187 C  
ENDROOT
BRANCH   5  12
HETATM   12  C   UNL     1      -9.608  10.414  64.899  1.00  0.00    -0.348 C  
HETATM   13  C   UNL     1      -8.803   9.382  65.201  1.00  0.00    -0.233 C  
BRANCH  13  14
HETATM   14  C   UNL     1      -8.525   8.227  64.282  1.00  0.00     0.017 C  
HETATM   15  O   UNL     1      -8.739   8.673  62.949  1.00  0.00    -0.409 OA 
HETATM   16  H   UNL     1      -8.563   7.942  62.368  1.00  0.00     0.000 HD 
BRANCH  14  17
HETATM   17  C   UNL     1      -7.080   7.730  64.404  1.00  0.00    -0.070 C  
BRANCH  17  18
HETATM   18  C   UNL     1      -6.977   6.366  65.093  1.00  0.00    -0.052 C  
BRANCH  18  19
HETATM   19  C   UNL     1      -8.324   5.645  65.128  1.00  0.00    -0.146 C  
BRANCH  19  20
HETATM   20  C   UNL     1      -8.132   4.131  65.039  1.00  0.00    -0.097 C  
HETATM   21  C   UNL     1      -6.728   3.721  65.452  1.00  0.00    -0.048 C  
ENDBRANCH  19  20
ENDBRANCH  18  19
ENDBRANCH  17  18
ENDBRANCH  14  17
ENDBRANCH  13  14
ENDBRANCH   5  12
BRANCH   6  22
HETATM   22  C   UNL     1      -9.229  15.815  69.126  1.00  0.00    -0.256 C  
BRANCH  22  23
HETATM   23  C   UNL     1     -10.392  16.460  68.374  1.00  0.00    -0.282 C  
BRANCH  23  24
HETATM   24  C   UNL     1     -10.147  16.418  66.869  1.00  0.00    -0.281 C  
HETATM   25  C   UNL     1     -10.076  17.796  66.263  1.00  0.00    -0.344 C  
HETATM   26  O   UNL     1     -10.867  18.214  65.431  1.00  0.00    -0.556 OA 
HETATM   27  O   UNL     1      -9.025  18.527  66.693  1.00  0.00    -0.279 OA 
ENDBRANCH  23  24
ENDBRANCH  22  23
ENDBRANCH   6  22
TORSDOF 9
ENDMDL
MODEL      222
REMARK 921   NORMALIZED FREE ENERGY PREDICTED BY IDOCK:   -3.52 KCAL/MOL
REMARK 922        TOTAL FREE ENERGY PREDICTED BY IDOCK:   -6.52 KCAL/MOL
REMARK 923 INTER-LIGAND FREE ENERGY PREDICTED BY IDOCK:   -5.40 KCAL/MOL
REMARK 924 INTRA-LIGAND FREE ENERGY PREDICTED BY IDOCK:   -1.12 KCAL/MOL
REMARK 927      BINDING AFFINITY PREDICTED BY RF-SCORE:    0.00 PKD
ROOT
HETATM    1  C   UNL     1     -10.968   7.682  69.365  1.00  0.00    -0.057 C  
HETATM    2  C   UNL     1     -11.187   8.381  70.696  1.00  0.00    -0.275 C  
HETATM    3  C   UNL     1     -10.220   9.563  70.686  1.00  0.00    -0.297 C  
HETATM    4  O   UNL     1      -9.007   9.226  71.358  1.00  0.00    -0.311 OA 
HETATM    5  C   UNL     1      -9.909   9.870  69.206  1.00  0.00    -0.217 C  
HETATM    6  C   UNL     1      -8.304   6.058  67.751  1.00  0.00    -0.112 C  
HETATM    7  C   UNL     1     -10.639   8.786  68.378  1.00  0.00    -0.185 C  
HETATM    8  H   UNL     1      -8.405   9.961  71.352  1.00  0.00     0.000 HD 
HETATM    9  C   UNL     1      -9.758   8.079  67.368  1.00  0.00    -0.216 C  
HETATM   10  O   UNL     1      -9.837   6.809  69.411  1.00  0.00    -0.155 OA 
HETATM   11  C   UNL     1      -9.235   6.927  68.168  1.00  0.00    -0.126 C  
ENDROOT
BRANCH   5  12
HETATM   12  C   UNL     1     -10.396  11.242  68.789  1.00  0.00    -0.223 C  
HETATM   13  C   UNL     1     -11.440  11.440  67.967  1.00  0.00    -0.377 C  
BRANCH  13  14
HETATM   14  C   UNL     1     -12.025  12.787  67.650  1.00  0.00    -0.273 C  
HETATM   15  O   UNL     1     -11.615  13.688  68.670  1.00  0.00    -0.282 OA 
HETATM   16  H   UNL     1     -11.985  14.540  68.470  1.00  0.00     0.000 HD 
BRANCH  14  17
HETATM   17  C   UNL     1     -11.537  13.322  66.300  1.00  0.00    -0.384 C  
BRANCH  17  18
HETATM   18  C   UNL     1     -12.466  12.951  65.142  1.00  0.00    -0.561 C  
BRANCH  18  19
HETATM   19  C   UNL     1     -11.857  11.870  64.249  1.00  0.00    -0.367 C  
BRANCH  19  20
HETATM   20  C   UNL     1     -10.340  11.809  64.429  1.00  0.00    -0.353 C  
HETATM   21  C   UNL     1      -9.827  10.380  64.368  1.00  0.00    -0.395 C  
ENDBRANCH  19  20
ENDBRANCH  18  19
ENDBRANCH  17  18
ENDBRANCH  14  17
ENDBRANCH  13  14
ENDBRANCH   5  12
BRANCH   6  22
HETATM   22  C   UNL     1      -7.832   4.874  68.545  1.00  0.00    -0.081 C  
BRANCH  22  23
HETATM   23  C   UNL     1      -7.271   5.292  69.903  1.00  0.00    -0.063 C  
BRANCH  23  24
HETATM   24  C   UNL     1      -7.546   4.217  70.951  1.00  0.00    -0.052 C  
HETATM   25  C   UNL     1      -6.330   3.375  71.238  1.00  0.00    -0.018 C  
HETATM   26  O   UNL     1      -6.267   2.175  71.018  1.00  0.00    -0.018 OA 
HETATM   27  O   UNL     1      -5.314   4.061  71.806  1.00  0.00     0.000 OA 
ENDBRANCH  23  24
ENDBRANCH  22  23
ENDBRANCH   6  22
TORSDOF 9
ENDMDL
MODEL      223
REMARK 921   NORMALIZED FREE ENERGY PREDICTED BY IDOCK:   -3.50 KCAL/MOL
REMARK 922        TOTAL FREE ENERGY PREDICTED BY IDOCK:   -6.50 KCAL/MOL
REMARK 923 INTER-LIGAND FREE ENERGY PREDICTED BY IDOCK:   -5.68 KCAL/MOL
REMARK 924 INTRA-LIGAND FREE ENERGY PREDICTED BY IDOCK:   -0.81 KCAL/MOL
REMARK 927      BINDING AFFINITY PREDICTED BY RF-SCORE:    0.00 PKD
ROOT
HETATM    1  C   UNL     1      -9.838   9.500  68.143  1.00  0.00    -0.155 C  
HETATM    2  C   UNL     1      -8.852   8.346  68.176  1.00  0.00    -0.142 C  
HETATM    3  C   UNL     1      -8.276   8.357  69.590  1.00  0.00    -0.117 C  
HETATM    4  O   UNL     1      -7.041   9.072  69.625  1.00  0.00    -0.055 OA 
HETATM    5  C   UNL     1      -9.305   9.082  70.483  1.00  0.00    -0.262 C  
HETATM    6  C   UNL     1      -9.687  12.989  68.528  1.00  0.00    -0.132 C  
HETATM    7  C   UNL     1     -10.431   9.566  69.538  1.00  0.00    -0.234 C  
HETATM    8  H   UNL     1      -6.683   9.079  70.504  1.00  0.00     0.000 HD 
HETATM    9  C   UNL     1     -10.777  11.034  69.685  1.00  0.00    -0.193 C  
HETATM   10  O   UNL     1      -9.179  10.747  67.907  1.00  0.00    -0.146 OA 
HETATM   11  C   UNL     1      -9.852  11.669  68.693  1.00  0.00    -0.165 C  
ENDROOT
BRANCH   5  12
HETATM   12  C   UNL     1      -9.888   8.173  71.544  1.00  0.00    -0.233 C  
HETATM   13  C   UNL     1     -11.181   8.190  71.906  1.00  0.00    -0.351 C  
BRANCH  13  14
HETATM   14  C   UNL     1     -11.809   7.207  72.853  1.00  0.00     0.140 C  
HETATM   15  O   UNL     1     -12.750   6.436  72.117  1.00  0.00    -0.526 OA 
HETATM   16  H   UNL     1     -13.146   5.815  72.716  1.00  0.00     0.000 HD 
BRANCH  14  17
HETATM   17  C   UNL     1     -10.773   6.259  73.467  1.00  0.00    -0.262 C  
BRANCH  17  18
HETATM   18  C   UNL     1     -10.862   4.837  72.905  1.00  0.00    -0.306 C  
BRANCH  18  19
HETATM   19  C   UNL     1     -10.606   3.784  73.984  1.00  0.00    -0.280 C  
BRANCH  19  20
HETATM   20  C   UNL     1      -9.154   3.835  74.458  1.00  0.00    -0.102 C  
HETATM   21  C   UNL     1      -8.272   2.890  73.659  1.00  0.00    -0.072 C  
ENDBRANCH  19  20
ENDBRANCH  18  19
ENDBRANCH  17  18
ENDBRANCH  14  17
ENDBRANCH  13  14
ENDBRANCH   5  12
BRANCH   6  22
HETATM   22  C   UNL     1      -8.798  13.609  67.489  1.00  0.00    -0.205 C  
BRANCH  22  23
HETATM   23  C   UNL     1      -9.607  14.234  66.353  1.00  0.00    -0.317 C  
BRANCH  23  24
HETATM   24  C   UNL     1     -10.483  15.368  66.879  1.00  0.00    -0.295 C  
HETATM   25  C   UNL     1     -10.472  16.568  65.967  1.00  0.00    -0.310 C  
HETATM   26  O   UNL     1     -10.046  17.665  66.292  1.00  0.00    -0.330 OA 
HETATM   27  O   UNL     1     -11.020  16.335  64.754  1.00  0.00    -0.631 OA 
ENDBRANCH  23  24
ENDBRANCH  22  23
ENDBRANCH   6  22
TORSDOF 9
ENDMDL
MODEL      224
REMARK 921   NORMALIZED FREE ENERGY PREDICTED BY IDOCK:   -3.50 KCAL/MOL
REMARK 922        TOTAL FREE ENERGY PREDICTED BY IDOCK:   -6.49 KCAL/MOL
REMARK 923 INTER-LIGAND FREE ENERGY PREDICTED BY IDOCK:   -5.66 KCAL/MOL
REMARK 924 INTRA-LIGAND FREE ENERGY PREDICTED BY IDOCK:   -0.83 KCAL/MOL
REMARK 927      BINDING AFFINITY PREDICTED BY RF-SCORE:    0.00 PKD
ROOT
HETATM    1  C   UNL     1      -7.661   9.146  65.070  1.00  0.00    -0.109 C  
HETATM    2  C   UNL     1      -7.694  10.202  63.979  1.00  0.00    -0.136 C  
HETATM    3  C   UNL     1      -9.172  10.370  63.635  1.00  0.00    -0.279 C  
HETATM    4  O   UNL     1      -9.520   9.567  62.508  1.00  0.00    -0.562 OA 
HETATM    5  C   UNL     1      -9.972   9.888  64.864  1.00  0.00    -0.190 C  
HETATM    6  C   UNL     1      -8.567   5.765  65.368  1.00  0.00    -0.143 C  
HETATM    7  C   UNL     1      -8.929   9.357  65.876  1.00  0.00    -0.217 C  
HETATM    8  H   UNL     1     -10.440   9.671  62.293  1.00  0.00     0.000 HD 
HETATM    9  C   UNL     1      -9.226   7.967  66.401  1.00  0.00    -0.241 C  
HETATM   10  O   UNL     1      -7.724   7.827  64.524  1.00  0.00    -0.107 OA 
HETATM   11  C   UNL     1      -8.509   7.104  65.410  1.00  0.00    -0.082 C  
ENDROOT
BRANCH   5  12
HETATM   12  C   UNL     1     -10.776  11.003  65.500  1.00  0.00    -0.218 C  
HETATM   13  C   UNL     1     -10.243  11.931  66.312  1.00  0.00    -0.247 C  
BRANCH  13  14
HETATM   14  C   UNL     1     -10.989  13.122  66.842  1.00  0.00    -0.276 C  
HETATM   15  O   UNL     1     -12.189  12.651  67.441  1.00  0.00    -0.406 OA 
HETATM   16  H   UNL     1     -12.660  13.404  67.776  1.00  0.00     0.000 HD 
BRANCH  14  17
HETATM   17  C   UNL     1     -10.181  13.882  67.900  1.00  0.00    -0.241 C  
BRANCH  17  18
HETATM   18  C   UNL     1     -11.058  14.481  69.002  1.00  0.00    -0.279 C  
BRANCH  18  19
HETATM   19  C   UNL     1     -11.636  15.837  68.593  1.00  0.00    -0.392 C  
BRANCH  19  20
HETATM   20  C   UNL     1     -10.627  16.956  68.853  1.00  0.00    -0.353 C  
HETATM   21  C   UNL     1     -10.486  17.872  67.649  1.00  0.00    -0.406 C  
ENDBRANCH  19  20
ENDBRANCH  18  19
ENDBRANCH  17  18
ENDBRANCH  14  17
ENDBRANCH  13  14
ENDBRANCH   5  12
BRANCH   6  22
HETATM   22  C   UNL     1      -7.795   4.912  64.403  1.00  0.00    -0.088 C  
BRANCH  22  23
HETATM   23  C   UNL     1      -7.976   3.423  64.695  1.00  0.00    -0.086 C  
BRANCH  23  24
HETATM   24  C   UNL     1      -9.433   3.114  65.025  1.00  0.00    -0.132 C  
HETATM   25  C   UNL     1     -10.286   2.992  63.789  1.00  0.00    -0.189 C  
HETATM   26  O   UNL     1     -11.218   3.737  63.529  1.00  0.00    -0.187 OA 
HETATM   27  O   UNL     1      -9.954   1.946  62.999  1.00  0.00    -0.098 OA 
ENDBRANCH  23  24
ENDBRANCH  22  23
ENDBRANCH   6  22
TORSDOF 9
ENDMDL
MODEL      225
REMARK 921   NORMALIZED FREE ENERGY PREDICTED BY IDOCK:   -3.50 KCAL/MOL
REMARK 922        TOTAL FREE ENERGY PREDICTED BY IDOCK:   -6.49 KCAL/MOL
REMARK 923 INTER-LIGAND FREE ENERGY PREDICTED BY IDOCK:   -5.04 KCAL/MOL
REMARK 924 INTRA-LIGAND FREE ENERGY PREDICTED BY IDOCK:   -1.45 KCAL/MOL
REMARK 927      BINDING AFFINITY PREDICTED BY RF-SCORE:    0.00 PKD
ROOT
HETATM    1  C   UNL     1      -9.397   3.189  68.806  1.00  0.00    -0.165 C  
HETATM    2  C   UNL     1      -8.151   2.678  69.507  1.00  0.00    -0.057 C  
HETATM    3  C   UNL     1      -7.281   3.915  69.718  1.00  0.00    -0.042 C  
HETATM    4  O   UNL     1      -6.323   4.041  68.668  1.00  0.00    -0.031 OA 
HETATM    5  C   UNL     1      -8.226   5.134  69.688  1.00  0.00    -0.093 C  
HETATM    6  C   UNL     1     -10.135   4.770  65.757  1.00  0.00    -0.236 C  
HETATM    7  C   UNL     1      -9.634   4.580  69.363  1.00  0.00    -0.264 C  
HETATM    8  H   UNL     1      -5.781   4.810  68.799  1.00  0.00     0.000 HD 
HETATM    9  C   UNL     1     -10.329   5.285  68.215  1.00  0.00    -0.181 C  
HETATM   10  O   UNL     1      -9.187   3.330  67.399  1.00  0.00    -0.169 OA 
HETATM   11  C   UNL     1      -9.882   4.473  67.039  1.00  0.00    -0.202 C  
ENDROOT
BRANCH   5  12
HETATM   12  C   UNL     1      -8.262   5.868  71.012  1.00  0.00    -0.122 C  
HETATM   13  C   UNL     1      -8.978   6.985  71.221  1.00  0.00    -0.137 C  
BRANCH  13  14
HETATM   14  C   UNL     1      -9.138   7.650  72.559  1.00  0.00    -0.155 C  
HETATM   15  O   UNL     1      -8.471   8.904  72.501  1.00  0.00    -0.395 OA 
HETATM   16  H   UNL     1      -8.573   9.325  73.347  1.00  0.00     0.000 HD 
BRANCH  14  17
HETATM   17  C   UNL     1     -10.611   7.895  72.905  1.00  0.00    -0.434 C  
BRANCH  17  18
HETATM   18  C   UNL     1     -11.478   8.149  71.670  1.00  0.00    -0.323 C  
BRANCH  18  19
HETATM   19  C   UNL     1     -11.797   9.634  71.495  1.00  0.00    -0.483 C  
BRANCH  19  20
HETATM   20  C   UNL     1     -13.241   9.930  71.901  1.00  0.00    -0.558 C  
HETATM   21  C   UNL     1     -14.094   8.673  71.890  1.00  0.00    -0.512 C  
ENDBRANCH  19  20
ENDBRANCH  18  19
ENDBRANCH  17  18
ENDBRANCH  14  17
ENDBRANCH  13  14
ENDBRANCH   5  12
BRANCH   6  22
HETATM   22  C   UNL     1      -9.729   3.914  64.592  1.00  0.00    -0.186 C  
BRANCH  22  23
HETATM   23  C   UNL     1      -8.778   4.653  63.652  1.00  0.00    -0.136 C  
BRANCH  23  24
HETATM   24  C   UNL     1      -7.496   5.042  64.383  1.00  0.00    -0.068 C  
HETATM   25  C   UNL     1      -6.632   3.847  64.697  1.00  0.00    -0.043 C  
HETATM   26  O   UNL     1      -6.357   3.487  65.831  1.00  0.00    -0.031 OA 
HETATM   27  O   UNL     1      -6.147   3.222  63.602  1.00  0.00    -0.014 OA 
ENDBRANCH  23  24
ENDBRANCH  22  23
ENDBRANCH   6  22
TORSDOF 9
ENDMDL
MODEL      226
REMARK 921   NORMALIZED FREE ENERGY PREDICTED BY IDOCK:   -3.50 KCAL/MOL
REMARK 922        TOTAL FREE ENERGY PREDICTED BY IDOCK:   -6.48 KCAL/MOL
REMARK 923 INTER-LIGAND FREE ENERGY PREDICTED BY IDOCK:   -5.68 KCAL/MOL
REMARK 924 INTRA-LIGAND FREE ENERGY PREDICTED BY IDOCK:   -0.80 KCAL/MOL
REMARK 927      BINDING AFFINITY PREDICTED BY RF-SCORE:    0.00 PKD
ROOT
HETATM    1  C   UNL     1     -10.445  11.521  65.724  1.00  0.00    -0.259 C  
HETATM    2  C   UNL     1     -10.301  10.653  64.487  1.00  0.00    -0.352 C  
HETATM    3  C   UNL     1      -9.350   9.532  64.898  1.00  0.00    -0.198 C  
HETATM    4  O   UNL     1      -8.011   9.844  64.517  1.00  0.00    -0.133 OA 
HETATM    5  C   UNL     1      -9.427   9.426  66.436  1.00  0.00    -0.259 C  
HETATM    6  C   UNL     1      -8.317  13.466  67.731  1.00  0.00    -0.178 C  
HETATM    7  C   UNL     1     -10.364  10.566  66.900  1.00  0.00    -0.293 C  
HETATM    8  H   UNL     1      -7.419   9.146  64.773  1.00  0.00     0.000 HD 
HETATM    9  C   UNL     1      -9.786  11.437  67.998  1.00  0.00    -0.191 C  
HETATM   10  O   UNL     1      -9.356  12.438  65.851  1.00  0.00    -0.181 OA 
HETATM   11  C   UNL     1      -9.094  12.505  67.210  1.00  0.00    -0.189 C  
ENDROOT
BRANCH   5  12
HETATM   12  C   UNL     1      -9.981   8.094  66.894  1.00  0.00    -0.343 C  
HETATM   13  C   UNL     1      -9.403   7.337  67.842  1.00  0.00    -0.131 C  
BRANCH  13  14
HETATM   14  C   UNL     1     -10.006   6.083  68.410  1.00  0.00    -0.145 C  
HETATM   15  O   UNL     1      -9.065   5.522  69.315  1.00  0.00    -0.110 OA 
HETATM   16  H   UNL     1      -9.446   4.729  69.674  1.00  0.00     0.000 HD 
BRANCH  14  17
HETATM   17  C   UNL     1     -11.307   6.364  69.169  1.00  0.00    -0.366 C  
BRANCH  17  18
HETATM   18  C   UNL     1     -11.275   5.855  70.613  1.00  0.00    -0.284 C  
BRANCH  18  19
HETATM   19  C   UNL     1     -11.729   6.928  71.603  1.00  0.00    -0.343 C  
BRANCH  19  20
HETATM   20  C   UNL     1     -10.541   7.769  72.074  1.00  0.00    -0.279 C  
HETATM   21  C   UNL     1     -10.537   9.142  71.424  1.00  0.00    -0.412 C  
ENDBRANCH  19  20
ENDBRANCH  18  19
ENDBRANCH  17  18
ENDBRANCH  14  17
ENDBRANCH  13  14
ENDBRANCH   5  12
BRANCH   6  22
HETATM   22  C   UNL     1      -7.676  14.564  66.933  1.00  0.00     0.223 C  
BRANCH  22  23
HETATM   23  C   UNL     1      -8.718  15.465  66.273  1.00  0.00    -0.240 C  
BRANCH  23  24
HETATM   24  C   UNL     1      -8.837  16.788  67.023  1.00  0.00    -0.227 C  
HETATM   25  C   UNL     1     -10.026  16.814  67.949  1.00  0.00    -0.268 C  
HETATM   26  O   UNL     1     -10.965  17.586  67.827  1.00  0.00    -0.314 OA 
HETATM   27  O   UNL     1      -9.946  15.927  68.965  1.00  0.00    -0.207 OA 
ENDBRANCH  23  24
ENDBRANCH  22  23
ENDBRANCH   6  22
TORSDOF 9
ENDMDL
MODEL      227
REMARK 921   NORMALIZED FREE ENERGY PREDICTED BY IDOCK:   -3.45 KCAL/MOL
REMARK 922        TOTAL FREE ENERGY PREDICTED BY IDOCK:   -6.41 KCAL/MOL
REMARK 923 INTER-LIGAND FREE ENERGY PREDICTED BY IDOCK:   -4.87 KCAL/MOL
REMARK 924 INTRA-LIGAND FREE ENERGY PREDICTED BY IDOCK:   -1.54 KCAL/MOL
REMARK 927      BINDING AFFINITY PREDICTED BY RF-SCORE:    0.00 PKD
ROOT
HETATM    1  C   UNL     1     -11.234   7.693  71.896  1.00  0.00    -0.257 C  
HETATM    2  C   UNL     1     -11.618   8.694  70.821  1.00  0.00    -0.273 C  
HETATM    3  C   UNL     1     -10.736   8.347  69.623  1.00  0.00    -0.198 C  
HETATM    4  O   UNL     1      -9.568   9.167  69.604  1.00  0.00    -0.165 OA 
HETATM    5  C   UNL     1     -10.314   6.872  69.795  1.00  0.00    -0.224 C  
HETATM    6  C   UNL     1      -8.333   6.889  73.707  1.00  0.00    -0.147 C  
HETATM    7  C   UNL     1     -10.893   6.414  71.155  1.00  0.00    -0.308 C  
HETATM    8  H   UNL     1      -9.019   8.952  68.860  1.00  0.00     0.000 HD 
HETATM    9  C   UNL     1      -9.879   5.758  72.071  1.00  0.00    -0.183 C  
HETATM   10  O   UNL     1     -10.056   8.101  72.595  1.00  0.00    -0.271 OA 
HETATM   11  C   UNL     1      -9.354   6.931  72.839  1.00  0.00    -0.135 C  
ENDROOT
BRANCH   5  12
HETATM   12  C   UNL     1     -10.852   5.988  68.690  1.00  0.00    -0.379 C  
HETATM   13  C   UNL     1     -10.126   5.607  67.626  1.00  0.00    -0.208 C  
BRANCH  13  14
HETATM   14  C   UNL     1     -10.591   4.621  66.591  1.00  0.00     0.073 C  
HETATM   15  O   UNL     1     -11.369   5.331  65.637  1.00  0.00    -0.772 OA 
HETATM   16  H   UNL     1     -11.663   4.708  64.983  1.00  0.00     0.000 HD 
BRANCH  14  17
HETATM   17  C   UNL     1      -9.417   3.953  65.866  1.00  0.00    -0.182 C  
BRANCH  17  18
HETATM   18  C   UNL     1      -8.068   4.593  66.203  1.00  0.00    -0.103 C  
BRANCH  18  19
HETATM   19  C   UNL     1      -7.530   5.428  65.041  1.00  0.00    -0.073 C  
BRANCH  19  20
HETATM   20  C   UNL     1      -7.229   6.857  65.494  1.00  0.00    -0.077 C  
HETATM   21  C   UNL     1      -8.236   7.846  64.930  1.00  0.00    -0.128 C  
ENDBRANCH  19  20
ENDBRANCH  18  19
ENDBRANCH  17  18
ENDBRANCH  14  17
ENDBRANCH  13  14
ENDBRANCH   5  12
BRANCH   6  22
HETATM   22  C   UNL     1      -7.856   8.064  74.512  1.00  0.00    -0.289 C  
BRANCH  22  23
HETATM   23  C   UNL     1      -6.352   8.285  74.353  1.00  0.00    -0.142 C  
BRANCH  23  24
HETATM   24  C   UNL     1      -5.947   8.184  72.886  1.00  0.00    -0.065 C  
HETATM   25  C   UNL     1      -6.230   9.455  72.126  1.00  0.00     0.201 C  
HETATM   26  O   UNL     1      -7.016   9.529  71.194  1.00  0.00    -0.270 OA 
HETATM   27  O   UNL     1      -5.500  10.513  72.543  1.00  0.00    -0.298 OA 
ENDBRANCH  23  24
ENDBRANCH  22  23
ENDBRANCH   6  22
TORSDOF 9
ENDMDL
MODEL      228
REMARK 921   NORMALIZED FREE ENERGY PREDICTED BY IDOCK:   -3.43 KCAL/MOL
REMARK 922        TOTAL FREE ENERGY PREDICTED BY IDOCK:   -6.39 KCAL/MOL
REMARK 923 INTER-LIGAND FREE ENERGY PREDICTED BY IDOCK:   -5.18 KCAL/MOL
REMARK 924 INTRA-LIGAND FREE ENERGY PREDICTED BY IDOCK:   -1.21 KCAL/MOL
REMARK 927      BINDING AFFINITY PREDICTED BY RF-SCORE:    0.00 PKD
ROOT
HETATM    1  C   UNL     1      -7.511   7.268  67.590  1.00  0.00    -0.101 C  
HETATM    2  C   UNL     1      -6.433   7.076  68.643  1.00  0.00    -0.036 C  
HETATM    3  C   UNL     1      -7.164   7.175  69.980  1.00  0.00    -0.078 C  
HETATM    4  O   UNL     1      -7.076   8.500  70.504  1.00  0.00    -0.037 OA 
HETATM    5  C   UNL     1      -8.644   6.839  69.703  1.00  0.00    -0.133 C  
HETATM    6  C   UNL     1      -9.754   9.812  66.677  1.00  0.00    -0.257 C  
HETATM    7  C   UNL     1      -8.762   6.639  68.173  1.00  0.00    -0.117 C  
HETATM    8  H   UNL     1      -7.530   8.562  71.336  1.00  0.00     0.000 HD 
HETATM    9  C   UNL     1      -9.872   7.443  67.526  1.00  0.00    -0.203 C  
HETATM   10  O   UNL     1      -7.796   8.652  67.377  1.00  0.00    -0.097 OA 
HETATM   11  C   UNL     1      -9.165   8.715  67.173  1.00  0.00    -0.144 C  
ENDROOT
BRANCH   5  12
HETATM   12  C   UNL     1      -9.091   5.580  70.416  1.00  0.00    -0.164 C  
HETATM   13  C   UNL     1      -9.003   5.411  71.746  1.00  0.00    -0.146 C  
BRANCH  13  14
HETATM   14  C   UNL     1      -9.564   4.232  72.489  1.00  0.00    -0.138 C  
HETATM   15  O   UNL     1      -8.758   4.022  73.641  1.00  0.00    -0.094 OA 
HETATM   16  H   UNL     1      -9.114   3.277  74.110  1.00  0.00     0.000 HD 
BRANCH  14  17
HETATM   17  C   UNL     1     -11.009   4.473  72.941  1.00  0.00    -0.262 C  
BRANCH  17  18
HETATM   18  C   UNL     1     -11.285   5.936  73.294  1.00  0.00    -0.144 C  
BRANCH  18  19
HETATM   19  C   UNL     1     -12.089   6.642  72.201  1.00  0.00    -0.299 C  
BRANCH  19  20
HETATM   20  C   UNL     1     -12.052   8.158  72.394  1.00  0.00    -0.406 C  
HETATM   21  C   UNL     1     -10.660   8.718  72.154  1.00  0.00    -0.386 C  
ENDBRANCH  19  20
ENDBRANCH  18  19
ENDBRANCH  17  18
ENDBRANCH  14  17
ENDBRANCH  13  14
ENDBRANCH   5  12
BRANCH   6  22
HETATM   22  C   UNL     1      -9.022  11.059  66.274  1.00  0.00    -0.195 C  
BRANCH  22  23
HETATM   23  C   UNL     1      -9.944  12.054  65.572  1.00  0.00    -0.267 C  
BRANCH  23  24
HETATM   24  C   UNL     1     -11.342  12.014  66.182  1.00  0.00    -0.407 C  
HETATM   25  C   UNL     1     -11.642  13.242  67.003  1.00  0.00    -0.359 C  
HETATM   26  O   UNL     1     -11.862  13.219  68.205  1.00  0.00    -0.335 OA 
HETATM   27  O   UNL     1     -11.689  14.383  66.281  1.00  0.00    -0.370 OA 
ENDBRANCH  23  24
ENDBRANCH  22  23
ENDBRANCH   6  22
TORSDOF 9
ENDMDL
MODEL      229
REMARK 921   NORMALIZED FREE ENERGY PREDICTED BY IDOCK:   -3.43 KCAL/MOL
REMARK 922        TOTAL FREE ENERGY PREDICTED BY IDOCK:   -6.38 KCAL/MOL
REMARK 923 INTER-LIGAND FREE ENERGY PREDICTED BY IDOCK:   -4.95 KCAL/MOL
REMARK 924 INTRA-LIGAND FREE ENERGY PREDICTED BY IDOCK:   -1.43 KCAL/MOL
REMARK 927      BINDING AFFINITY PREDICTED BY RF-SCORE:    0.00 PKD
ROOT
HETATM    1  C   UNL     1      -8.698   6.717  67.158  1.00  0.00    -0.119 C  
HETATM    2  C   UNL     1      -9.890   7.460  66.582  1.00  0.00    -0.263 C  
HETATM    3  C   UNL     1     -11.114   6.761  67.168  1.00  0.00    -0.333 C  
HETATM    4  O   UNL     1     -11.616   5.780  66.261  1.00  0.00    -0.404 OA 
HETATM    5  C   UNL     1     -10.647   6.060  68.462  1.00  0.00    -0.325 C  
HETATM    6  C   UNL     1      -7.434   3.442  67.030  1.00  0.00    -0.075 C  
HETATM    7  C   UNL     1      -9.121   6.294  68.552  1.00  0.00    -0.125 C  
HETATM    8  H   UNL     1     -12.377   5.345  66.626  1.00  0.00     0.000 HD 
HETATM    9  C   UNL     1      -8.312   5.031  68.776  1.00  0.00    -0.084 C  
HETATM   10  O   UNL     1      -8.417   5.524  66.423  1.00  0.00    -0.116 OA 
HETATM   11  C   UNL     1      -8.029   4.593  67.373  1.00  0.00    -0.101 C  
ENDROOT
BRANCH   5  12
HETATM   12  C   UNL     1     -11.321   6.622  69.696  1.00  0.00    -0.387 C  
HETATM   13  C   UNL     1     -11.232   6.057  70.911  1.00  0.00    -0.335 C  
BRANCH  13  14
HETATM   14  C   UNL     1     -11.775   6.669  72.172  1.00  0.00    -0.304 C  
HETATM   15  O   UNL     1     -12.924   5.924  72.555  1.00  0.00    -0.427 OA 
HETATM   16  H   UNL     1     -13.266   6.311  73.352  1.00  0.00     0.000 HD 
BRANCH  14  17
HETATM   17  C   UNL     1     -10.758   6.622  73.317  1.00  0.00    -0.315 C  
BRANCH  17  18
HETATM   18  C   UNL     1     -10.556   5.211  73.876  1.00  0.00    -0.340 C  
BRANCH  18  19
HETATM   19  C   UNL     1      -9.134   4.703  73.637  1.00  0.00    -0.105 C  
BRANCH  19  20
HETATM   20  C   UNL     1      -9.145   3.230  73.231  1.00  0.00    -0.100 C  
HETATM   21  C   UNL     1      -7.750   2.628  73.274  1.00  0.00    -0.050 C  
ENDBRANCH  19  20
ENDBRANCH  18  19
ENDBRANCH  17  18
ENDBRANCH  14  17
ENDBRANCH  13  14
ENDBRANCH   5  12
BRANCH   6  22
HETATM   22  C   UNL     1      -7.106   3.044  65.620  1.00  0.00    -0.061 C  
BRANCH  22  23
HETATM   23  C   UNL     1      -7.758   1.716  65.241  1.00  0.00    -0.071 C  
BRANCH  23  24
HETATM   24  C   UNL     1      -9.279   1.835  65.271  1.00  0.00    -0.056 C  
HETATM   25  C   UNL     1      -9.801   2.759  64.201  1.00  0.00    -0.140 C  
HETATM   26  O   UNL     1     -10.399   3.798  64.432  1.00  0.00    -0.224 OA 
HETATM   27  O   UNL     1      -9.584   2.313  62.944  1.00  0.00    -0.090 OA 
ENDBRANCH  23  24
ENDBRANCH  22  23
ENDBRANCH   6  22
TORSDOF 9
ENDMDL
MODEL      230
REMARK 921   NORMALIZED FREE ENERGY PREDICTED BY IDOCK:   -3.40 KCAL/MOL
REMARK 922        TOTAL FREE ENERGY PREDICTED BY IDOCK:   -6.34 KCAL/MOL
REMARK 923 INTER-LIGAND FREE ENERGY PREDICTED BY IDOCK:   -5.50 KCAL/MOL
REMARK 924 INTRA-LIGAND FREE ENERGY PREDICTED BY IDOCK:   -0.84 KCAL/MOL
REMARK 927      BINDING AFFINITY PREDICTED BY RF-SCORE:    0.00 PKD
ROOT
HETATM    1  C   UNL     1      -7.694   9.254  65.280  1.00  0.00    -0.103 C  
HETATM    2  C   UNL     1      -7.555  10.215  64.112  1.00  0.00    -0.125 C  
HETATM    3  C   UNL     1      -8.973  10.393  63.575  1.00  0.00    -0.233 C  
HETATM    4  O   UNL     1      -9.211   9.507  62.482  1.00  0.00    -0.378 OA 
HETATM    5  C   UNL     1      -9.933  10.039  64.731  1.00  0.00    -0.248 C  
HETATM    6  C   UNL     1      -8.754   5.936  65.735  1.00  0.00    -0.153 C  
HETATM    7  C   UNL     1      -9.041   9.567  65.903  1.00  0.00    -0.230 C  
HETATM    8  H   UNL     1     -10.093   9.618  62.147  1.00  0.00     0.000 HD 
HETATM    9  C   UNL     1      -9.451   8.234  66.497  1.00  0.00    -0.284 C  
HETATM   10  O   UNL     1      -7.739   7.895  64.839  1.00  0.00    -0.097 OA 
HETATM   11  C   UNL     1      -8.651   7.272  65.675  1.00  0.00    -0.109 C  
ENDROOT
BRANCH   5  12
HETATM   12  C   UNL     1     -10.766  11.224  65.170  1.00  0.00    -0.312 C  
HETATM   13  C   UNL     1     -10.303  12.198  65.972  1.00  0.00    -0.268 C  
BRANCH  13  14
HETATM   14  C   UNL     1     -11.063  13.450  66.309  1.00  0.00    -0.293 C  
HETATM   15  O   UNL     1     -12.396  13.076  66.629  1.00  0.00    -0.381 OA 
HETATM   16  H   UNL     1     -12.876  13.867  66.842  1.00  0.00     0.000 HD 
BRANCH  14  17
HETATM   17  C   UNL     1     -10.458  14.182  67.512  1.00  0.00    -0.249 C  
BRANCH  17  18
HETATM   18  C   UNL     1     -11.046  15.581  67.714  1.00  0.00    -0.315 C  
BRANCH  18  19
HETATM   19  C   UNL     1     -11.354  15.861  69.185  1.00  0.00    -0.366 C  
BRANCH  19  20
HETATM   20  C   UNL     1     -12.161  14.716  69.798  1.00  0.00    -0.371 C  
HETATM   21  C   UNL     1     -13.049  15.202  70.931  1.00  0.00    -0.498 C  
ENDBRANCH  19  20
ENDBRANCH  18  19
ENDBRANCH  17  18
ENDBRANCH  14  17
ENDBRANCH  13  14
ENDBRANCH   5  12
BRANCH   6  22
HETATM   22  C   UNL     1      -7.904   4.984  64.945  1.00  0.00    -0.091 C  
BRANCH  22  23
HETATM   23  C   UNL     1      -8.570   3.617  64.801  1.00  0.00    -0.105 C  
BRANCH  23  24
HETATM   24  C   UNL     1      -7.676   2.521  65.372  1.00  0.00    -0.077 C  
HETATM   25  C   UNL     1      -7.609   2.564  66.877  1.00  0.00    -0.070 C  
HETATM   26  O   UNL     1      -6.584   2.778  67.506  1.00  0.00    -0.035 OA 
HETATM   27  O   UNL     1      -8.788   2.301  67.483  1.00  0.00    -0.110 OA 
ENDBRANCH  23  24
ENDBRANCH  22  23
ENDBRANCH   6  22
TORSDOF 9
ENDMDL
MODEL      231
REMARK 921   NORMALIZED FREE ENERGY PREDICTED BY IDOCK:   -3.39 KCAL/MOL
REMARK 922        TOTAL FREE ENERGY PREDICTED BY IDOCK:   -6.32 KCAL/MOL
REMARK 923 INTER-LIGAND FREE ENERGY PREDICTED BY IDOCK:   -5.54 KCAL/MOL
REMARK 924 INTRA-LIGAND FREE ENERGY PREDICTED BY IDOCK:   -0.78 KCAL/MOL
REMARK 927      BINDING AFFINITY PREDICTED BY RF-SCORE:    0.00 PKD
ROOT
HETATM    1  C   UNL     1      -7.763   8.844  68.732  1.00  0.00    -0.096 C  
HETATM    2  C   UNL     1      -6.760   8.876  67.592  1.00  0.00    -0.066 C  
HETATM    3  C   UNL     1      -7.509   8.306  66.390  1.00  0.00    -0.080 C  
HETATM    4  O   UNL     1      -7.238   6.913  66.243  1.00  0.00    -0.068 OA 
HETATM    5  C   UNL     1      -9.014   8.502  66.670  1.00  0.00    -0.178 C  
HETATM    6  C   UNL     1      -9.567   6.378  70.466  1.00  0.00    -0.179 C  
HETATM    7  C   UNL     1      -9.112   9.106  68.091  1.00  0.00    -0.134 C  
HETATM    8  H   UNL     1      -7.704   6.558  65.495  1.00  0.00     0.000 HD 
HETATM    9  C   UNL     1     -10.067   8.373  69.012  1.00  0.00    -0.209 C  
HETATM   10  O   UNL     1      -7.829   7.550  69.336  1.00  0.00    -0.115 OA 
HETATM   11  C   UNL     1      -9.166   7.361  69.648  1.00  0.00    -0.146 C  
ENDROOT
BRANCH   5  12
HETATM   12  C   UNL     1      -9.668   9.436  65.674  1.00  0.00    -0.336 C  
HETATM   13  C   UNL     1      -9.044   9.910  64.582  1.00  0.00    -0.288 C  
BRANCH  13  14
HETATM   14  C   UNL     1      -9.713  10.724  63.510  1.00  0.00    -0.341 C  
HETATM   15  O   UNL     1     -10.014   9.851  62.429  1.00  0.00    -0.616 OA 
HETATM   16  H   UNL     1     -10.437  10.366  61.752  1.00  0.00     0.000 HD 
BRANCH  14  17
HETATM   17  C   UNL     1     -11.017  11.360  64.002  1.00  0.00    -0.428 C  
BRANCH  17  18
HETATM   18  C   UNL     1     -10.783  12.545  64.943  1.00  0.00    -0.327 C  
BRANCH  18  19
HETATM   19  C   UNL     1     -11.735  12.517  66.139  1.00  0.00    -0.466 C  
BRANCH  19  20
HETATM   20  C   UNL     1     -12.506  13.832  66.250  1.00  0.00    -0.441 C  
HETATM   21  C   UNL     1     -11.881  14.762  67.277  1.00  0.00    -0.316 C  
ENDBRANCH  19  20
ENDBRANCH  18  19
ENDBRANCH  17  18
ENDBRANCH  14  17
ENDBRANCH  13  14
ENDBRANCH   5  12
BRANCH   6  22
HETATM   22  C   UNL     1      -8.642   5.406  71.141  1.00  0.00    -0.128 C  
BRANCH  22  23
HETATM   23  C   UNL     1      -8.984   5.235  72.620  1.00  0.00    -0.135 C  
BRANCH  23  24
HETATM   24  C   UNL     1      -8.519   3.872  73.124  1.00  0.00    -0.092 C  
HETATM   25  C   UNL     1      -9.672   2.956  73.443  1.00  0.00    -0.101 C  
HETATM   26  O   UNL     1      -9.909   2.525  74.561  1.00  0.00    -0.096 OA 
HETATM   27  O   UNL     1     -10.410   2.614  72.364  1.00  0.00    -0.162 OA 
ENDBRANCH  23  24
ENDBRANCH  22  23
ENDBRANCH   6  22
TORSDOF 9
ENDMDL
MODEL      232
REMARK 921   NORMALIZED FREE ENERGY PREDICTED BY IDOCK:   -3.36 KCAL/MOL
REMARK 922        TOTAL FREE ENERGY PREDICTED BY IDOCK:   -6.28 KCAL/MOL
REMARK 923 INTER-LIGAND FREE ENERGY PREDICTED BY IDOCK:   -5.42 KCAL/MOL
REMARK 924 INTRA-LIGAND FREE ENERGY PREDICTED BY IDOCK:   -0.86 KCAL/MOL
REMARK 927      BINDING AFFINITY PREDICTED BY RF-SCORE:    0.00 PKD
ROOT
HETATM    1  C   UNL     1     -10.335  11.407  64.352  1.00  0.00    -0.320 C  
HETATM    2  C   UNL     1     -11.543  12.132  63.784  1.00  0.00    -0.557 C  
HETATM    3  C   UNL     1     -11.918  13.166  64.844  1.00  0.00    -0.388 C  
HETATM    4  O   UNL     1     -12.946  12.662  65.696  1.00  0.00    -0.290 OA 
HETATM    5  C   UNL     1     -10.648  13.423  65.682  1.00  0.00    -0.286 C  
HETATM    6  C   UNL     1      -9.649   9.420  67.166  1.00  0.00    -0.202 C  
HETATM    7  C   UNL     1      -9.571  12.452  65.143  1.00  0.00     0.026 C  
HETATM    8  H   UNL     1     -13.180  13.305  66.355  1.00  0.00     0.000 HD 
HETATM    9  C   UNL     1      -8.889  11.625  66.215  1.00  0.00    -0.164 C  
HETATM   10  O   UNL     1     -10.722  10.383  65.271  1.00  0.00    -0.099 OA 
HETATM   11  C   UNL     1      -9.765  10.413  66.273  1.00  0.00    -0.205 C  
ENDROOT
BRANCH   5  12
HETATM   12  C   UNL     1     -10.155  14.849  65.556  1.00  0.00    -0.400 C  
HETATM   13  C   UNL     1      -9.251  15.397  66.385  1.00  0.00    -0.339 C  
BRANCH  13  14
HETATM   14  C   UNL     1      -8.645  16.759  66.198  1.00  0.00    -0.264 C  
HETATM   15  O   UNL     1      -9.708  17.701  66.135  1.00  0.00    -0.427 OA 
HETATM   16  H   UNL     1      -9.326  18.562  66.017  1.00  0.00     0.000 HD 
BRANCH  14  17
HETATM   17  C   UNL     1      -7.722  17.142  67.360  1.00  0.00    -0.191 C  
BRANCH  17  18
HETATM   18  C   UNL     1      -7.908  16.246  68.587  1.00  0.00    -0.202 C  
BRANCH  18  19
HETATM   19  C   UNL     1      -6.830  15.165  68.669  1.00  0.00    -0.105 C  
BRANCH  19  20
HETATM   20  C   UNL     1      -7.461  13.778  68.790  1.00  0.00    -0.098 C  
HETATM   21  C   UNL     1      -6.735  12.921  69.815  1.00  0.00     0.163 C  
ENDBRANCH  19  20
ENDBRANCH  18  19
ENDBRANCH  17  18
ENDBRANCH  14  17
ENDBRANCH  13  14
ENDBRANCH   5  12
BRANCH   6  22
HETATM   22  C   UNL     1     -10.500   8.183  67.175  1.00  0.00    -0.396 C  
BRANCH  22  23
HETATM   23  C   UNL     1      -9.817   7.032  67.911  1.00  0.00    -0.161 C  
BRANCH  23  24
HETATM   24  C   UNL     1      -8.678   6.460  67.074  1.00  0.00    -0.115 C  
HETATM   25  C   UNL     1      -8.847   4.986  66.808  1.00  0.00    -0.107 C  
HETATM   26  O   UNL     1      -8.072   4.130  67.205  1.00  0.00    -0.098 OA 
HETATM   27  O   UNL     1      -9.924   4.689  66.048  1.00  0.00    -0.198 OA 
ENDBRANCH  23  24
ENDBRANCH  22  23
ENDBRANCH   6  22
TORSDOF 9
ENDMDL
MODEL      233
REMARK 921   NORMALIZED FREE ENERGY PREDICTED BY IDOCK:   -3.36 KCAL/MOL
REMARK 922        TOTAL FREE ENERGY PREDICTED BY IDOCK:   -6.27 KCAL/MOL
REMARK 923 INTER-LIGAND FREE ENERGY PREDICTED BY IDOCK:   -5.45 KCAL/MOL
REMARK 924 INTRA-LIGAND FREE ENERGY PREDICTED BY IDOCK:   -0.83 KCAL/MOL
REMARK 927      BINDING AFFINITY PREDICTED BY RF-SCORE:    0.00 PKD
ROOT
HETATM    1  C   UNL     1     -10.814   6.600  69.304  1.00  0.00    -0.289 C  
HETATM    2  C   UNL     1     -11.772   7.051  70.392  1.00  0.00    -0.326 C  
HETATM    3  C   UNL     1     -11.063   8.210  71.088  1.00  0.00    -0.245 C  
HETATM    4  O   UNL     1     -10.371   7.751  72.249  1.00  0.00    -0.207 OA 
HETATM    5  C   UNL     1     -10.040   8.774  70.080  1.00  0.00    -0.203 C  
HETATM    6  C   UNL     1      -7.564   5.273  69.163  1.00  0.00    -0.074 C  
HETATM    7  C   UNL     1     -10.112   7.860  68.835  1.00  0.00    -0.203 C  
HETATM    8  H   UNL     1      -9.930   8.472  72.683  1.00  0.00     0.000 HD 
HETATM    9  C   UNL     1      -8.767   7.339  68.368  1.00  0.00    -0.122 C  
HETATM   10  O   UNL     1      -9.808   5.725  69.820  1.00  0.00    -0.160 OA 
HETATM   11  C   UNL     1      -8.649   6.060  69.137  1.00  0.00    -0.117 C  
ENDROOT
BRANCH   5  12
HETATM   12  C   UNL     1     -10.351  10.201  69.682  1.00  0.00    -0.278 C  
HETATM   13  C   UNL     1     -11.492  10.569  69.075  1.00  0.00    -0.304 C  
BRANCH  13  14
HETATM   14  C   UNL     1     -11.882  11.993  68.796  1.00  0.00    -0.302 C  
HETATM   15  O   UNL     1     -11.019  12.834  69.549  1.00  0.00    -0.450 OA 
HETATM   16  H   UNL     1     -11.266  13.734  69.372  1.00  0.00     0.000 HD 
BRANCH  14  17
HETATM   17  C   UNL     1     -11.739  12.348  67.312  1.00  0.00    -0.419 C  
BRANCH  17  18
HETATM   18  C   UNL     1     -11.075  13.709  67.087  1.00  0.00    -0.311 C  
BRANCH  18  19
HETATM   19  C   UNL     1     -10.500  13.833  65.676  1.00  0.00    -0.312 C  
BRANCH  19  20
HETATM   20  C   UNL     1     -11.528  14.445  64.724  1.00  0.00    -0.402 C  
HETATM   21  C   UNL     1     -12.019  13.430  63.705  1.00  0.00    -0.517 C  
ENDBRANCH  19  20
ENDBRANCH  18  19
ENDBRANCH  17  18
ENDBRANCH  14  17
ENDBRANCH  13  14
ENDBRANCH   5  12
BRANCH   6  22
HETATM   22  C   UNL     1      -7.483   3.964  69.894  1.00  0.00    -0.048 C  
BRANCH  22  23
HETATM   23  C   UNL     1      -6.894   4.133  71.293  1.00  0.00    -0.035 C  
BRANCH  23  24
HETATM   24  C   UNL     1      -6.542   2.776  71.896  1.00  0.00    -0.015 C  
HETATM   25  C   UNL     1      -7.009   2.646  73.323  1.00  0.00    -0.031 C  
HETATM   26  O   UNL     1      -6.256   2.495  74.273  1.00  0.00    -0.010 OA 
HETATM   27  O   UNL     1      -8.353   2.669  73.461  1.00  0.00    -0.066 OA 
ENDBRANCH  23  24
ENDBRANCH  22  23
ENDBRANCH   6  22
TORSDOF 9
ENDMDL
MODEL      234
REMARK 921   NORMALIZED FREE ENERGY PREDICTED BY IDOCK:   -3.36 KCAL/MOL
REMARK 922        TOTAL FREE ENERGY PREDICTED BY IDOCK:   -6.27 KCAL/MOL
REMARK 923 INTER-LIGAND FREE ENERGY PREDICTED BY IDOCK:   -5.72 KCAL/MOL
REMARK 924 INTRA-LIGAND FREE ENERGY PREDICTED BY IDOCK:   -0.55 KCAL/MOL
REMARK 927      BINDING AFFINITY PREDICTED BY RF-SCORE:    0.00 PKD
ROOT
HETATM    1  C   UNL     1     -10.813   8.797  68.391  1.00  0.00     0.034 C  
HETATM    2  C   UNL     1     -10.495   9.176  69.827  1.00  0.00    -0.234 C  
HETATM    3  C   UNL     1      -9.292  10.112  69.732  1.00  0.00    -0.150 C  
HETATM    4  O   UNL     1      -8.077   9.391  69.927  1.00  0.00    -0.105 OA 
HETATM    5  C   UNL     1      -9.304  10.707  68.308  1.00  0.00    -0.156 C  
HETATM    6  C   UNL     1      -9.165   7.133  65.773  1.00  0.00     0.087 C  
HETATM    7  C   UNL     1     -10.476  10.024  67.565  1.00  0.00    -0.307 C  
HETATM    8  H   UNL     1      -7.328   9.973  69.869  1.00  0.00     0.000 HD 
HETATM    9  C   UNL     1     -10.097   9.429  66.223  1.00  0.00    -0.328 C  
HETATM   10  O   UNL     1      -9.973   7.736  67.930  1.00  0.00    -0.157 OA 
HETATM   11  C   UNL     1      -9.701   8.037  66.605  1.00  0.00    -0.243 C  
ENDROOT
BRANCH   5  12
HETATM   12  C   UNL     1      -9.511  12.207  68.313  1.00  0.00    -0.204 C  
HETATM   13  C   UNL     1     -10.702  12.792  68.108  1.00  0.00    -0.243 C  
BRANCH  13  14
HETATM   14  C   UNL     1     -10.958  14.266  68.245  1.00  0.00    -0.247 C  
HETATM   15  O   UNL     1     -12.365  14.457  68.314  1.00  0.00    -0.604 OA 
HETATM   16  H   UNL     1     -12.526  15.389  68.400  1.00  0.00     0.000 HD 
BRANCH  14  17
HETATM   17  C   UNL     1     -10.323  14.844  69.515  1.00  0.00    -0.168 C  
BRANCH  17  18
HETATM   18  C   UNL     1     -11.333  15.574  70.405  1.00  0.00    -0.360 C  
BRANCH  18  19
HETATM   19  C   UNL     1     -12.208  14.596  71.190  1.00  0.00    -0.405 C  
BRANCH  19  20
HETATM   20  C   UNL     1     -13.198  15.348  72.080  1.00  0.00    -0.521 C  
HETATM   21  C   UNL     1     -12.487  16.316  73.011  1.00  0.00    -0.533 C  
ENDBRANCH  19  20
ENDBRANCH  18  19
ENDBRANCH  17  18
ENDBRANCH  14  17
ENDBRANCH  13  14
ENDBRANCH   5  12
BRANCH   6  22
HETATM   22  C   UNL     1      -8.826   5.721  66.158  1.00  0.00    -0.146 C  
BRANCH  22  23
HETATM   23  C   UNL     1      -9.951   4.752  65.799  1.00  0.00    -0.225 C  
BRANCH  23  24
HETATM   24  C   UNL     1      -9.389   3.367  65.494  1.00  0.00    -0.150 C  
HETATM   25  C   UNL     1      -8.707   2.751  66.688  1.00  0.00    -0.122 C  
HETATM   26  O   UNL     1      -7.518   2.474  66.723  1.00  0.00    -0.067 OA 
HETATM   27  O   UNL     1      -9.541   2.489  67.718  1.00  0.00    -0.168 OA 
ENDBRANCH  23  24
ENDBRANCH  22  23
ENDBRANCH   6  22
TORSDOF 9
ENDMDL
MODEL      235
REMARK 921   NORMALIZED FREE ENERGY PREDICTED BY IDOCK:   -3.35 KCAL/MOL
REMARK 922        TOTAL FREE ENERGY PREDICTED BY IDOCK:   -6.26 KCAL/MOL
REMARK 923 INTER-LIGAND FREE ENERGY PREDICTED BY IDOCK:   -5.46 KCAL/MOL
REMARK 924 INTRA-LIGAND FREE ENERGY PREDICTED BY IDOCK:   -0.80 KCAL/MOL
REMARK 927      BINDING AFFINITY PREDICTED BY RF-SCORE:    0.00 PKD
ROOT
HETATM    1  C   UNL     1     -10.927  13.673  67.447  1.00  0.00    -0.276 C  
HETATM    2  C   UNL     1     -11.702  12.741  66.532  1.00  0.00    -0.463 C  
HETATM    3  C   UNL     1     -10.637  11.987  65.740  1.00  0.00    -0.263 C  
HETATM    4  O   UNL     1     -10.411  12.615  64.478  1.00  0.00    -0.317 OA 
HETATM    5  C   UNL     1      -9.339  12.046  66.573  1.00  0.00    -0.226 C  
HETATM    6  C   UNL     1      -8.696  16.357  67.047  1.00  0.00    -0.224 C  
HETATM    7  C   UNL     1      -9.658  12.923  67.806  1.00  0.00    -0.212 C  
HETATM    8  H   UNL     1      -9.749  12.146  63.984  1.00  0.00     0.000 HD 
HETATM    9  C   UNL     1      -8.665  14.044  68.043  1.00  0.00    -0.180 C  
HETATM   10  O   UNL     1     -10.532  14.866  66.766  1.00  0.00    -0.274 OA 
HETATM   11  C   UNL     1      -9.270  15.163  67.255  1.00  0.00    -0.198 C  
ENDROOT
BRANCH   5  12
HETATM   12  C   UNL     1      -8.886  10.675  67.028  1.00  0.00    -0.141 C  
HETATM   13  C   UNL     1      -9.083   9.554  66.314  1.00  0.00    -0.202 C  
BRANCH  13  14
HETATM   14  C   UNL     1      -8.522   8.208  66.677  1.00  0.00    -0.128 C  
HETATM   15  O   UNL     1      -7.233   8.413  67.241  1.00  0.00    -0.081 OA 
HETATM   16  H   UNL     1      -6.879   7.563  67.471  1.00  0.00     0.000 HD 
BRANCH  14  17
HETATM   17  C   UNL     1      -9.395   7.481  67.706  1.00  0.00    -0.150 C  
BRANCH  17  18
HETATM   18  C   UNL     1     -10.509   6.652  67.060  1.00  0.00    -0.369 C  
BRANCH  18  19
HETATM   19  C   UNL     1     -10.032   5.244  66.701  1.00  0.00    -0.227 C  
BRANCH  19  20
HETATM   20  C   UNL     1     -10.492   4.859  65.294  1.00  0.00     0.077 C  
HETATM   21  C   UNL     1      -9.910   3.523  64.862  1.00  0.00    -0.134 C  
ENDBRANCH  19  20
ENDBRANCH  18  19
ENDBRANCH  17  18
ENDBRANCH  14  17
ENDBRANCH  13  14
ENDBRANCH   5  12
BRANCH   6  22
HETATM   22  C   UNL     1      -9.342  17.490  66.302  1.00  0.00    -0.231 C  
BRANCH  22  23
HETATM   23  C   UNL     1      -8.951  18.846  66.886  1.00  0.00    -0.306 C  
BRANCH  23  24
HETATM   24  C   UNL     1      -7.434  19.011  66.891  1.00  0.00    -0.230 C  
HETATM   25  C   UNL     1      -6.863  19.095  65.499  1.00  0.00    -0.245 C  
HETATM   26  O   UNL     1      -6.086  18.276  65.033  1.00  0.00    -0.218 OA 
HETATM   27  O   UNL     1      -7.258  20.190  64.813  1.00  0.00    -0.240 OA 
ENDBRANCH  23  24
ENDBRANCH  22  23
ENDBRANCH   6  22
TORSDOF 9
ENDMDL
MODEL      236
REMARK 921   NORMALIZED FREE ENERGY PREDICTED BY IDOCK:   -3.33 KCAL/MOL
REMARK 922        TOTAL FREE ENERGY PREDICTED BY IDOCK:   -6.23 KCAL/MOL
REMARK 923 INTER-LIGAND FREE ENERGY PREDICTED BY IDOCK:   -4.26 KCAL/MOL
REMARK 924 INTRA-LIGAND FREE ENERGY PREDICTED BY IDOCK:   -1.97 KCAL/MOL
REMARK 927      BINDING AFFINITY PREDICTED BY RF-SCORE:    0.00 PKD
ROOT
HETATM    1  C   UNL     1      -7.215   7.403  68.463  1.00  0.00    -0.087 C  
HETATM    2  C   UNL     1      -7.742   8.808  68.231  1.00  0.00    -0.100 C  
HETATM    3  C   UNL     1      -9.253   8.646  68.083  1.00  0.00    -0.137 C  
HETATM    4  O   UNL     1      -9.617   8.562  66.705  1.00  0.00    -0.174 OA 
HETATM    5  C   UNL     1      -9.628   7.324  68.786  1.00  0.00    -0.142 C  
HETATM    6  C   UNL     1      -7.158   4.379  66.676  1.00  0.00    -0.067 C  
HETATM    7  C   UNL     1      -8.296   6.692  69.254  1.00  0.00    -0.124 C  
HETATM    8  H   UNL     1     -10.557   8.461  66.613  1.00  0.00     0.000 HD 
HETATM    9  C   UNL     1      -8.116   5.245  68.838  1.00  0.00    -0.086 C  
HETATM   10  O   UNL     1      -7.058   6.692  67.232  1.00  0.00    -0.075 OA 
HETATM   11  C   UNL     1      -7.430   5.388  67.515  1.00  0.00    -0.084 C  
ENDROOT
BRANCH   5  12
HETATM   12  C   UNL     1     -10.533   7.545  69.979  1.00  0.00    -0.231 C  
HETATM   13  C   UNL     1     -11.168   6.550  70.621  1.00  0.00    -0.386 C  
BRANCH  13  14
HETATM   14  C   UNL     1     -11.958   6.727  71.887  1.00  0.00    -0.333 C  
HETATM   15  O   UNL     1     -11.940   5.489  72.586  1.00  0.00    -0.420 OA 
HETATM   16  H   UNL     1     -12.439   5.601  73.386  1.00  0.00     0.000 HD 
BRANCH  14  17
HETATM   17  C   UNL     1     -11.358   7.809  72.792  1.00  0.00    -0.446 C  
BRANCH  17  18
HETATM   18  C   UNL     1     -10.323   7.255  73.775  1.00  0.00    -0.360 C  
BRANCH  18  19
HETATM   19  C   UNL     1      -8.986   7.987  73.663  1.00  0.00    -0.313 C  
BRANCH  19  20
HETATM   20  C   UNL     1      -8.010   7.203  72.785  1.00  0.00    -0.116 C  
HETATM   21  C   UNL     1      -6.974   8.114  72.149  1.00  0.00    -0.090 C  
ENDBRANCH  19  20
ENDBRANCH  18  19
ENDBRANCH  17  18
ENDBRANCH  14  17
ENDBRANCH  13  14
ENDBRANCH   5  12
BRANCH   6  22
HETATM   22  C   UNL     1      -6.418   4.532  65.378  1.00  0.00    -0.040 C  
BRANCH  22  23
HETATM   23  C   UNL     1      -7.331   4.300  64.176  1.00  0.00    -0.062 C  
BRANCH  23  24
HETATM   24  C   UNL     1      -8.476   5.308  64.168  1.00  0.00    -0.108 C  
HETATM   25  C   UNL     1      -8.035   6.670  63.697  1.00  0.00    -0.070 C  
HETATM   26  O   UNL     1      -8.066   7.673  64.394  1.00  0.00    -0.138 OA 
HETATM   27  O   UNL     1      -7.634   6.697  62.407  1.00  0.00    -0.071 OA 
ENDBRANCH  23  24
ENDBRANCH  22  23
ENDBRANCH   6  22
TORSDOF 9
ENDMDL
MODEL      237
REMARK 921   NORMALIZED FREE ENERGY PREDICTED BY IDOCK:   -3.33 KCAL/MOL
REMARK 922        TOTAL FREE ENERGY PREDICTED BY IDOCK:   -6.23 KCAL/MOL
REMARK 923 INTER-LIGAND FREE ENERGY PREDICTED BY IDOCK:   -4.57 KCAL/MOL
REMARK 924 INTRA-LIGAND FREE ENERGY PREDICTED BY IDOCK:   -1.66 KCAL/MOL
REMARK 927      BINDING AFFINITY PREDICTED BY RF-SCORE:    0.00 PKD
ROOT
HETATM    1  C   UNL     1     -11.544   7.807  70.851  1.00  0.00    -0.274 C  
HETATM    2  C   UNL     1     -11.328   8.911  69.831  1.00  0.00     0.006 C  
HETATM    3  C   UNL     1     -10.229   8.388  68.909  1.00  0.00    -0.210 C  
HETATM    4  O   UNL     1      -8.952   8.876  69.322  1.00  0.00    -0.140 OA 
HETATM    5  C   UNL     1     -10.244   6.849  69.028  1.00  0.00    -0.189 C  
HETATM    6  C   UNL     1      -9.622   6.213  73.322  1.00  0.00    -0.148 C  
HETATM    7  C   UNL     1     -11.305   6.510  70.102  1.00  0.00    -0.463 C  
HETATM    8  H   UNL     1      -8.268   8.551  68.748  1.00  0.00     0.000 HD 
HETATM    9  C   UNL     1     -10.810   5.581  71.192  1.00  0.00    -0.243 C  
HETATM   10  O   UNL     1     -10.578   7.869  71.903  1.00  0.00    -0.214 OA 
HETATM   11  C   UNL     1     -10.285   6.549  72.206  1.00  0.00    -0.184 C  
ENDROOT
BRANCH   5  12
HETATM   12  C   UNL     1     -10.608   6.175  67.723  1.00  0.00    -0.338 C  
HETATM   13  C   UNL     1      -9.723   5.517  66.956  1.00  0.00    -0.158 C  
BRANCH  13  14
HETATM   14  C   UNL     1     -10.085   4.725  65.732  1.00  0.00    -0.214 C  
HETATM   15  O   UNL     1      -9.512   5.379  64.607  1.00  0.00    -0.340 OA 
HETATM   16  H   UNL     1      -9.741   4.878  63.834  1.00  0.00     0.000 HD 
BRANCH  14  17
HETATM   17  C   UNL     1      -9.544   3.292  65.793  1.00  0.00    -0.033 C  
BRANCH  17  18
HETATM   18  C   UNL     1      -9.198   2.848  67.217  1.00  0.00    -0.205 C  
BRANCH  18  19
HETATM   19  C   UNL     1      -7.696   2.622  67.392  1.00  0.00    -0.068 C  
BRANCH  19  20
HETATM   20  C   UNL     1      -7.179   3.349  68.633  1.00  0.00    -0.050 C  
HETATM   21  C   UNL     1      -7.893   2.884  69.891  1.00  0.00    -0.049 C  
ENDBRANCH  19  20
ENDBRANCH  18  19
ENDBRANCH  17  18
ENDBRANCH  14  17
ENDBRANCH  13  14
ENDBRANCH   5  12
BRANCH   6  22
HETATM   22  C   UNL     1      -9.152   7.193  74.358  1.00  0.00    -0.226 C  
BRANCH  22  23
HETATM   23  C   UNL     1      -7.640   7.117  74.564  1.00  0.00    -0.143 C  
BRANCH  23  24
HETATM   24  C   UNL     1      -6.912   7.163  73.224  1.00  0.00    -0.072 C  
HETATM   25  C   UNL     1      -6.742   8.570  72.713  1.00  0.00    -0.052 C  
HETATM   26  O   UNL     1      -7.243   8.983  71.679  1.00  0.00    -0.262 OA 
HETATM   27  O   UNL     1      -5.944   9.338  73.487  1.00  0.00    -0.304 OA 
ENDBRANCH  23  24
ENDBRANCH  22  23
ENDBRANCH   6  22
TORSDOF 9
ENDMDL
MODEL      238
REMARK 921   NORMALIZED FREE ENERGY PREDICTED BY IDOCK:   -3.33 KCAL/MOL
REMARK 922        TOTAL FREE ENERGY PREDICTED BY IDOCK:   -6.22 KCAL/MOL
REMARK 923 INTER-LIGAND FREE ENERGY PREDICTED BY IDOCK:   -6.33 KCAL/MOL
REMARK 924 INTRA-LIGAND FREE ENERGY PREDICTED BY IDOCK:    0.10 KCAL/MOL
REMARK 927      BINDING AFFINITY PREDICTED BY RF-SCORE:    0.00 PKD
ROOT
HETATM    1  C   UNL     1     -10.775  13.421  67.937  1.00  0.00    -0.247 C  
HETATM    2  C   UNL     1     -11.897  12.746  67.169  1.00  0.00    -0.415 C  
HETATM    3  C   UNL     1     -11.213  11.661  66.340  1.00  0.00    -0.287 C  
HETATM    4  O   UNL     1     -10.944  12.133  65.020  1.00  0.00    -0.292 OA 
HETATM    5  C   UNL     1      -9.878  11.340  67.044  1.00  0.00    -0.217 C  
HETATM    6  C   UNL     1      -7.879  15.242  67.137  1.00  0.00    -0.249 C  
HETATM    7  C   UNL     1      -9.770  12.324  68.233  1.00  0.00    -0.219 C  
HETATM    8  H   UNL     1     -10.519  11.458  64.504  1.00  0.00     0.000 HD 
HETATM    9  C   UNL     1      -8.458  13.081  68.295  1.00  0.00    -0.159 C  
HETATM   10  O   UNL     1     -10.106  14.399  67.137  1.00  0.00    -0.249 OA 
HETATM   11  C   UNL     1      -8.768  14.301  67.485  1.00  0.00    -0.199 C  
ENDROOT
BRANCH   5  12
HETATM   12  C   UNL     1      -9.826   9.916  67.556  1.00  0.00    -0.209 C  
HETATM   13  C   UNL     1     -10.153   8.848  66.810  1.00  0.00    -0.350 C  
BRANCH  13  14
HETATM   14  C   UNL     1      -9.977   7.422  67.249  1.00  0.00    -0.198 C  
HETATM   15  O   UNL     1     -10.442   6.585  66.198  1.00  0.00    -0.425 OA 
HETATM   16  H   UNL     1     -10.331   5.683  66.475  1.00  0.00     0.000 HD 
BRANCH  14  17
HETATM   17  C   UNL     1      -8.509   7.084  67.529  1.00  0.00    -0.122 C  
BRANCH  17  18
HETATM   18  C   UNL     1      -7.667   6.986  66.255  1.00  0.00    -0.094 C  
BRANCH  18  19
HETATM   19  C   UNL     1      -6.905   8.282  65.977  1.00  0.00    -0.064 C  
BRANCH  19  20
HETATM   20  C   UNL     1      -5.784   8.046  64.965  1.00  0.00    -0.044 C  
HETATM   21  C   UNL     1      -5.219   9.355  64.441  1.00  0.00    -0.058 C  
ENDBRANCH  19  20
ENDBRANCH  18  19
ENDBRANCH  17  18
ENDBRANCH  14  17
ENDBRANCH  13  14
ENDBRANCH   5  12
BRANCH   6  22
HETATM   22  C   UNL     1      -8.219  16.489  66.372  1.00  0.00    -0.364 C  
BRANCH  22  23
HETATM   23  C   UNL     1      -9.718  16.591  66.095  1.00  0.00    -0.344 C  
BRANCH  23  24
HETATM   24  C   UNL     1     -10.324  17.772  66.846  1.00  0.00    -0.344 C  
HETATM   25  C   UNL     1     -10.290  19.043  66.036  1.00  0.00    -0.446 C  
HETATM   26  O   UNL     1      -9.663  20.039  66.361  1.00  0.00    -0.400 OA 
HETATM   27  O   UNL     1     -11.056  19.000  64.924  1.00  0.00    -0.334 OA 
ENDBRANCH  23  24
ENDBRANCH  22  23
ENDBRANCH   6  22
TORSDOF 9
ENDMDL
MODEL      239
REMARK 921   NORMALIZED FREE ENERGY PREDICTED BY IDOCK:   -3.22 KCAL/MOL
REMARK 922        TOTAL FREE ENERGY PREDICTED BY IDOCK:   -6.07 KCAL/MOL
REMARK 923 INTER-LIGAND FREE ENERGY PREDICTED BY IDOCK:   -4.87 KCAL/MOL
REMARK 924 INTRA-LIGAND FREE ENERGY PREDICTED BY IDOCK:   -1.20 KCAL/MOL
REMARK 927      BINDING AFFINITY PREDICTED BY RF-SCORE:    0.00 PKD
ROOT
HETATM    1  C   UNL     1      -8.610   5.733  66.765  1.00  0.00    -0.112 C  
HETATM    2  C   UNL     1      -9.355   7.056  66.794  1.00  0.00    -0.191 C  
HETATM    3  C   UNL     1     -10.672   6.752  67.505  1.00  0.00    -0.311 C  
HETATM    4  O   UNL     1     -11.706   6.488  66.558  1.00  0.00    -0.426 OA 
HETATM    5  C   UNL     1     -10.434   5.489  68.359  1.00  0.00    -0.227 C  
HETATM    6  C   UNL     1      -9.132   2.547  65.380  1.00  0.00    -0.123 C  
HETATM    7  C   UNL     1      -8.991   5.025  68.051  1.00  0.00    -0.117 C  
HETATM    8  H   UNL     1     -12.525   6.300  67.000  1.00  0.00     0.000 HD 
HETATM    9  C   UNL     1      -8.878   3.562  67.672  1.00  0.00    -0.148 C  
HETATM   10  O   UNL     1      -9.049   4.908  65.684  1.00  0.00    -0.142 OA 
HETATM   11  C   UNL     1      -9.038   3.615  66.185  1.00  0.00    -0.154 C  
ENDROOT
BRANCH   5  12
HETATM   12  C   UNL     1     -10.575   5.763  69.842  1.00  0.00    -0.388 C  
HETATM   13  C   UNL     1     -11.632   6.389  70.384  1.00  0.00    -0.440 C  
BRANCH  13  14
HETATM   14  C   UNL     1     -11.858   6.548  71.861  1.00  0.00    -0.334 C  
HETATM   15  O   UNL     1     -11.211   5.466  72.517  1.00  0.00    -0.262 OA 
HETATM   16  H   UNL     1     -11.353   5.567  73.450  1.00  0.00     0.000 HD 
BRANCH  14  17
HETATM   17  C   UNL     1     -11.276   7.862  72.393  1.00  0.00    -0.409 C  
BRANCH  17  18
HETATM   18  C   UNL     1      -9.788   8.026  72.070  1.00  0.00    -0.273 C  
BRANCH  18  19
HETATM   19  C   UNL     1      -9.547   9.152  71.064  1.00  0.00    -0.350 C  
BRANCH  19  20
HETATM   20  C   UNL     1      -8.570   8.705  69.975  1.00  0.00    -0.132 C  
HETATM   21  C   UNL     1      -7.480   7.808  70.537  1.00  0.00    -0.074 C  
ENDBRANCH  19  20
ENDBRANCH  18  19
ENDBRANCH  17  18
ENDBRANCH  14  17
ENDBRANCH  13  14
ENDBRANCH   5  12
BRANCH   6  22
HETATM   22  C   UNL     1      -9.235   2.618  63.884  1.00  0.00    -0.109 C  
BRANCH  22  23
HETATM   23  C   UNL     1      -8.161   1.772  63.203  1.00  0.00    -0.057 C  
BRANCH  23  24
HETATM   24  C   UNL     1      -6.777   2.127  63.739  1.00  0.00    -0.030 C  
HETATM   25  C   UNL     1      -6.176   3.312  63.028  1.00  0.00    -0.014 C  
HETATM   26  O   UNL     1      -5.152   3.258  62.364  1.00  0.00    -0.004 OA 
HETATM   27  O   UNL     1      -6.852   4.465  63.224  1.00  0.00    -0.037 OA 
ENDBRANCH  23  24
ENDBRANCH  22  23
ENDBRANCH   6  22
TORSDOF 9
ENDMDL
MODEL      240
REMARK 921   NORMALIZED FREE ENERGY PREDICTED BY IDOCK:   -3.19 KCAL/MOL
REMARK 922        TOTAL FREE ENERGY PREDICTED BY IDOCK:   -6.01 KCAL/MOL
REMARK 923 INTER-LIGAND FREE ENERGY PREDICTED BY IDOCK:   -4.55 KCAL/MOL
REMARK 924 INTRA-LIGAND FREE ENERGY PREDICTED BY IDOCK:   -1.46 KCAL/MOL
REMARK 927      BINDING AFFINITY PREDICTED BY RF-SCORE:    0.00 PKD
ROOT
HETATM    1  C   UNL     1     -10.809   7.631  69.482  1.00  0.00    -0.165 C  
HETATM    2  C   UNL     1     -11.329   8.618  70.512  1.00  0.00    -0.241 C  
HETATM    3  C   UNL     1     -10.487   9.877  70.315  1.00  0.00    -0.291 C  
HETATM    4  O   UNL     1      -9.392   9.897  71.230  1.00  0.00    -0.177 OA 
HETATM    5  C   UNL     1      -9.940   9.824  68.874  1.00  0.00    -0.183 C  
HETATM    6  C   UNL     1      -7.760   6.020  68.814  1.00  0.00    -0.095 C  
HETATM    7  C   UNL     1     -10.406   8.471  68.285  1.00  0.00    -0.246 C  
HETATM    8  H   UNL     1      -8.868  10.680  71.108  1.00  0.00     0.000 HD 
HETATM    9  C   UNL     1      -9.295   7.650  67.660  1.00  0.00    -0.158 C  
HETATM   10  O   UNL     1      -9.631   6.964  69.943  1.00  0.00    -0.157 OA 
HETATM   11  C   UNL     1      -8.826   6.832  68.823  1.00  0.00    -0.131 C  
ENDROOT
BRANCH   5  12
HETATM   12  C   UNL     1     -10.463  10.958  68.018  1.00  0.00    -0.222 C  
HETATM   13  C   UNL     1     -10.344  12.254  68.351  1.00  0.00    -0.231 C  
BRANCH  13  14
HETATM   14  C   UNL     1     -10.730  13.398  67.457  1.00  0.00    -0.254 C  
HETATM   15  O   UNL     1     -10.984  12.869  66.162  1.00  0.00    -0.275 OA 
HETATM   16  H   UNL     1     -11.228  13.592  65.597  1.00  0.00     0.000 HD 
BRANCH  14  17
HETATM   17  C   UNL     1     -11.994  14.112  67.950  1.00  0.00    -0.378 C  
BRANCH  17  18
HETATM   18  C   UNL     1     -11.686  15.318  68.841  1.00  0.00    -0.362 C  
BRANCH  18  19
HETATM   19  C   UNL     1     -12.031  15.044  70.305  1.00  0.00    -0.362 C  
BRANCH  19  20
HETATM   20  C   UNL     1     -13.114  13.971  70.416  1.00  0.00    -0.002 C  
HETATM   21  C   UNL     1     -12.878  13.060  71.609  1.00  0.00    -0.376 C  
ENDBRANCH  19  20
ENDBRANCH  18  19
ENDBRANCH  17  18
ENDBRANCH  14  17
ENDBRANCH  13  14
ENDBRANCH   5  12
BRANCH   6  22
HETATM   22  C   UNL     1      -7.336   5.162  69.971  1.00  0.00    -0.060 C  
BRANCH  22  23
HETATM   23  C   UNL     1      -6.432   5.925  70.939  1.00  0.00    -0.040 C  
BRANCH  23  24
HETATM   24  C   UNL     1      -5.721   7.068  70.221  1.00  0.00    -0.024 C  
HETATM   25  C   UNL     1      -6.012   8.406  70.849  1.00  0.00    -0.033 C  
HETATM   26  O   UNL     1      -6.589   9.316  70.274  1.00  0.00    -0.048 OA 
HETATM   27  O   UNL     1      -5.537   8.532  72.108  1.00  0.00    -0.040 OA 
ENDBRANCH  23  24
ENDBRANCH  22  23
ENDBRANCH   6  22
TORSDOF 9
ENDMDL
MODEL      241
REMARK 921   NORMALIZED FREE ENERGY PREDICTED BY IDOCK:   -3.18 KCAL/MOL
REMARK 922        TOTAL FREE ENERGY PREDICTED BY IDOCK:   -5.99 KCAL/MOL
REMARK 923 INTER-LIGAND FREE ENERGY PREDICTED BY IDOCK:   -5.22 KCAL/MOL
REMARK 924 INTRA-LIGAND FREE ENERGY PREDICTED BY IDOCK:   -0.78 KCAL/MOL
REMARK 927      BINDING AFFINITY PREDICTED BY RF-SCORE:    0.00 PKD
ROOT
HETATM    1  C   UNL     1     -10.236   9.054  67.334  1.00  0.00    -0.245 C  
HETATM    2  C   UNL     1     -10.975   9.693  68.496  1.00  0.00    -0.153 C  
HETATM    3  C   UNL     1      -9.967  10.650  69.128  1.00  0.00    -0.211 C  
HETATM    4  O   UNL     1      -9.305  10.028  70.229  1.00  0.00    -0.377 OA 
HETATM    5  C   UNL     1      -8.928  10.984  68.037  1.00  0.00    -0.145 C  
HETATM    6  C   UNL     1      -7.394   7.028  66.929  1.00  0.00    -0.078 C  
HETATM    7  C   UNL     1      -9.307  10.130  66.805  1.00  0.00    -0.190 C  
HETATM    8  H   UNL     1      -8.678  10.624  70.623  1.00  0.00     0.000 HD 
HETATM    9  C   UNL     1      -8.158   9.325  66.231  1.00  0.00    -0.107 C  
HETATM   10  O   UNL     1      -9.416   7.966  67.768  1.00  0.00    -0.142 OA 
HETATM   11  C   UNL     1      -8.271   8.040  66.991  1.00  0.00    -0.116 C  
ENDROOT
BRANCH   5  12
HETATM   12  C   UNL     1      -8.939  12.451  67.662  1.00  0.00    -0.183 C  
HETATM   13  C   UNL     1      -9.850  13.326  68.120  1.00  0.00    -0.231 C  
BRANCH  13  14
HETATM   14  C   UNL     1      -9.800  14.807  67.873  1.00  0.00    -0.212 C  
HETATM   15  O   UNL     1      -9.476  15.440  69.104  1.00  0.00    -0.211 OA 
HETATM   16  H   UNL     1      -9.444  16.377  68.948  1.00  0.00     0.000 HD 
BRANCH  14  17
HETATM   17  C   UNL     1      -8.737  15.182  66.835  1.00  0.00    -0.289 C  
BRANCH  17  18
HETATM   18  C   UNL     1      -9.070  16.472  66.082  1.00  0.00    -0.342 C  
BRANCH  18  19
HETATM   19  C   UNL     1      -8.206  17.643  66.552  1.00  0.00    -0.307 C  
BRANCH  19  20
HETATM   20  C   UNL     1      -9.029  18.929  66.625  1.00  0.00    -0.329 C  
HETATM   21  C   UNL     1     -10.517  18.635  66.727  1.00  0.00    -0.454 C  
ENDBRANCH  19  20
ENDBRANCH  18  19
ENDBRANCH  17  18
ENDBRANCH  14  17
ENDBRANCH  13  14
ENDBRANCH   5  12
BRANCH   6  22
HETATM   22  C   UNL     1      -7.553   5.723  67.655  1.00  0.00    -0.089 C  
BRANCH  22  23
HETATM   23  C   UNL     1      -8.484   4.771  66.907  1.00  0.00    -0.105 C  
BRANCH  23  24
HETATM   24  C   UNL     1      -9.171   3.817  67.880  1.00  0.00    -0.218 C  
HETATM   25  C   UNL     1      -9.578   4.502  69.160  1.00  0.00    -0.180 C  
HETATM   26  O   UNL     1      -9.131   4.209  70.259  1.00  0.00    -0.086 OA 
HETATM   27  O   UNL     1     -10.522   5.453  68.993  1.00  0.00    -0.218 OA 
ENDBRANCH  23  24
ENDBRANCH  22  23
ENDBRANCH   6  22
TORSDOF 9
ENDMDL
MODEL      242
REMARK 921   NORMALIZED FREE ENERGY PREDICTED BY IDOCK:   -3.16 KCAL/MOL
REMARK 922        TOTAL FREE ENERGY PREDICTED BY IDOCK:   -5.97 KCAL/MOL
REMARK 923 INTER-LIGAND FREE ENERGY PREDICTED BY IDOCK:   -4.77 KCAL/MOL
REMARK 924 INTRA-LIGAND FREE ENERGY PREDICTED BY IDOCK:   -1.20 KCAL/MOL
REMARK 927      BINDING AFFINITY PREDICTED BY RF-SCORE:    0.00 PKD
ROOT
HETATM    1  C   UNL     1      -8.637   5.738  66.765  1.00  0.00    -0.112 C  
HETATM    2  C   UNL     1      -9.259   7.056  67.189  1.00  0.00    -0.153 C  
HETATM    3  C   UNL     1     -10.557   6.672  67.896  1.00  0.00    -0.247 C  
HETATM    4  O   UNL     1     -11.660   6.739  66.994  1.00  0.00    -0.681 OA 
HETATM    5  C   UNL     1     -10.386   5.216  68.378  1.00  0.00    -0.140 C  
HETATM    6  C   UNL     1      -9.513   3.071  64.654  1.00  0.00    -0.150 C  
HETATM    7  C   UNL     1      -9.008   4.747  67.852  1.00  0.00    -0.124 C  
HETATM    8  H   UNL     1     -12.468   6.500  67.434  1.00  0.00     0.000 HD 
HETATM    9  C   UNL     1      -9.045   3.430  67.103  1.00  0.00    -0.196 C  
HETATM   10  O   UNL     1      -9.205   5.257  65.545  1.00  0.00    -0.159 OA 
HETATM   11  C   UNL     1      -9.281   3.882  65.696  1.00  0.00    -0.152 C  
ENDROOT
BRANCH   5  12
HETATM   12  C   UNL     1     -10.420   5.101  69.887  1.00  0.00    -0.296 C  
HETATM   13  C   UNL     1      -9.447   4.518  70.608  1.00  0.00    -0.240 C  
BRANCH  13  14
HETATM   14  C   UNL     1      -9.392   4.515  72.110  1.00  0.00    -0.133 C  
HETATM   15  O   UNL     1      -8.142   3.960  72.496  1.00  0.00    -0.082 OA 
HETATM   16  H   UNL     1      -8.107   3.958  73.445  1.00  0.00     0.000 HD 
BRANCH  14  17
HETATM   17  C   UNL     1      -9.500   5.929  72.692  1.00  0.00    -0.152 C  
BRANCH  17  18
HETATM   18  C   UNL     1     -10.948   6.364  72.930  1.00  0.00    -0.281 C  
BRANCH  18  19
HETATM   19  C   UNL     1     -11.122   7.874  72.762  1.00  0.00    -0.462 C  
BRANCH  19  20
HETATM   20  C   UNL     1     -11.932   8.190  71.504  1.00  0.00    -0.334 C  
HETATM   21  C   UNL     1     -13.009   7.148  71.258  1.00  0.00    -0.378 C  
ENDBRANCH  19  20
ENDBRANCH  18  19
ENDBRANCH  17  18
ENDBRANCH  14  17
ENDBRANCH  13  14
ENDBRANCH   5  12
BRANCH   6  22
HETATM   22  C   UNL     1      -9.691   3.538  63.238  1.00  0.00    -0.129 C  
BRANCH  22  23
HETATM   23  C   UNL     1      -8.546   3.070  62.341  1.00  0.00    -0.074 C  
BRANCH  23  24
HETATM   24  C   UNL     1      -7.791   1.916  62.992  1.00  0.00    -0.056 C  
HETATM   25  C   UNL     1      -6.320   2.207  63.141  1.00  0.00    -0.014 C  
HETATM   26  O   UNL     1      -5.440   1.567  62.585  1.00  0.00    -0.003 OA 
HETATM   27  O   UNL     1      -6.049   3.226  63.987  1.00  0.00    -0.017 OA 
ENDBRANCH  23  24
ENDBRANCH  22  23
ENDBRANCH   6  22
TORSDOF 9
ENDMDL
MODEL      243
REMARK 921   NORMALIZED FREE ENERGY PREDICTED BY IDOCK:   -3.14 KCAL/MOL
REMARK 922        TOTAL FREE ENERGY PREDICTED BY IDOCK:   -5.95 KCAL/MOL
REMARK 923 INTER-LIGAND FREE ENERGY PREDICTED BY IDOCK:   -4.78 KCAL/MOL
REMARK 924 INTRA-LIGAND FREE ENERGY PREDICTED BY IDOCK:   -1.17 KCAL/MOL
REMARK 927      BINDING AFFINITY PREDICTED BY RF-SCORE:    0.00 PKD
ROOT
HETATM    1  C   UNL     1      -8.612   5.724  66.570  1.00  0.00    -0.121 C  
HETATM    2  C   UNL     1      -9.399   7.020  66.490  1.00  0.00    -0.201 C  
HETATM    3  C   UNL     1     -10.624   6.794  67.374  1.00  0.00    -0.302 C  
HETATM    4  O   UNL     1     -11.739   6.372  66.589  1.00  0.00    -0.549 OA 
HETATM    5  C   UNL     1     -10.253   5.675  68.369  1.00  0.00    -0.247 C  
HETATM    6  C   UNL     1      -9.155   2.359  65.719  1.00  0.00    -0.088 C  
HETATM    7  C   UNL     1      -8.833   5.203  67.978  1.00  0.00    -0.106 C  
HETATM    8  H   UNL     1     -12.501   6.232  67.139  1.00  0.00     0.000 HD 
HETATM    9  C   UNL     1      -8.705   3.703  67.802  1.00  0.00    -0.126 C  
HETATM   10  O   UNL     1      -9.129   4.739  65.671  1.00  0.00    -0.135 OA 
HETATM   11  C   UNL     1      -9.018   3.535  66.348  1.00  0.00    -0.145 C  
ENDROOT
BRANCH   5  12
HETATM   12  C   UNL     1     -10.251   6.159  69.804  1.00  0.00    -0.249 C  
HETATM   13  C   UNL     1     -11.313   6.063  70.620  1.00  0.00    -0.301 C  
BRANCH  13  14
HETATM   14  C   UNL     1     -11.292   6.408  72.083  1.00  0.00    -0.290 C  
HETATM   15  O   UNL     1     -12.439   7.201  72.357  1.00  0.00    -0.502 OA 
HETATM   16  H   UNL     1     -12.426   7.419  73.282  1.00  0.00     0.000 HD 
BRANCH  14  17
HETATM   17  C   UNL     1     -11.339   5.158  72.968  1.00  0.00    -0.381 C  
BRANCH  17  18
HETATM   18  C   UNL     1     -10.033   4.359  72.938  1.00  0.00    -0.201 C  
BRANCH  18  19
HETATM   19  C   UNL     1     -10.265   2.910  72.506  1.00  0.00    -0.222 C  
BRANCH  19  20
HETATM   20  C   UNL     1      -9.301   2.518  71.386  1.00  0.00    -0.202 C  
HETATM   21  C   UNL     1      -8.069   3.408  71.371  1.00  0.00    -0.061 C  
ENDBRANCH  19  20
ENDBRANCH  18  19
ENDBRANCH  17  18
ENDBRANCH  14  17
ENDBRANCH  13  14
ENDBRANCH   5  12
BRANCH   6  22
HETATM   22  C   UNL     1      -9.413   2.208  64.248  1.00  0.00    -0.135 C  
BRANCH  22  23
HETATM   23  C   UNL     1      -8.132   1.887  63.479  1.00  0.00    -0.061 C  
BRANCH  23  24
HETATM   24  C   UNL     1      -6.992   2.794  63.932  1.00  0.00    -0.041 C  
HETATM   25  C   UNL     1      -6.837   4.003  63.045  1.00  0.00    -0.035 C  
HETATM   26  O   UNL     1      -5.841   4.233  62.377  1.00  0.00    -0.012 OA 
HETATM   27  O   UNL     1      -7.893   4.846  63.084  1.00  0.00    -0.064 OA 
ENDBRANCH  23  24
ENDBRANCH  22  23
ENDBRANCH   6  22
TORSDOF 9
ENDMDL
MODEL      244
REMARK 921   NORMALIZED FREE ENERGY PREDICTED BY IDOCK:   -3.14 KCAL/MOL
REMARK 922        TOTAL FREE ENERGY PREDICTED BY IDOCK:   -5.94 KCAL/MOL
REMARK 923 INTER-LIGAND FREE ENERGY PREDICTED BY IDOCK:   -5.14 KCAL/MOL
REMARK 924 INTRA-LIGAND FREE ENERGY PREDICTED BY IDOCK:   -0.80 KCAL/MOL
REMARK 927      BINDING AFFINITY PREDICTED BY RF-SCORE:    0.00 PKD
ROOT
HETATM    1  C   UNL     1     -10.348  13.540  68.867  1.00  0.00    -0.094 C  
HETATM    2  C   UNL     1     -11.730  13.438  68.247  1.00  0.00    -0.391 C  
HETATM    3  C   UNL     1     -11.482  13.304  66.747  1.00  0.00    -0.350 C  
HETATM    4  O   UNL     1     -11.573  14.576  66.106  1.00  0.00    -0.362 OA 
HETATM    5  C   UNL     1     -10.049  12.756  66.581  1.00  0.00    -0.248 C  
HETATM    6  C   UNL     1      -7.627  15.754  68.673  1.00  0.00    -0.150 C  
HETATM    7  C   UNL     1      -9.453  12.670  68.006  1.00  0.00    -0.209 C  
HETATM    8  H   UNL     1     -11.419  14.493  65.172  1.00  0.00     0.000 HD 
HETATM    9  C   UNL     1      -8.099  13.335  68.154  1.00  0.00    -0.159 C  
HETATM   10  O   UNL     1      -9.836  14.873  68.793  1.00  0.00    -0.213 OA 
HETATM   11  C   UNL     1      -8.481  14.729  68.541  1.00  0.00    -0.159 C  
ENDROOT
BRANCH   5  12
HETATM   12  C   UNL     1     -10.027  11.386  65.937  1.00  0.00    -0.274 C  
HETATM   13  C   UNL     1     -10.172  11.185  64.617  1.00  0.00    -0.376 C  
BRANCH  13  14
HETATM   14  C   UNL     1     -10.016   9.852  63.940  1.00  0.00     0.504 C  
HETATM   15  O   UNL     1      -9.972  10.081  62.538  1.00  0.00    -0.601 OA 
HETATM   16  H   UNL     1      -9.874   9.239  62.110  1.00  0.00     0.000 HD 
BRANCH  14  17
HETATM   17  C   UNL     1      -8.725   9.142  64.361  1.00  0.00    -0.184 C  
BRANCH  17  18
HETATM   18  C   UNL     1      -7.746   8.950  63.199  1.00  0.00    -0.119 C  
BRANCH  18  19
HETATM   19  C   UNL     1      -7.369   7.481  63.012  1.00  0.00    -0.096 C  
BRANCH  19  20
HETATM   20  C   UNL     1      -6.461   7.005  64.146  1.00  0.00    -0.039 C  
HETATM   21  C   UNL     1      -5.128   7.736  64.139  1.00  0.00    -0.029 C  
ENDBRANCH  19  20
ENDBRANCH  18  19
ENDBRANCH  17  18
ENDBRANCH  14  17
ENDBRANCH  13  14
ENDBRANCH   5  12
BRANCH   6  22
HETATM   22  C   UNL     1      -8.020  17.133  69.118  1.00  0.00    -0.041 C  
BRANCH  22  23
HETATM   23  C   UNL     1      -8.148  18.094  67.936  1.00  0.00    -0.251 C  
BRANCH  23  24
HETATM   24  C   UNL     1      -8.851  19.379  68.363  1.00  0.00    -0.397 C  
HETATM   25  C   UNL     1      -9.697  19.961  67.259  1.00  0.00    -0.387 C  
HETATM   26  O   UNL     1      -9.493  21.052  66.750  1.00  0.00    -0.081 OA 
HETATM   27  O   UNL     1     -10.741  19.180  66.903  1.00  0.00    -0.436 OA 
ENDBRANCH  23  24
ENDBRANCH  22  23
ENDBRANCH   6  22
TORSDOF 9
ENDMDL
MODEL      245
REMARK 921   NORMALIZED FREE ENERGY PREDICTED BY IDOCK:   -3.07 KCAL/MOL
REMARK 922        TOTAL FREE ENERGY PREDICTED BY IDOCK:   -5.84 KCAL/MOL
REMARK 923 INTER-LIGAND FREE ENERGY PREDICTED BY IDOCK:   -4.78 KCAL/MOL
REMARK 924 INTRA-LIGAND FREE ENERGY PREDICTED BY IDOCK:   -1.06 KCAL/MOL
REMARK 927      BINDING AFFINITY PREDICTED BY RF-SCORE:    0.00 PKD
ROOT
HETATM    1  C   UNL     1      -8.584   3.505  67.850  1.00  0.00    -0.099 C  
HETATM    2  C   UNL     1      -7.492   3.264  68.877  1.00  0.00    -0.049 C  
HETATM    3  C   UNL     1      -7.167   4.646  69.440  1.00  0.00    -0.052 C  
HETATM    4  O   UNL     1      -6.045   5.212  68.763  1.00  0.00    -0.027 OA 
HETATM    5  C   UNL     1      -8.407   5.530  69.191  1.00  0.00    -0.098 C  
HETATM    6  C   UNL     1      -8.900   5.289  64.841  1.00  0.00    -0.090 C  
HETATM    7  C   UNL     1      -9.406   4.657  68.395  1.00  0.00    -0.186 C  
HETATM    8  H   UNL     1      -5.842   6.072  69.113  1.00  0.00     0.000 HD 
HETATM    9  C   UNL     1      -9.937   5.313  67.136  1.00  0.00    -0.211 C  
HETATM   10  O   UNL     1      -8.042   3.930  66.598  1.00  0.00    -0.096 OA 
HETATM   11  C   UNL     1      -8.939   4.869  66.113  1.00  0.00    -0.125 C  
ENDROOT
BRANCH   5  12
HETATM   12  C   UNL     1      -9.051   5.993  70.481  1.00  0.00    -0.157 C  
HETATM   13  C   UNL     1      -8.790   7.179  71.055  1.00  0.00    -0.145 C  
BRANCH  13  14
HETATM   14  C   UNL     1      -9.516   7.717  72.255  1.00  0.00    -0.170 C  
HETATM   15  O   UNL     1      -8.635   8.602  72.934  1.00  0.00    -0.398 OA 
HETATM   16  H   UNL     1      -9.094   8.943  73.692  1.00  0.00     0.000 HD 
BRANCH  14  17
HETATM   17  C   UNL     1     -10.780   8.492  71.862  1.00  0.00    -0.394 C  
BRANCH  17  18
HETATM   18  C   UNL     1     -10.613   9.280  70.561  1.00  0.00    -0.309 C  
BRANCH  18  19
HETATM   19  C   UNL     1     -11.484  10.537  70.543  1.00  0.00    -0.433 C  
BRANCH  19  20
HETATM   20  C   UNL     1     -12.727  10.347  71.412  1.00  0.00    -0.551 C  
HETATM   21  C   UNL     1     -13.240  11.672  71.951  1.00  0.00    -0.475 C  
ENDBRANCH  19  20
ENDBRANCH  18  19
ENDBRANCH  17  18
ENDBRANCH  14  17
ENDBRANCH  13  14
ENDBRANCH   5  12
BRANCH   6  22
HETATM   22  C   UNL     1      -7.927   4.790  63.812  1.00  0.00    -0.095 C  
BRANCH  22  23
HETATM   23  C   UNL     1      -8.625   3.988  62.715  1.00  0.00    -0.091 C  
BRANCH  23  24
HETATM   24  C   UNL     1      -8.521   2.492  62.995  1.00  0.00    -0.081 C  
HETATM   25  C   UNL     1      -9.667   1.986  63.832  1.00  0.00    -0.134 C  
HETATM   26  O   UNL     1      -9.534   1.508  64.948  1.00  0.00    -0.114 OA 
HETATM   27  O   UNL     1     -10.869   2.070  63.219  1.00  0.00    -0.196 OA 
ENDBRANCH  23  24
ENDBRANCH  22  23
ENDBRANCH   6  22
TORSDOF 9
ENDMDL
MODEL      246
REMARK 921   NORMALIZED FREE ENERGY PREDICTED BY IDOCK:   -3.06 KCAL/MOL
REMARK 922        TOTAL FREE ENERGY PREDICTED BY IDOCK:   -5.82 KCAL/MOL
REMARK 923 INTER-LIGAND FREE ENERGY PREDICTED BY IDOCK:   -5.16 KCAL/MOL
REMARK 924 INTRA-LIGAND FREE ENERGY PREDICTED BY IDOCK:   -0.66 KCAL/MOL
REMARK 927      BINDING AFFINITY PREDICTED BY RF-SCORE:    0.00 PKD
ROOT
HETATM    1  C   UNL     1     -10.823   7.620  69.483  1.00  0.00    -0.165 C  
HETATM    2  C   UNL     1     -11.264   8.508  70.632  1.00  0.00    -0.278 C  
HETATM    3  C   UNL     1     -10.445   9.788  70.481  1.00  0.00    -0.301 C  
HETATM    4  O   UNL     1      -9.282   9.740  71.307  1.00  0.00    -0.274 OA 
HETATM    5  C   UNL     1     -10.012   9.865  69.002  1.00  0.00    -0.193 C  
HETATM    6  C   UNL     1      -7.830   6.103  68.443  1.00  0.00    -0.104 C  
HETATM    7  C   UNL     1     -10.518   8.564  68.336  1.00  0.00    -0.215 C  
HETATM    8  H   UNL     1      -8.772  10.536  71.213  1.00  0.00     0.000 HD 
HETATM    9  C   UNL     1      -9.456   7.811  67.558  1.00  0.00    -0.170 C  
HETATM   10  O   UNL     1      -9.611   6.927  69.792  1.00  0.00    -0.155 OA 
HETATM   11  C   UNL     1      -8.895   6.901  68.605  1.00  0.00    -0.124 C  
ENDROOT
BRANCH   5  12
HETATM   12  C   UNL     1     -10.604  11.064  68.291  1.00  0.00    -0.220 C  
HETATM   13  C   UNL     1     -10.408  12.332  68.688  1.00  0.00    -0.204 C  
BRANCH  13  14
HETATM   14  C   UNL     1     -10.868  13.540  67.922  1.00  0.00    -0.247 C  
HETATM   15  O   UNL     1     -11.391  13.092  66.679  1.00  0.00    -0.299 OA 
HETATM   16  H   UNL     1     -11.682  13.856  66.195  1.00  0.00     0.000 HD 
BRANCH  14  17
HETATM   17  C   UNL     1     -11.967  14.308  68.666  1.00  0.00    -0.348 C  
BRANCH  17  18
HETATM   18  C   UNL     1     -11.410  15.276  69.713  1.00  0.00    -0.306 C  
BRANCH  18  19
HETATM   19  C   UNL     1     -11.672  14.784  71.137  1.00  0.00    -0.360 C  
BRANCH  19  20
HETATM   20  C   UNL     1     -12.946  13.940  71.194  1.00  0.00    -0.388 C  
HETATM   21  C   UNL     1     -14.192  14.803  71.080  1.00  0.00    -0.298 C  
ENDBRANCH  19  20
ENDBRANCH  18  19
ENDBRANCH  17  18
ENDBRANCH  14  17
ENDBRANCH  13  14
ENDBRANCH   5  12
BRANCH   6  22
HETATM   22  C   UNL     1      -7.315   5.153  69.485  1.00  0.00    -0.057 C  
BRANCH  22  23
HETATM   23  C   UNL     1      -7.452   3.698  69.041  1.00  0.00    -0.053 C  
BRANCH  23  24
HETATM   24  C   UNL     1      -8.707   3.510  68.195  1.00  0.00    -0.133 C  
HETATM   25  C   UNL     1      -8.405   2.901  66.851  1.00  0.00    -0.093 C  
HETATM   26  O   UNL     1      -8.602   3.468  65.787  1.00  0.00    -0.109 OA 
HETATM   27  O   UNL     1      -7.928   1.639  66.920  1.00  0.00    -0.065 OA 
ENDBRANCH  23  24
ENDBRANCH  22  23
ENDBRANCH   6  22
TORSDOF 9
ENDMDL
MODEL      247
REMARK 921   NORMALIZED FREE ENERGY PREDICTED BY IDOCK:   -3.06 KCAL/MOL
REMARK 922        TOTAL FREE ENERGY PREDICTED BY IDOCK:   -5.82 KCAL/MOL
REMARK 923 INTER-LIGAND FREE ENERGY PREDICTED BY IDOCK:   -5.12 KCAL/MOL
REMARK 924 INTRA-LIGAND FREE ENERGY PREDICTED BY IDOCK:   -0.70 KCAL/MOL
REMARK 927      BINDING AFFINITY PREDICTED BY RF-SCORE:    0.00 PKD
ROOT
HETATM    1  C   UNL     1     -10.599  10.044  66.687  1.00  0.00    -0.125 C  
HETATM    2  C   UNL     1     -10.894  10.570  68.080  1.00  0.00    -0.300 C  
HETATM    3  C   UNL     1      -9.593  11.223  68.541  1.00  0.00    -0.198 C  
HETATM    4  O   UNL     1      -8.825  10.314  69.328  1.00  0.00    -0.164 OA 
HETATM    5  C   UNL     1      -8.801  11.581  67.266  1.00  0.00    -0.160 C  
HETATM    6  C   UNL     1      -8.403   7.702  65.262  1.00  0.00    -0.121 C  
HETATM    7  C   UNL     1      -9.627  11.037  66.077  1.00  0.00    -0.249 C  
HETATM    8  H   UNL     1      -8.016  10.721  69.615  1.00  0.00     0.000 HD 
HETATM    9  C   UNL     1      -8.835  10.179  65.111  1.00  0.00    -0.207 C  
HETATM   10  O   UNL     1      -9.934   8.780  66.733  1.00  0.00    -0.218 OA 
HETATM   11  C   UNL     1      -9.018   8.812  65.693  1.00  0.00    -0.200 C  
ENDROOT
BRANCH   5  12
HETATM   12  C   UNL     1      -8.607  13.075  67.109  1.00  0.00    -0.195 C  
HETATM   13  C   UNL     1      -9.104  13.981  67.968  1.00  0.00    -0.190 C  
BRANCH  13  14
HETATM   14  C   UNL     1      -8.810  15.453  67.911  1.00  0.00    -0.168 C  
HETATM   15  O   UNL     1      -7.890  15.670  66.849  1.00  0.00    -0.221 OA 
HETATM   16  H   UNL     1      -7.705  16.601  66.813  1.00  0.00     0.000 HD 
BRANCH  14  17
HETATM   17  C   UNL     1     -10.072  16.281  67.641  1.00  0.00    -0.260 C  
BRANCH  17  18
HETATM   18  C   UNL     1      -9.944  17.731  68.116  1.00  0.00    -0.342 C  
BRANCH  18  19
HETATM   19  C   UNL     1     -10.916  18.656  67.383  1.00  0.00    -0.239 C  
BRANCH  19  20
HETATM   20  C   UNL     1     -10.197  19.906  66.875  1.00  0.00    -0.600 C  
HETATM   21  C   UNL     1      -8.846  19.566  66.268  1.00  0.00    -0.391 C  
ENDBRANCH  19  20
ENDBRANCH  18  19
ENDBRANCH  17  18
ENDBRANCH  14  17
ENDBRANCH  13  14
ENDBRANCH   5  12
BRANCH   6  22
HETATM   22  C   UNL     1      -8.641   6.328  65.820  1.00  0.00    -0.153 C  
BRANCH  22  23
HETATM   23  C   UNL     1      -7.498   5.374  65.480  1.00  0.00    -0.077 C  
BRANCH  23  24
HETATM   24  C   UNL     1      -7.542   4.142  66.379  1.00  0.00    -0.089 C  
HETATM   25  C   UNL     1      -8.616   3.169  65.964  1.00  0.00    -0.119 C  
HETATM   26  O   UNL     1      -9.570   2.870  66.666  1.00  0.00    -0.041 OA 
HETATM   27  O   UNL     1      -8.410   2.617  64.748  1.00  0.00    -0.086 OA 
ENDBRANCH  23  24
ENDBRANCH  22  23
ENDBRANCH   6  22
TORSDOF 9
ENDMDL
MODEL      248
REMARK 921   NORMALIZED FREE ENERGY PREDICTED BY IDOCK:   -3.05 KCAL/MOL
REMARK 922        TOTAL FREE ENERGY PREDICTED BY IDOCK:   -5.81 KCAL/MOL
REMARK 923 INTER-LIGAND FREE ENERGY PREDICTED BY IDOCK:   -4.18 KCAL/MOL
REMARK 924 INTRA-LIGAND FREE ENERGY PREDICTED BY IDOCK:   -1.63 KCAL/MOL
REMARK 927      BINDING AFFINITY PREDICTED BY RF-SCORE:    0.00 PKD
ROOT
HETATM    1  C   UNL     1     -10.870   7.961  66.896  1.00  0.00     0.020 C  
HETATM    2  C   UNL     1     -10.541   6.528  67.274  1.00  0.00    -0.383 C  
HETATM    3  C   UNL     1      -9.604   6.640  68.474  1.00  0.00    -0.125 C  
HETATM    4  O   UNL     1      -8.241   6.568  68.055  1.00  0.00    -0.115 OA 
HETATM    5  C   UNL     1      -9.864   8.021  69.113  1.00  0.00    -0.178 C  
HETATM    6  C   UNL     1      -9.083  10.777  65.793  1.00  0.00    -0.208 C  
HETATM    7  C   UNL     1     -10.896   8.729  68.204  1.00  0.00    -0.038 C  
HETATM    8  H   UNL     1      -7.658   6.638  68.802  1.00  0.00     0.000 HD 
HETATM    9  C   UNL     1     -10.492  10.126  67.778  1.00  0.00    -0.277 C  
HETATM   10  O   UNL     1      -9.842   8.540  66.088  1.00  0.00    -0.244 OA 
HETATM   11  C   UNL     1      -9.751   9.858  66.505  1.00  0.00    -0.204 C  
ENDROOT
BRANCH   5  12
HETATM   12  C   UNL     1     -10.417   7.909  70.518  1.00  0.00    -0.214 C  
HETATM   13  C   UNL     1     -10.948   6.781  71.018  1.00  0.00    -0.297 C  
BRANCH  13  14
HETATM   14  C   UNL     1     -11.374   6.607  72.448  1.00  0.00    -0.272 C  
HETATM   15  O   UNL     1     -11.273   5.225  72.765  1.00  0.00    -0.270 OA 
HETATM   16  H   UNL     1     -11.542   5.114  73.669  1.00  0.00     0.000 HD 
BRANCH  14  17
HETATM   17  C   UNL     1     -10.483   7.396  73.414  1.00  0.00    -0.419 C  
BRANCH  17  18
HETATM   18  C   UNL     1      -9.220   6.631  73.817  1.00  0.00    -0.176 C  
BRANCH  18  19
HETATM   19  C   UNL     1      -7.962   7.255  73.211  1.00  0.00    -0.125 C  
BRANCH  19  20
HETATM   20  C   UNL     1      -7.446   6.412  72.045  1.00  0.00    -0.093 C  
HETATM   21  C   UNL     1      -6.268   7.078  71.353  1.00  0.00    -0.037 C  
ENDBRANCH  19  20
ENDBRANCH  18  19
ENDBRANCH  17  18
ENDBRANCH  14  17
ENDBRANCH  13  14
ENDBRANCH   5  12
BRANCH   6  22
HETATM   22  C   UNL     1      -8.394  10.503  64.488  1.00  0.00    -0.108 C  
BRANCH  22  23
HETATM   23  C   UNL     1      -7.000   9.914  64.698  1.00  0.00    -0.133 C  
BRANCH  23  24
HETATM   24  C   UNL     1      -6.328  10.543  65.914  1.00  0.00    -0.128 C  
HETATM   25  C   UNL     1      -6.073   9.540  67.010  1.00  0.00    -0.063 C  
HETATM   26  O   UNL     1      -6.584   9.599  68.117  1.00  0.00    -0.060 OA 
HETATM   27  O   UNL     1      -5.187   8.578  66.672  1.00  0.00    -0.030 OA 
ENDBRANCH  23  24
ENDBRANCH  22  23
ENDBRANCH   6  22
TORSDOF 9
ENDMDL
MODEL      249
REMARK 921   NORMALIZED FREE ENERGY PREDICTED BY IDOCK:   -2.96 KCAL/MOL
REMARK 922        TOTAL FREE ENERGY PREDICTED BY IDOCK:   -5.67 KCAL/MOL
REMARK 923 INTER-LIGAND FREE ENERGY PREDICTED BY IDOCK:   -4.85 KCAL/MOL
REMARK 924 INTRA-LIGAND FREE ENERGY PREDICTED BY IDOCK:   -0.82 KCAL/MOL
REMARK 927      BINDING AFFINITY PREDICTED BY RF-SCORE:    0.00 PKD
ROOT
HETATM    1  C   UNL     1     -11.133   7.254  69.723  1.00  0.00    -0.182 C  
HETATM    2  C   UNL     1     -11.524   7.488  71.171  1.00  0.00    -0.295 C  
HETATM    3  C   UNL     1     -11.015   8.890  71.497  1.00  0.00    -0.328 C  
HETATM    4  O   UNL     1      -9.735   8.828  72.124  1.00  0.00    -0.307 OA 
HETATM    5  C   UNL     1     -10.884   9.638  70.153  1.00  0.00    -0.325 C  
HETATM    6  C   UNL     1      -8.141   7.072  67.891  1.00  0.00    -0.115 C  
HETATM    7  C   UNL     1     -11.236   8.610  69.052  1.00  0.00     0.340 C  
HETATM    8  H   UNL     1      -9.418   9.700  72.327  1.00  0.00     0.000 HD 
HETATM    9  C   UNL     1     -10.207   8.512  67.943  1.00  0.00    -0.273 C  
HETATM   10  O   UNL     1      -9.773   6.830  69.609  1.00  0.00    -0.155 OA 
HETATM   11  C   UNL     1      -9.295   7.445  68.463  1.00  0.00    -0.141 C  
ENDROOT
BRANCH   5  12
HETATM   12  C   UNL     1     -11.822  10.823  70.060  1.00  0.00    -0.424 C  
HETATM   13  C   UNL     1     -12.040  11.677  71.074  1.00  0.00    -0.212 C  
BRANCH  13  14
HETATM   14  C   UNL     1     -12.855  12.934  70.964  1.00  0.00    -0.184 C  
HETATM   15  O   UNL     1     -13.390  13.218  72.249  1.00  0.00    -0.495 OA 
HETATM   16  H   UNL     1     -13.905  14.013  72.179  1.00  0.00     0.000 HD 
BRANCH  14  17
HETATM   17  C   UNL     1     -12.008  14.129  70.511  1.00  0.00    -0.393 C  
BRANCH  17  18
HETATM   18  C   UNL     1     -12.401  14.645  69.124  1.00  0.00    -0.130 C  
BRANCH  18  19
HETATM   19  C   UNL     1     -11.436  14.157  68.043  1.00  0.00    -0.342 C  
BRANCH  19  20
HETATM   20  C   UNL     1     -10.095  13.751  68.656  1.00  0.00    -0.195 C  
HETATM   21  C   UNL     1      -9.259  14.965  69.024  1.00  0.00    -0.176 C  
ENDBRANCH  19  20
ENDBRANCH  18  19
ENDBRANCH  17  18
ENDBRANCH  14  17
ENDBRANCH  13  14
ENDBRANCH   5  12
BRANCH   6  22
HETATM   22  C   UNL     1      -7.266   5.960  68.394  1.00  0.00    -0.083 C  
BRANCH  22  23
HETATM   23  C   UNL     1      -7.378   4.712  67.519  1.00  0.00    -0.074 C  
BRANCH  23  24
HETATM   24  C   UNL     1      -8.839   4.415  67.192  1.00  0.00    -0.119 C  
HETATM   25  C   UNL     1      -9.070   4.247  65.713  1.00  0.00    -0.135 C  
HETATM   26  O   UNL     1      -9.784   4.983  65.048  1.00  0.00    -0.015 OA 
HETATM   27  O   UNL     1      -8.444   3.173  65.182  1.00  0.00    -0.094 OA 
ENDBRANCH  23  24
ENDBRANCH  22  23
ENDBRANCH   6  22
TORSDOF 9
ENDMDL
MODEL      250
REMARK 921   NORMALIZED FREE ENERGY PREDICTED BY IDOCK:   -2.87 KCAL/MOL
REMARK 922        TOTAL FREE ENERGY PREDICTED BY IDOCK:   -5.52 KCAL/MOL
REMARK 923 INTER-LIGAND FREE ENERGY PREDICTED BY IDOCK:   -4.97 KCAL/MOL
REMARK 924 INTRA-LIGAND FREE ENERGY PREDICTED BY IDOCK:   -0.55 KCAL/MOL
REMARK 927      BINDING AFFINITY PREDICTED BY RF-SCORE:    0.00 PKD
ROOT
HETATM    1  C   UNL     1      -7.028   6.978  65.947  1.00  0.00    -0.064 C  
HETATM    2  C   UNL     1      -6.786   8.083  64.934  1.00  0.00    -0.058 C  
HETATM    3  C   UNL     1      -8.165   8.683  64.668  1.00  0.00    -0.165 C  
HETATM    4  O   UNL     1      -8.750   8.101  63.503  1.00  0.00    -0.392 OA 
HETATM    5  C   UNL     1      -9.040   8.349  65.894  1.00  0.00    -0.225 C  
HETATM    6  C   UNL     1      -8.842   3.971  66.049  1.00  0.00    -0.120 C  
HETATM    7  C   UNL     1      -8.166   7.470  66.820  1.00  0.00    -0.124 C  
HETATM    8  H   UNL     1      -9.607   8.474  63.337  1.00  0.00     0.000 HD 
HETATM    9  C   UNL     1      -8.831   6.180  67.259  1.00  0.00    -0.107 C  
HETATM   10  O   UNL     1      -7.472   5.775  65.314  1.00  0.00    -0.073 OA 
HETATM   11  C   UNL     1      -8.408   5.233  66.180  1.00  0.00    -0.115 C  
ENDROOT
BRANCH   5  12
HETATM   12  C   UNL     1      -9.482   9.590  66.640  1.00  0.00    -0.222 C  
HETATM   13  C   UNL     1     -10.056  10.648  66.044  1.00  0.00    -0.308 C  
BRANCH  13  14
HETATM   14  C   UNL     1     -10.627  11.828  66.779  1.00  0.00    -0.238 C  
HETATM   15  O   UNL     1     -11.931  11.473  67.220  1.00  0.00    -0.605 OA 
HETATM   16  H   UNL     1     -12.292  12.218  67.685  1.00  0.00     0.000 HD 
BRANCH  14  17
HETATM   17  C   UNL     1      -9.783  12.208  68.001  1.00  0.00    -0.203 C  
BRANCH  17  18
HETATM   18  C   UNL     1      -8.830  13.373  67.726  1.00  0.00    -0.199 C  
BRANCH  18  19
HETATM   19  C   UNL     1      -9.588  14.670  67.439  1.00  0.00    -0.215 C  
BRANCH  19  20
HETATM   20  C   UNL     1      -8.962  15.415  66.260  1.00  0.00    -0.341 C  
HETATM   21  C   UNL     1      -9.271  16.902  66.310  1.00  0.00    -0.299 C  
ENDBRANCH  19  20
ENDBRANCH  18  19
ENDBRANCH  17  18
ENDBRANCH  14  17
ENDBRANCH  13  14
ENDBRANCH   5  12
BRANCH   6  22
HETATM   22  C   UNL     1      -8.364   3.016  64.994  1.00  0.00    -0.095 C  
BRANCH  22  23
HETATM   23  C   UNL     1      -8.446   3.629  63.597  1.00  0.00    -0.091 C  
BRANCH  23  24
HETATM   24  C   UNL     1      -9.202   2.704  62.648  1.00  0.00    -0.087 C  
HETATM   25  C   UNL     1     -10.695   2.890  62.738  1.00  0.00    -0.187 C  
HETATM   26  O   UNL     1     -11.467   2.018  63.106  1.00  0.00    -0.340 OA 
HETATM   27  O   UNL     1     -11.118   4.107  62.333  1.00  0.00    -0.096 OA 
ENDBRANCH  23  24
ENDBRANCH  22  23
ENDBRANCH   6  22
TORSDOF 9
ENDMDL
MODEL      251
REMARK 921   NORMALIZED FREE ENERGY PREDICTED BY IDOCK:   -2.86 KCAL/MOL
REMARK 922        TOTAL FREE ENERGY PREDICTED BY IDOCK:   -5.51 KCAL/MOL
REMARK 923 INTER-LIGAND FREE ENERGY PREDICTED BY IDOCK:   -3.84 KCAL/MOL
REMARK 924 INTRA-LIGAND FREE ENERGY PREDICTED BY IDOCK:   -1.67 KCAL/MOL
REMARK 927      BINDING AFFINITY PREDICTED BY RF-SCORE:    0.00 PKD
ROOT
HETATM    1  C   UNL     1      -8.590   4.199  67.363  1.00  0.00    -0.100 C  
HETATM    2  C   UNL     1      -7.704   3.972  68.575  1.00  0.00    -0.065 C  
HETATM    3  C   UNL     1      -7.461   5.365  69.153  1.00  0.00    -0.077 C  
HETATM    4  O   UNL     1      -6.227   5.899  68.675  1.00  0.00    -0.026 OA 
HETATM    5  C   UNL     1      -8.621   6.257  68.663  1.00  0.00    -0.121 C  
HETATM    6  C   UNL     1      -8.329   5.904  64.303  1.00  0.00    -0.032 C  
HETATM    7  C   UNL     1      -9.476   5.376  67.723  1.00  0.00    -0.132 C  
HETATM    8  H   UNL     1      -6.075   6.765  69.035  1.00  0.00     0.000 HD 
HETATM    9  C   UNL     1      -9.761   6.004  66.373  1.00  0.00    -0.158 C  
HETATM   10  O   UNL     1      -7.824   4.583  66.218  1.00  0.00    -0.097 OA 
HETATM   11  C   UNL     1      -8.603   5.520  65.557  1.00  0.00    -0.150 C  
ENDROOT
BRANCH   5  12
HETATM   12  C   UNL     1      -9.478   6.764  69.804  1.00  0.00    -0.144 C  
HETATM   13  C   UNL     1     -10.820   6.699  69.808  1.00  0.00    -0.337 C  
BRANCH  13  14
HETATM   14  C   UNL     1     -11.683   7.067  70.983  1.00  0.00    -0.333 C  
HETATM   15  O   UNL     1     -13.031   7.102  70.535  1.00  0.00    -0.581 OA 
HETATM   16  H   UNL     1     -13.576   7.334  71.277  1.00  0.00     0.000 HD 
BRANCH  14  17
HETATM   17  C   UNL     1     -11.571   6.044  72.119  1.00  0.00    -0.348 C  
BRANCH  17  18
HETATM   18  C   UNL     1     -10.598   6.479  73.217  1.00  0.00    -0.301 C  
BRANCH  18  19
HETATM   19  C   UNL     1      -9.330   5.625  73.222  1.00  0.00    -0.135 C  
BRANCH  19  20
HETATM   20  C   UNL     1      -9.579   4.279  72.540  1.00  0.00    -0.187 C  
HETATM   21  C   UNL     1      -8.277   3.601  72.148  1.00  0.00    -0.072 C  
ENDBRANCH  19  20
ENDBRANCH  18  19
ENDBRANCH  17  18
ENDBRANCH  14  17
ENDBRANCH  13  14
ENDBRANCH   5  12
BRANCH   6  22
HETATM   22  C   UNL     1      -7.196   5.365  63.478  1.00  0.00    -0.049 C  
BRANCH  22  23
HETATM   23  C   UNL     1      -7.672   4.308  62.484  1.00  0.00    -0.064 C  
BRANCH  23  24
HETATM   24  C   UNL     1      -7.414   2.906  63.026  1.00  0.00    -0.054 C  
HETATM   25  C   UNL     1      -8.681   2.224  63.474  1.00  0.00    -0.085 C  
HETATM   26  O   UNL     1      -8.900   1.887  64.628  1.00  0.00    -0.098 OA 
HETATM   27  O   UNL     1      -9.551   1.976  62.471  1.00  0.00    -0.089 OA 
ENDBRANCH  23  24
ENDBRANCH  22  23
ENDBRANCH   6  22
TORSDOF 9
ENDMDL
MODEL      252
REMARK 921   NORMALIZED FREE ENERGY PREDICTED BY IDOCK:   -2.47 KCAL/MOL
REMARK 922        TOTAL FREE ENERGY PREDICTED BY IDOCK:   -4.92 KCAL/MOL
REMARK 923 INTER-LIGAND FREE ENERGY PREDICTED BY IDOCK:   -4.56 KCAL/MOL
REMARK 924 INTRA-LIGAND FREE ENERGY PREDICTED BY IDOCK:   -0.36 KCAL/MOL
REMARK 927      BINDING AFFINITY PREDICTED BY RF-SCORE:    0.00 PKD
ROOT
HETATM    1  C   UNL     1      -7.497  15.298  68.774  1.00  0.00    -0.135 C  
HETATM    2  C   UNL     1      -6.192  15.365  69.548  1.00  0.00    -0.141 C  
HETATM    3  C   UNL     1      -6.019  13.973  70.153  1.00  0.00    -0.151 C  
HETATM    4  O   UNL     1      -6.510  13.943  71.492  1.00  0.00    -0.444 OA 
HETATM    5  C   UNL     1      -6.852  13.006  69.286  1.00  0.00    -0.019 C  
HETATM    6  C   UNL     1     -10.879  14.723  69.531  1.00  0.00    -0.268 C  
HETATM    7  C   UNL     1      -7.576  13.881  68.237  1.00  0.00    -0.130 C  
HETATM    8  H   UNL     1      -6.402  13.077  71.869  1.00  0.00     0.000 HD 
HETATM    9  C   UNL     1      -9.070  13.640  68.152  1.00  0.00    -0.195 C  
HETATM   10  O   UNL     1      -8.625  15.486  69.631  1.00  0.00    -0.246 OA 
HETATM   11  C   UNL     1      -9.598  14.627  69.146  1.00  0.00    -0.087 C  
ENDROOT
BRANCH   5  12
HETATM   12  C   UNL     1      -5.991  11.977  68.583  1.00  0.00    -0.054 C  
HETATM   13  C   UNL     1      -6.481  10.854  68.031  1.00  0.00    -0.058 C  
BRANCH  13  14
HETATM   14  C   UNL     1      -5.671   9.891  67.211  1.00  0.00    -0.046 C  
HETATM   15  O   UNL     1      -5.132   8.916  68.095  1.00  0.00    -0.033 OA 
HETATM   16  H   UNL     1      -4.620   8.307  67.576  1.00  0.00     0.000 HD 
BRANCH  14  17
HETATM   17  C   UNL     1      -6.523   9.176  66.156  1.00  0.00    -0.065 C  
BRANCH  17  18
HETATM   18  C   UNL     1      -7.702   8.412  66.763  1.00  0.00    -0.091 C  
BRANCH  18  19
HETATM   19  C   UNL     1      -9.032   8.824  66.129  1.00  0.00    -0.225 C  
BRANCH  19  20
HETATM   20  C   UNL     1      -8.806   9.445  64.751  1.00  0.00    -0.243 C  
HETATM   21  C   UNL     1      -9.332  10.869  64.687  1.00  0.00    -0.256 C  
ENDBRANCH  19  20
ENDBRANCH  18  19
ENDBRANCH  17  18
ENDBRANCH  14  17
ENDBRANCH  13  14
ENDBRANCH   5  12
BRANCH   6  22
HETATM   22  C   UNL     1     -11.402  15.757  70.486  1.00  0.00    -0.400 C  
BRANCH  22  23
HETATM   23  C   UNL     1     -12.919  15.901  70.388  1.00  0.00     0.269 C  
BRANCH  23  24
HETATM   24  C   UNL     1     -13.574  15.628  71.739  1.00  0.00    -0.510 C  
HETATM   25  C   UNL     1     -12.564  15.287  72.804  1.00  0.00    -0.391 C  
HETATM   26  O   UNL     1     -12.519  14.210  73.379  1.00  0.00    -0.243 OA 
HETATM   27  O   UNL     1     -11.725  16.303  73.105  1.00  0.00    -0.393 OA 
ENDBRANCH  23  24
ENDBRANCH  22  23
ENDBRANCH   6  22
TORSDOF 9
ENDMDL
MODEL      253
REMARK 921   NORMALIZED FREE ENERGY PREDICTED BY IDOCK:   -2.08 KCAL/MOL
REMARK 922        TOTAL FREE ENERGY PREDICTED BY IDOCK:   -4.32 KCAL/MOL
REMARK 923 INTER-LIGAND FREE ENERGY PREDICTED BY IDOCK:   -3.34 KCAL/MOL
REMARK 924 INTRA-LIGAND FREE ENERGY PREDICTED BY IDOCK:   -0.98 KCAL/MOL
REMARK 927      BINDING AFFINITY PREDICTED BY RF-SCORE:    0.00 PKD
ROOT
HETATM    1  C   UNL     1      -7.462   6.898  68.440  1.00  0.00    -0.098 C  
HETATM    2  C   UNL     1      -6.373   6.505  69.423  1.00  0.00    -0.035 C  
HETATM    3  C   UNL     1      -7.061   6.479  70.786  1.00  0.00    -0.069 C  
HETATM    4  O   UNL     1      -6.871   7.717  71.470  1.00  0.00    -0.048 OA 
HETATM    5  C   UNL     1      -8.567   6.275  70.519  1.00  0.00    -0.139 C  
HETATM    6  C   UNL     1      -9.551   9.676  67.932  1.00  0.00    -0.159 C  
HETATM    7  C   UNL     1      -8.737   6.281  68.981  1.00  0.00    -0.125 C  
HETATM    8  H   UNL     1      -7.298   7.700  72.318  1.00  0.00     0.000 HD 
HETATM    9  C   UNL     1      -9.807   7.230  68.479  1.00  0.00    -0.159 C  
HETATM   10  O   UNL     1      -7.658   8.314  68.413  1.00  0.00    -0.097 OA 
HETATM   11  C   UNL     1      -9.025   8.489  68.265  1.00  0.00    -0.139 C  
ENDROOT
BRANCH   5  12
HETATM   12  C   UNL     1      -9.080   4.967  71.082  1.00  0.00    -0.180 C  
HETATM   13  C   UNL     1      -9.256   4.743  72.395  1.00  0.00    -0.149 C  
BRANCH  13  14
HETATM   14  C   UNL     1      -9.892   3.507  72.967  1.00  0.00    -0.136 C  
HETATM   15  O   UNL     1     -10.205   2.641  71.884  1.00  0.00    -0.135 OA 
HETATM   16  H   UNL     1     -10.606   1.860  72.246  1.00  0.00     0.000 HD 
BRANCH  14  17
HETATM   17  C   UNL     1      -8.952   2.770  73.927  1.00  0.00    -0.077 C  
BRANCH  17  18
HETATM   18  C   UNL     1      -7.479   2.894  73.529  1.00  0.00    -0.051 C  
BRANCH  18  19
HETATM   19  C   UNL     1      -6.740   3.913  74.399  1.00  0.00    -0.049 C  
BRANCH  19  20
HETATM   20  C   UNL     1      -5.541   4.496  73.650  1.00  0.00    -0.009 C  
HETATM   21  C   UNL     1      -5.161   5.866  74.187  1.00  0.00    -0.028 C  
ENDBRANCH  19  20
ENDBRANCH  18  19
ENDBRANCH  17  18
ENDBRANCH  14  17
ENDBRANCH  13  14
ENDBRANCH   5  12
BRANCH   6  22
HETATM   22  C   UNL     1      -8.747  10.916  67.665  1.00  0.00    -0.127 C  
BRANCH  22  23
HETATM   23  C   UNL     1      -9.500  11.896  66.767  1.00  0.00    -0.207 C  
BRANCH  23  24
HETATM   24  C   UNL     1     -10.998  11.608  66.796  1.00  0.00    -0.341 C  
HETATM   25  C   UNL     1     -11.765  12.653  67.565  1.00  0.00    -0.368 C  
HETATM   26  O   UNL     1     -12.396  12.420  68.584  1.00  0.00    -0.063 OA 
HETATM   27  O   UNL     1     -11.730  13.880  67.000  1.00  0.00    -0.353 OA 
ENDBRANCH  23  24
ENDBRANCH  22  23
ENDBRANCH   6  22
TORSDOF 9
ENDMDL
MODEL      254
REMARK 921   NORMALIZED FREE ENERGY PREDICTED BY IDOCK:   -2.04 KCAL/MOL
REMARK 922        TOTAL FREE ENERGY PREDICTED BY IDOCK:   -4.27 KCAL/MOL
REMARK 923 INTER-LIGAND FREE ENERGY PREDICTED BY IDOCK:   -3.43 KCAL/MOL
REMARK 924 INTRA-LIGAND FREE ENERGY PREDICTED BY IDOCK:   -0.83 KCAL/MOL
REMARK 927      BINDING AFFINITY PREDICTED BY RF-SCORE:    0.00 PKD
ROOT
HETATM    1  C   UNL     1      -6.819  14.892  67.845  1.00  0.00    -0.157 C  
HETATM    2  C   UNL     1      -5.417  14.886  68.428  1.00  0.00    -0.110 C  
HETATM    3  C   UNL     1      -5.411  13.737  69.434  1.00  0.00    -0.084 C  
HETATM    4  O   UNL     1      -5.676  14.221  70.751  1.00  0.00    -0.153 OA 
HETATM    5  C   UNL     1      -6.540  12.773  69.013  1.00  0.00    -0.099 C  
HETATM    6  C   UNL     1     -10.081  15.359  69.064  1.00  0.00    -0.234 C  
HETATM    7  C   UNL     1      -7.248  13.437  67.809  1.00  0.00    -0.156 C  
HETATM    8  H   UNL     1      -5.672  13.506  71.377  1.00  0.00     0.000 HD 
HETATM    9  C   UNL     1      -8.754  13.530  67.949  1.00  0.00    -0.183 C  
HETATM   10  O   UNL     1      -7.738  15.581  68.696  1.00  0.00    -0.130 OA 
HETATM   11  C   UNL     1      -8.920  14.862  68.612  1.00  0.00    -0.184 C  
ENDROOT
BRANCH   5  12
HETATM   12  C   UNL     1      -6.013  11.413  68.606  1.00  0.00    -0.042 C  
HETATM   13  C   UNL     1      -5.794  10.413  69.476  1.00  0.00    -0.039 C  
BRANCH  13  14
HETATM   14  C   UNL     1      -5.404   9.016  69.080  1.00  0.00    -0.036 C  
HETATM   15  O   UNL     1      -5.333   8.235  70.265  1.00  0.00    -0.023 OA 
HETATM   16  H   UNL     1      -5.087   7.352  70.015  1.00  0.00     0.000 HD 
BRANCH  14  17
HETATM   17  C   UNL     1      -6.430   8.380  68.136  1.00  0.00    -0.056 C  
BRANCH  17  18
HETATM   18  C   UNL     1      -7.732   7.995  68.844  1.00  0.00    -0.104 C  
BRANCH  18  19
HETATM   19  C   UNL     1      -7.988   6.489  68.781  1.00  0.00    -0.111 C  
BRANCH  19  20
HETATM   20  C   UNL     1      -8.383   6.064  67.367  1.00  0.00    -0.105 C  
HETATM   21  C   UNL     1      -9.152   4.753  67.371  1.00  0.00    -0.126 C  
ENDBRANCH  19  20
ENDBRANCH  18  19
ENDBRANCH  17  18
ENDBRANCH  14  17
ENDBRANCH  13  14
ENDBRANCH   5  12
BRANCH   6  22
HETATM   22  C   UNL     1     -10.239  16.722  69.675  1.00  0.00    -0.093 C  
BRANCH  22  23
HETATM   23  C   UNL     1     -10.585  17.776  68.625  1.00  0.00    -0.200 C  
BRANCH  23  24
HETATM   24  C   UNL     1      -9.406  18.716  68.399  1.00  0.00    -0.369 C  
HETATM   25  C   UNL     1      -9.751  19.853  67.471  1.00  0.00    -0.392 C  
HETATM   26  O   UNL     1      -9.218  20.031  66.387  1.00  0.00    -0.365 OA 
HETATM   27  O   UNL     1     -10.684  20.695  67.966  1.00  0.00     0.120 OA 
ENDBRANCH  23  24
ENDBRANCH  22  23
ENDBRANCH   6  22
TORSDOF 9
ENDMDL
MODEL      255
REMARK 921   NORMALIZED FREE ENERGY PREDICTED BY IDOCK:   -1.99 KCAL/MOL
REMARK 922        TOTAL FREE ENERGY PREDICTED BY IDOCK:   -4.18 KCAL/MOL
REMARK 923 INTER-LIGAND FREE ENERGY PREDICTED BY IDOCK:   -4.44 KCAL/MOL
REMARK 924 INTRA-LIGAND FREE ENERGY PREDICTED BY IDOCK:    0.25 KCAL/MOL
REMARK 927      BINDING AFFINITY PREDICTED BY RF-SCORE:    0.00 PKD
ROOT
HETATM    1  C   UNL     1      -6.938   9.380  68.313  1.00  0.00    -0.071 C  
HETATM    2  C   UNL     1      -5.890   9.638  67.244  1.00  0.00    -0.051 C  
HETATM    3  C   UNL     1      -6.454   9.002  65.976  1.00  0.00    -0.064 C  
HETATM    4  O   UNL     1      -5.934   7.685  65.800  1.00  0.00    -0.037 OA 
HETATM    5  C   UNL     1      -7.984   8.921  66.162  1.00  0.00    -0.106 C  
HETATM    6  C   UNL     1      -8.379   6.563  69.838  1.00  0.00    -0.131 C  
HETATM    7  C   UNL     1      -8.272   9.434  67.593  1.00  0.00    -0.114 C  
HETATM    8  H   UNL     1      -6.285   7.289  65.010  1.00  0.00     0.000 HD 
HETATM    9  C   UNL     1      -9.136   8.505  68.423  1.00  0.00    -0.139 C  
HETATM   10  O   UNL     1      -6.810   8.069  68.866  1.00  0.00    -0.058 OA 
HETATM   11  C   UNL     1      -8.110   7.637  69.082  1.00  0.00    -0.125 C  
ENDROOT
BRANCH   5  12
HETATM   12  C   UNL     1      -8.732   9.772  65.157  1.00  0.00    -0.192 C  
HETATM   13  C   UNL     1      -8.228  10.123  63.962  1.00  0.00    -0.164 C  
BRANCH  13  14
HETATM   14  C   UNL     1      -9.001  10.846  62.896  1.00  0.00    -0.281 C  
HETATM   15  O   UNL     1     -10.060   9.997  62.477  1.00  0.00    -0.588 OA 
HETATM   16  H   UNL     1     -10.549  10.455  61.803  1.00  0.00     0.000 HD 
BRANCH  14  17
HETATM   17  C   UNL     1      -9.601  12.159  63.413  1.00  0.00     0.047 C  
BRANCH  17  18
HETATM   18  C   UNL     1     -10.044  12.075  64.876  1.00  0.00    -0.289 C  
BRANCH  18  19
HETATM   19  C   UNL     1     -11.564  11.965  65.003  1.00  0.00    -0.277 C  
BRANCH  19  20
HETATM   20  C   UNL     1     -12.082  12.877  66.115  1.00  0.00    -0.458 C  
HETATM   21  C   UNL     1     -12.780  14.104  65.552  1.00  0.00    -0.468 C  
ENDBRANCH  19  20
ENDBRANCH  18  19
ENDBRANCH  17  18
ENDBRANCH  14  17
ENDBRANCH  13  14
ENDBRANCH   5  12
BRANCH   6  22
HETATM   22  C   UNL     1      -7.340   5.737  70.539  1.00  0.00    -0.084 C  
BRANCH  22  23
HETATM   23  C   UNL     1      -6.410   6.601  71.390  1.00  0.00    -0.042 C  
BRANCH  23  24
HETATM   24  C   UNL     1      -7.105   7.030  72.678  1.00  0.00    -0.069 C  
HETATM   25  C   UNL     1      -7.167   8.529  72.823  1.00  0.00    -0.009 C  
HETATM   26  O   UNL     1      -6.618   9.148  73.721  1.00  0.00    -0.332 OA 
HETATM   27  O   UNL     1      -7.927   9.136  71.884  1.00  0.00    -0.334 OA 
ENDBRANCH  23  24
ENDBRANCH  22  23
ENDBRANCH   6  22
TORSDOF 9
ENDMDL
MODEL      256
REMARK 921   NORMALIZED FREE ENERGY PREDICTED BY IDOCK:   -1.77 KCAL/MOL
REMARK 922        TOTAL FREE ENERGY PREDICTED BY IDOCK:   -3.85 KCAL/MOL
REMARK 923 INTER-LIGAND FREE ENERGY PREDICTED BY IDOCK:   -3.92 KCAL/MOL
REMARK 924 INTRA-LIGAND FREE ENERGY PREDICTED BY IDOCK:    0.07 KCAL/MOL
REMARK 927      BINDING AFFINITY PREDICTED BY RF-SCORE:    0.00 PKD
ROOT
HETATM    1  C   UNL     1      -6.083  14.656  68.670  1.00  0.00    -0.087 C  
HETATM    2  C   UNL     1      -5.125  14.416  69.824  1.00  0.00    -0.091 C  
HETATM    3  C   UNL     1      -5.803  13.352  70.686  1.00  0.00    -0.159 C  
HETATM    4  O   UNL     1      -6.529  13.958  71.755  1.00  0.00    -0.353 OA 
HETATM    5  C   UNL     1      -6.789  12.599  69.768  1.00  0.00     0.261 C  
HETATM    6  C   UNL     1      -9.376  15.819  68.294  1.00  0.00    -0.193 C  
HETATM    7  C   UNL     1      -6.731  13.312  68.396  1.00  0.00    -0.096 C  
HETATM    8  H   UNL     1      -6.950  13.297  72.291  1.00  0.00     0.000 HD 
HETATM    9  C   UNL     1      -8.086  13.703  67.842  1.00  0.00    -0.164 C  
HETATM   10  O   UNL     1      -7.128  15.560  69.035  1.00  0.00    -0.126 OA 
HETATM   11  C   UNL     1      -8.263  15.080  68.401  1.00  0.00    -0.151 C  
ENDROOT
BRANCH   5  12
HETATM   12  C   UNL     1      -6.419  11.141  69.599  1.00  0.00    -0.128 C  
HETATM   13  C   UNL     1      -6.125  10.327  70.627  1.00  0.00    -0.103 C  
BRANCH  13  14
HETATM   14  C   UNL     1      -5.892   8.849  70.497  1.00  0.00    -0.032 C  
HETATM   15  O   UNL     1      -6.675   8.198  71.489  1.00  0.00    -0.049 OA 
HETATM   16  H   UNL     1      -6.527   7.264  71.407  1.00  0.00     0.000 HD 
BRANCH  14  17
HETATM   17  C   UNL     1      -6.309   8.320  69.121  1.00  0.00    -0.039 C  
BRANCH  17  18
HETATM   18  C   UNL     1      -7.644   7.572  69.151  1.00  0.00    -0.100 C  
BRANCH  18  19
HETATM   19  C   UNL     1      -8.825   8.509  68.900  1.00  0.00    -0.139 C  
BRANCH  19  20
HETATM   20  C   UNL     1      -9.235   8.483  67.427  1.00  0.00    -0.163 C  
HETATM   21  C   UNL     1     -10.301   9.524  67.125  1.00  0.00    -0.320 C  
ENDBRANCH  19  20
ENDBRANCH  18  19
ENDBRANCH  17  18
ENDBRANCH  14  17
ENDBRANCH  13  14
ENDBRANCH   5  12
BRANCH   6  22
HETATM   22  C   UNL     1      -9.516  17.221  68.812  1.00  0.00    -0.256 C  
BRANCH  22  23
HETATM   23  C   UNL     1      -8.759  18.223  67.942  1.00  0.00    -0.274 C  
BRANCH  23  24
HETATM   24  C   UNL     1      -7.799  17.501  67.002  1.00  0.00    -0.240 C  
HETATM   25  C   UNL     1      -6.891  18.454  66.269  1.00  0.00    -0.233 C  
HETATM   26  O   UNL     1      -6.890  18.594  65.055  1.00  0.00    -0.511 OA 
HETATM   27  O   UNL     1      -6.037  19.122  67.075  1.00  0.00    -0.174 OA 
ENDBRANCH  23  24
ENDBRANCH  22  23
ENDBRANCH   6  22
TORSDOF 9
ENDMDL
MODEL      257
REMARK 921   NORMALIZED FREE ENERGY PREDICTED BY IDOCK:   -1.65 KCAL/MOL
REMARK 922        TOTAL FREE ENERGY PREDICTED BY IDOCK:   -3.66 KCAL/MOL
REMARK 923 INTER-LIGAND FREE ENERGY PREDICTED BY IDOCK:   -3.13 KCAL/MOL
REMARK 924 INTRA-LIGAND FREE ENERGY PREDICTED BY IDOCK:   -0.54 KCAL/MOL
REMARK 927      BINDING AFFINITY PREDICTED BY RF-SCORE:    0.00 PKD
ROOT
HETATM    1  C   UNL     1      -6.127  14.670  68.709  1.00  0.00    -0.084 C  
HETATM    2  C   UNL     1      -5.138  14.623  69.860  1.00  0.00    -0.092 C  
HETATM    3  C   UNL     1      -5.694  13.570  70.816  1.00  0.00    -0.189 C  
HETATM    4  O   UNL     1      -6.466  14.186  71.847  1.00  0.00    -0.251 OA 
HETATM    5  C   UNL     1      -6.608  12.650  69.981  1.00  0.00     0.219 C  
HETATM    6  C   UNL     1      -9.525  15.462  68.304  1.00  0.00    -0.200 C  
HETATM    7  C   UNL     1      -6.638  13.250  68.555  1.00  0.00    -0.089 C  
HETATM    8  H   UNL     1      -6.812  13.531  72.442  1.00  0.00     0.000 HD 
HETATM    9  C   UNL     1      -8.032  13.456  67.998  1.00  0.00    -0.148 C  
HETATM   10  O   UNL     1      -7.254  15.492  69.020  1.00  0.00    -0.132 OA 
HETATM   11  C   UNL     1      -8.342  14.850  68.448  1.00  0.00    -0.153 C  
ENDROOT
BRANCH   5  12
HETATM   12  C   UNL     1      -6.094  11.227  69.923  1.00  0.00    -0.130 C  
HETATM   13  C   UNL     1      -5.695  10.538  71.005  1.00  0.00    -0.041 C  
BRANCH  13  14
HETATM   14  C   UNL     1      -5.313   9.085  70.991  1.00  0.00    -0.031 C  
HETATM   15  O   UNL     1      -6.005   8.446  72.056  1.00  0.00    -0.045 OA 
HETATM   16  H   UNL     1      -5.763   7.527  72.047  1.00  0.00     0.000 HD 
BRANCH  14  17
HETATM   17  C   UNL     1      -5.701   8.402  69.676  1.00  0.00    -0.030 C  
BRANCH  17  18
HETATM   18  C   UNL     1      -5.425   6.896  69.684  1.00  0.00    -0.015 C  
BRANCH  18  19
HETATM   19  C   UNL     1      -6.712   6.083  69.830  1.00  0.00    -0.052 C  
BRANCH  19  20
HETATM   20  C   UNL     1      -6.431   4.589  69.673  1.00  0.00    -0.032 C  
HETATM   21  C   UNL     1      -5.277   4.142  70.555  1.00  0.00    -0.004 C  
ENDBRANCH  19  20
ENDBRANCH  18  19
ENDBRANCH  17  18
ENDBRANCH  14  17
ENDBRANCH  13  14
ENDBRANCH   5  12
BRANCH   6  22
HETATM   22  C   UNL     1      -9.802  16.881  68.710  1.00  0.00    -0.269 C  
BRANCH  22  23
HETATM   23  C   UNL     1      -9.054  17.878  67.827  1.00  0.00    -0.258 C  
BRANCH  23  24
HETATM   24  C   UNL     1      -8.025  18.653  68.645  1.00  0.00    -0.356 C  
HETATM   25  C   UNL     1      -7.374  19.754  67.848  1.00  0.00    -0.284 C  
HETATM   26  O   UNL     1      -6.181  19.790  67.587  1.00  0.00    -0.193 OA 
HETATM   27  O   UNL     1      -8.226  20.734  67.475  1.00  0.00    -0.268 OA 
ENDBRANCH  23  24
ENDBRANCH  22  23
ENDBRANCH   6  22
TORSDOF 9
ENDMDL
