MODEL        1
REMARK 921   NORMALIZED FREE ENERGY PREDICTED BY IDOCK:   -6.78 KCAL/MOL
REMARK 922        TOTAL FREE ENERGY PREDICTED BY IDOCK:  -12.06 KCAL/MOL
REMARK 923 INTER-LIGAND FREE ENERGY PREDICTED BY IDOCK:   -9.95 KCAL/MOL
REMARK 924 INTRA-LIGAND FREE ENERGY PREDICTED BY IDOCK:   -2.11 KCAL/MOL
REMARK 927      BINDING AFFINITY PREDICTED BY RF-SCORE:    0.00 PKD
ROOT
HETATM    1  C   UNL     1     -12.557  15.291  73.758  1.00  0.00    -0.736 C  
HETATM    2  C   UNL     1     -13.628  15.827  72.817  1.00  0.00    -0.662 C  
ENDROOT
BRANCH   2   3
HETATM    3  C   UNL     1     -13.380  15.325  71.394  1.00  0.00    -0.573 C  
BRANCH   3   4
HETATM    4  C   UNL     1     -12.026  14.670  71.142  1.00  0.00    -0.405 C  
BRANCH   4   5
HETATM    5  C   UNL     1     -11.975  13.803  69.924  1.00  0.00    -0.347 A  
HETATM    6  N   UNL     1     -11.939  12.488  70.007  1.00  0.00    -0.334 NA 
HETATM    7  C   UNL     1     -11.963  12.025  68.731  1.00  0.00    -0.244 A  
HETATM    8  C   UNL     1     -12.002  13.062  67.829  1.00  0.00    -0.295 A  
HETATM    9  N   UNL     1     -11.948  14.222  68.595  1.00  0.00    -0.332 NA 
BRANCH   8  10
HETATM   10  C   UNL     1     -12.138  13.069  66.429  1.00  0.00    -0.428 C  
HETATM   11  O   UNL     1     -10.692  12.256  63.279  1.00  0.00    -0.427 OA 
HETATM   12  C   UNL     1     -11.126  12.797  65.581  1.00  0.00    -0.311 C  
HETATM   13  C   UNL     1     -11.516  12.875  64.143  1.00  0.00    -0.396 C  
HETATM   14  O   UNL     1     -12.507  13.477  63.755  1.00  0.00    -0.696 OA 
BRANCH  12  15
HETATM   15  C   UNL     1      -9.706  12.491  65.979  1.00  0.00    -0.247 C  
BRANCH  15  16
HETATM   16  C   UNL     1      -9.357  11.042  66.203  1.00  0.00    -0.191 A  
HETATM   17  C   UNL     1      -9.460   8.738  66.550  1.00  0.00    -0.281 A  
HETATM   18  C   UNL     1     -10.151   9.913  66.136  1.00  0.00    -0.315 A  
HETATM   19  C   UNL     1      -8.143   8.994  66.852  1.00  0.00    -0.112 A  
HETATM   20  S   UNL     1      -7.743  10.640  66.633  1.00  0.00    -0.138 SA 
ENDBRANCH  15  16
ENDBRANCH  12  15
ENDBRANCH   8  10
BRANCH   9  21
HETATM   21  C   UNL     1     -11.658  15.582  68.112  1.00  0.00    -0.304 C  
BRANCH  21  22
HETATM   22  C   UNL     1     -10.195  15.863  67.832  1.00  0.00    -0.251 A  
HETATM   23  C   UNL     1      -9.734  16.136  66.537  1.00  0.00    -0.282 A  
HETATM   24  C   UNL     1      -8.421  16.553  66.307  1.00  0.00    -0.363 A  
HETATM   25  C   UNL     1      -9.244  15.827  68.862  1.00  0.00    -0.227 A  
HETATM   26  O   UNL     1      -5.795  18.071  68.149  1.00  0.00    -0.164 OA 
HETATM   27  C   UNL     1      -7.928  16.247  68.646  1.00  0.00    -0.215 A  
HETATM   28  C   UNL     1      -7.537  16.680  67.377  1.00  0.00    -0.191 A  
HETATM   29  O   UNL     1      -5.580  17.135  66.098  1.00  0.00    -0.321 OA 
HETATM   30  C   UNL     1      -6.206  17.281  67.132  1.00  0.00    -0.161 C  
ENDBRANCH  21  22
ENDBRANCH   9  21
ENDBRANCH   4   5
ENDBRANCH   3   4
ENDBRANCH   2   3
TORSDOF 8
ENDMDL
MODEL        2
REMARK 921   NORMALIZED FREE ENERGY PREDICTED BY IDOCK:   -6.71 KCAL/MOL
REMARK 922        TOTAL FREE ENERGY PREDICTED BY IDOCK:  -11.96 KCAL/MOL
REMARK 923 INTER-LIGAND FREE ENERGY PREDICTED BY IDOCK:   -9.68 KCAL/MOL
REMARK 924 INTRA-LIGAND FREE ENERGY PREDICTED BY IDOCK:   -2.28 KCAL/MOL
REMARK 927      BINDING AFFINITY PREDICTED BY RF-SCORE:    0.00 PKD
ROOT
HETATM    1  C   UNL     1     -10.475  18.836  67.315  1.00  0.00    -0.489 C  
HETATM    2  C   UNL     1      -9.427  19.198  68.361  1.00  0.00    -0.425 C  
ENDROOT
BRANCH   2   3
HETATM    3  C   UNL     1      -8.243  18.234  68.277  1.00  0.00    -0.312 C  
BRANCH   3   4
HETATM    4  C   UNL     1      -8.181  17.357  67.031  1.00  0.00    -0.240 C  
BRANCH   4   5
HETATM    5  C   UNL     1      -7.964  15.903  67.308  1.00  0.00    -0.182 A  
HETATM    6  N   UNL     1      -6.764  15.359  67.272  1.00  0.00    -0.277 NA 
HETATM    7  C   UNL     1      -6.923  14.060  67.630  1.00  0.00    -0.183 A  
HETATM    8  C   UNL     1      -8.244  13.774  67.882  1.00  0.00    -0.166 A  
HETATM    9  N   UNL     1      -8.935  14.952  67.615  1.00  0.00    -0.176 NA 
BRANCH   8  10
HETATM   10  C   UNL     1      -8.865  12.612  68.373  1.00  0.00    -0.119 C  
HETATM   11  O   UNL     1      -9.946   9.287  67.700  1.00  0.00    -0.173 OA 
HETATM   12  C   UNL     1      -9.251  11.586  67.587  1.00  0.00    -0.171 C  
HETATM   13  C   UNL     1      -9.893  10.468  68.340  1.00  0.00    -0.161 C  
HETATM   14  O   UNL     1     -10.365  10.606  69.459  1.00  0.00    -0.223 OA 
BRANCH  12  15
HETATM   15  C   UNL     1      -9.125  11.533  66.088  1.00  0.00    -0.217 C  
BRANCH  15  16
HETATM   16  C   UNL     1     -10.328  11.960  65.287  1.00  0.00    -0.276 A  
HETATM   17  C   UNL     1     -12.482  12.557  64.619  1.00  0.00    -0.539 A  
HETATM   18  C   UNL     1     -11.580  12.367  65.706  1.00  0.00    -0.449 A  
HETATM   19  C   UNL     1     -11.872  12.357  63.403  1.00  0.00    -0.484 A  
HETATM   20  S   UNL     1     -10.222  11.948  63.571  1.00  0.00    -0.454 SA 
ENDBRANCH  15  16
ENDBRANCH  12  15
ENDBRANCH   8  10
BRANCH   9  21
HETATM   21  C   UNL     1     -10.389  15.098  67.438  1.00  0.00    -0.244 C  
BRANCH  21  22
HETATM   22  C   UNL     1     -11.203  14.994  68.712  1.00  0.00    -0.288 A  
HETATM   23  C   UNL     1     -11.914  13.831  69.037  1.00  0.00    -0.399 A  
HETATM   24  C   UNL     1     -12.527  13.680  70.284  1.00  0.00    -0.335 A  
HETATM   25  C   UNL     1     -11.297  16.078  69.598  1.00  0.00    -0.332 A  
HETATM   26  O   UNL     1     -12.210  15.051  73.541  1.00  0.00    -0.428 OA 
HETATM   27  C   UNL     1     -11.902  15.937  70.850  1.00  0.00    -0.453 A  
HETATM   28  C   UNL     1     -12.456  14.710  71.220  1.00  0.00    -0.408 A  
HETATM   29  O   UNL     1     -13.924  13.752  72.833  1.00  0.00    -0.635 OA 
HETATM   30  C   UNL     1     -12.966  14.463  72.588  1.00  0.00    -0.445 C  
ENDBRANCH  21  22
ENDBRANCH   9  21
ENDBRANCH   4   5
ENDBRANCH   3   4
ENDBRANCH   2   3
TORSDOF 8
ENDMDL
MODEL        3
REMARK 921   NORMALIZED FREE ENERGY PREDICTED BY IDOCK:   -6.53 KCAL/MOL
REMARK 922        TOTAL FREE ENERGY PREDICTED BY IDOCK:  -11.70 KCAL/MOL
REMARK 923 INTER-LIGAND FREE ENERGY PREDICTED BY IDOCK:   -9.59 KCAL/MOL
REMARK 924 INTRA-LIGAND FREE ENERGY PREDICTED BY IDOCK:   -2.11 KCAL/MOL
REMARK 927      BINDING AFFINITY PREDICTED BY RF-SCORE:    0.00 PKD
ROOT
HETATM    1  C   UNL     1     -12.255   8.360  72.360  1.00  0.00    -0.430 C  
HETATM    2  C   UNL     1     -11.723   7.414  71.292  1.00  0.00    -0.316 C  
ENDROOT
BRANCH   2   3
HETATM    3  C   UNL     1     -10.300   7.812  70.895  1.00  0.00    -0.208 C  
BRANCH   3   4
HETATM    4  C   UNL     1      -9.950   9.288  71.055  1.00  0.00    -0.364 C  
BRANCH   4   5
HETATM    5  C   UNL     1      -9.903  10.055  69.772  1.00  0.00    -0.235 A  
HETATM    6  N   UNL     1      -8.764  10.336  69.171  1.00  0.00    -0.162 NA 
HETATM    7  C   UNL     1      -9.089  10.976  68.018  1.00  0.00    -0.152 A  
HETATM    8  C   UNL     1     -10.452  11.113  67.896  1.00  0.00    -0.190 A  
HETATM    9  N   UNL     1     -10.985  10.572  69.062  1.00  0.00    -0.227 NA 
BRANCH   8  10
HETATM   10  C   UNL     1     -11.244  11.608  66.844  1.00  0.00    -0.376 C  
HETATM   11  O   UNL     1     -11.534  13.914  64.148  1.00  0.00    -0.342 OA 
HETATM   12  C   UNL     1     -10.955  12.733  66.160  1.00  0.00    -0.310 C  
HETATM   13  C   UNL     1     -11.950  13.055  65.095  1.00  0.00    -0.402 C  
HETATM   14  O   UNL     1     -13.081  12.592  65.081  1.00  0.00    -0.726 OA 
BRANCH  12  15
HETATM   15  C   UNL     1      -9.791  13.649  66.430  1.00  0.00    -0.302 C  
BRANCH  15  16
HETATM   16  C   UNL     1     -10.055  14.851  67.300  1.00  0.00    -0.235 A  
HETATM   17  C   UNL     1     -10.812  16.893  68.135  1.00  0.00    -0.351 A  
HETATM   18  C   UNL     1     -10.980  15.868  67.159  1.00  0.00    -0.214 A  
HETATM   19  C   UNL     1      -9.813  16.593  69.031  1.00  0.00    -0.267 A  
HETATM   20  S   UNL     1      -9.085  15.084  68.699  1.00  0.00    -0.197 SA 
ENDBRANCH  15  16
ENDBRANCH  12  15
ENDBRANCH   8  10
BRANCH   9  21
HETATM   21  C   UNL     1     -12.359  10.742  69.562  1.00  0.00    -0.138 C  
BRANCH  21  22
HETATM   22  C   UNL     1     -12.612  12.035  70.310  1.00  0.00    -0.060 A  
HETATM   23  C   UNL     1     -13.091  12.040  71.628  1.00  0.00    -0.422 A  
HETATM   24  C   UNL     1     -13.168  13.223  72.367  1.00  0.00    -0.539 A  
HETATM   25  C   UNL     1     -12.405  13.278  69.693  1.00  0.00    -0.154 A  
HETATM   26  O   UNL     1     -11.679  16.444  72.318  1.00  0.00    -0.508 OA 
HETATM   27  C   UNL     1     -12.473  14.468  70.424  1.00  0.00    -0.407 A  
HETATM   28  C   UNL     1     -12.786  14.430  71.784  1.00  0.00    -0.423 A  
HETATM   29  O   UNL     1     -13.475  15.855  73.565  1.00  0.00    -0.497 OA 
HETATM   30  C   UNL     1     -12.718  15.640  72.636  1.00  0.00    -0.437 C  
ENDBRANCH  21  22
ENDBRANCH   9  21
ENDBRANCH   4   5
ENDBRANCH   3   4
ENDBRANCH   2   3
TORSDOF 8
ENDMDL
MODEL        4
REMARK 921   NORMALIZED FREE ENERGY PREDICTED BY IDOCK:   -6.43 KCAL/MOL
REMARK 922        TOTAL FREE ENERGY PREDICTED BY IDOCK:  -11.56 KCAL/MOL
REMARK 923 INTER-LIGAND FREE ENERGY PREDICTED BY IDOCK:   -9.91 KCAL/MOL
REMARK 924 INTRA-LIGAND FREE ENERGY PREDICTED BY IDOCK:   -1.65 KCAL/MOL
REMARK 927      BINDING AFFINITY PREDICTED BY RF-SCORE:    0.00 PKD
ROOT
HETATM    1  C   UNL     1     -10.493  11.084  63.723  1.00  0.00    -0.408 C  
HETATM    2  C   UNL     1     -11.374  12.297  63.452  1.00  0.00    -0.508 C  
ENDROOT
BRANCH   2   3
HETATM    3  C   UNL     1     -12.617  12.257  64.341  1.00  0.00    -0.447 C  
BRANCH   3   4
HETATM    4  C   UNL     1     -12.627  13.223  65.521  1.00  0.00    -0.505 C  
BRANCH   4   5
HETATM    5  C   UNL     1     -11.439  14.130  65.587  1.00  0.00    -0.325 A  
HETATM    6  N   UNL     1     -11.388  15.259  64.910  1.00  0.00    -0.399 NA 
HETATM    7  C   UNL     1     -10.215  15.853  65.247  1.00  0.00    -0.251 A  
HETATM    8  C   UNL     1      -9.508  15.081  66.140  1.00  0.00    -0.313 A  
HETATM    9  N   UNL     1     -10.269  13.931  66.318  1.00  0.00    -0.289 NA 
BRANCH   8  10
HETATM   10  C   UNL     1      -8.311  15.329  66.836  1.00  0.00    -0.278 C  
HETATM   11  O   UNL     1      -6.773  16.644  69.765  1.00  0.00    -0.184 OA 
HETATM   12  C   UNL     1      -8.237  16.106  67.935  1.00  0.00    -0.159 C  
HETATM   13  C   UNL     1      -6.857  16.222  68.491  1.00  0.00    -0.137 C  
HETATM   14  O   UNL     1      -5.854  15.972  67.837  1.00  0.00    -0.114 OA 
BRANCH  12  15
HETATM   15  C   UNL     1      -9.385  16.856  68.559  1.00  0.00    -0.259 C  
BRANCH  15  16
HETATM   16  C   UNL     1      -9.668  18.237  68.027  1.00  0.00    -0.312 A  
HETATM   17  C   UNL     1     -10.516  20.047  66.826  1.00  0.00    -0.520 A  
HETATM   18  C   UNL     1     -10.687  18.685  67.208  1.00  0.00    -0.449 A  
HETATM   19  C   UNL     1      -9.413  20.615  67.419  1.00  0.00    -0.376 A  
HETATM   20  S   UNL     1      -8.592  19.513  68.433  1.00  0.00    -0.325 SA 
ENDBRANCH  15  16
ENDBRANCH  12  15
ENDBRANCH   8  10
BRANCH   9  21
HETATM   21  C   UNL     1      -9.824  12.668  66.930  1.00  0.00    -0.234 C  
BRANCH  21  22
HETATM   22  C   UNL     1     -10.522  12.303  68.225  1.00  0.00    -0.236 A  
HETATM   23  C   UNL     1     -11.267  13.246  68.948  1.00  0.00    -0.322 A  
HETATM   24  C   UNL     1     -12.039  12.869  70.050  1.00  0.00    -0.357 A  
HETATM   25  C   UNL     1     -10.419  11.012  68.761  1.00  0.00    -0.222 A  
HETATM   26  O   UNL     1     -13.543   9.910  71.304  1.00  0.00    -0.324 OA 
HETATM   27  C   UNL     1     -11.191  10.621  69.859  1.00  0.00    -0.378 A  
HETATM   28  C   UNL     1     -12.058  11.537  70.459  1.00  0.00    -0.472 A  
HETATM   29  O   UNL     1     -13.331  11.852  72.448  1.00  0.00    -0.370 OA 
HETATM   30  C   UNL     1     -13.011  11.133  71.519  1.00  0.00    -0.437 C  
ENDBRANCH  21  22
ENDBRANCH   9  21
ENDBRANCH   4   5
ENDBRANCH   3   4
ENDBRANCH   2   3
TORSDOF 8
ENDMDL
MODEL        5
REMARK 921   NORMALIZED FREE ENERGY PREDICTED BY IDOCK:   -6.35 KCAL/MOL
REMARK 922        TOTAL FREE ENERGY PREDICTED BY IDOCK:  -11.43 KCAL/MOL
REMARK 923 INTER-LIGAND FREE ENERGY PREDICTED BY IDOCK:   -9.13 KCAL/MOL
REMARK 924 INTRA-LIGAND FREE ENERGY PREDICTED BY IDOCK:   -2.30 KCAL/MOL
REMARK 927      BINDING AFFINITY PREDICTED BY RF-SCORE:    0.00 PKD
ROOT
HETATM    1  C   UNL     1     -11.655  11.523  63.584  1.00  0.00    -0.323 C  
HETATM    2  C   UNL     1     -10.172  11.859  63.485  1.00  0.00    -0.485 C  
ENDROOT
BRANCH   2   3
HETATM    3  C   UNL     1      -9.328  10.651  63.893  1.00  0.00    -0.302 C  
BRANCH   3   4
HETATM    4  C   UNL     1      -8.715  10.705  65.289  1.00  0.00    -0.198 C  
BRANCH   4   5
HETATM    5  C   UNL     1      -9.496   9.974  66.335  1.00  0.00    -0.186 A  
HETATM    6  N   UNL     1     -10.064   8.809  66.093  1.00  0.00    -0.204 NA 
HETATM    7  C   UNL     1     -10.625   8.408  67.261  1.00  0.00    -0.257 A  
HETATM    8  C   UNL     1     -10.422   9.339  68.253  1.00  0.00    -0.215 A  
HETATM    9  N   UNL     1      -9.741  10.388  67.643  1.00  0.00    -0.166 NA 
BRANCH   8  10
HETATM   10  C   UNL     1     -10.724   9.313  69.627  1.00  0.00    -0.244 C  
HETATM   11  O   UNL     1      -9.615   8.532  72.918  1.00  0.00    -0.240 OA 
HETATM   12  C   UNL     1      -9.963   8.682  70.544  1.00  0.00    -0.220 C  
HETATM   13  C   UNL     1     -10.494   8.790  71.935  1.00  0.00    -0.353 C  
HETATM   14  O   UNL     1     -11.657   9.075  72.181  1.00  0.00    -0.355 OA 
BRANCH  12  15
HETATM   15  C   UNL     1      -8.719   7.884  70.254  1.00  0.00    -0.138 C  
BRANCH  15  16
HETATM   16  C   UNL     1      -8.844   6.383  70.304  1.00  0.00    -0.151 A  
HETATM   17  C   UNL     1      -9.627   4.192  70.153  1.00  0.00    -0.272 A  
HETATM   18  C   UNL     1      -9.802   5.549  69.759  1.00  0.00    -0.258 A  
HETATM   19  C   UNL     1      -8.503   4.020  70.928  1.00  0.00    -0.072 A  
HETATM   20  S   UNL     1      -7.664   5.487  71.174  1.00  0.00    -0.106 SA 
ENDBRANCH  15  16
ENDBRANCH  12  15
ENDBRANCH   8  10
BRANCH   9  21
HETATM   21  C   UNL     1      -9.553  11.745  68.181  1.00  0.00    -0.193 C  
BRANCH  21  22
HETATM   22  C   UNL     1     -10.153  12.855  67.341  1.00  0.00    -0.223 A  
HETATM   23  C   UNL     1      -9.350  13.821  66.719  1.00  0.00    -0.276 A  
HETATM   24  C   UNL     1      -9.890  14.742  65.818  1.00  0.00    -0.373 A  
HETATM   25  C   UNL     1     -11.542  12.970  67.185  1.00  0.00    -0.411 A  
HETATM   26  O   UNL     1     -12.760  15.004  63.747  1.00  0.00    -0.741 OA 
HETATM   27  C   UNL     1     -12.094  13.883  66.281  1.00  0.00    -0.484 A  
HETATM   28  C   UNL     1     -11.256  14.722  65.543  1.00  0.00    -0.346 A  
HETATM   29  O   UNL     1     -11.323  16.692  64.205  1.00  0.00    -1.116 OA 
HETATM   30  C   UNL     1     -11.777  15.592  64.463  1.00  0.00    -0.220 C  
ENDBRANCH  21  22
ENDBRANCH   9  21
ENDBRANCH   4   5
ENDBRANCH   3   4
ENDBRANCH   2   3
TORSDOF 8
ENDMDL
MODEL        6
REMARK 921   NORMALIZED FREE ENERGY PREDICTED BY IDOCK:   -6.34 KCAL/MOL
REMARK 922        TOTAL FREE ENERGY PREDICTED BY IDOCK:  -11.42 KCAL/MOL
REMARK 923 INTER-LIGAND FREE ENERGY PREDICTED BY IDOCK:  -10.12 KCAL/MOL
REMARK 924 INTRA-LIGAND FREE ENERGY PREDICTED BY IDOCK:   -1.30 KCAL/MOL
REMARK 927      BINDING AFFINITY PREDICTED BY RF-SCORE:    0.00 PKD
ROOT
HETATM    1  C   UNL     1      -9.961   8.446  66.494  1.00  0.00    -0.335 C  
HETATM    2  C   UNL     1      -8.884   8.578  67.563  1.00  0.00    -0.139 C  
ENDROOT
BRANCH   2   3
HETATM    3  C   UNL     1      -9.486   9.138  68.853  1.00  0.00    -0.151 C  
BRANCH   3   4
HETATM    4  C   UNL     1      -8.944  10.488  69.311  1.00  0.00    -0.148 C  
BRANCH   4   5
HETATM    5  C   UNL     1      -9.052  11.577  68.291  1.00  0.00    -0.185 A  
HETATM    6  N   UNL     1      -7.987  12.186  67.809  1.00  0.00    -0.139 NA 
HETATM    7  C   UNL     1      -8.438  13.059  66.873  1.00  0.00    -0.078 A  
HETATM    8  C   UNL     1      -9.809  13.011  66.772  1.00  0.00    -0.243 A  
HETATM    9  N   UNL     1     -10.220  12.094  67.734  1.00  0.00    -0.197 NA 
BRANCH   8  10
HETATM   10  C   UNL     1     -10.697  13.646  65.885  1.00  0.00    -0.281 C  
HETATM   11  O   UNL     1     -11.318  16.435  63.760  1.00  0.00    -0.899 OA 
HETATM   12  C   UNL     1     -10.534  14.911  65.446  1.00  0.00    -0.406 C  
HETATM   13  C   UNL     1     -11.611  15.364  64.518  1.00  0.00    -0.296 C  
HETATM   14  O   UNL     1     -12.704  14.819  64.453  1.00  0.00    -0.604 OA 
BRANCH  12  15
HETATM   15  C   UNL     1      -9.427  15.846  65.857  1.00  0.00    -0.372 C  
BRANCH  15  16
HETATM   16  C   UNL     1      -9.803  16.995  66.756  1.00  0.00    -0.278 A  
HETATM   17  C   UNL     1     -10.528  19.051  67.584  1.00  0.00    -0.523 A  
HETATM   18  C   UNL     1     -10.504  18.153  66.478  1.00  0.00    -0.356 A  
HETATM   19  C   UNL     1      -9.907  18.523  68.691  1.00  0.00    -0.385 A  
HETATM   20  S   UNL     1      -9.302  16.953  68.400  1.00  0.00    -0.262 SA 
ENDBRANCH  15  16
ENDBRANCH  12  15
ENDBRANCH   8  10
BRANCH   9  21
HETATM   21  C   UNL     1     -11.589  11.903  68.239  1.00  0.00    -0.327 C  
BRANCH  21  22
HETATM   22  C   UNL     1     -12.030  12.907  69.286  1.00  0.00    -0.313 A  
HETATM   23  C   UNL     1     -12.534  12.498  70.529  1.00  0.00    -0.266 A  
HETATM   24  C   UNL     1     -12.786  13.419  71.548  1.00  0.00    -0.427 A  
HETATM   25  C   UNL     1     -11.977  14.285  69.032  1.00  0.00    -0.360 A  
HETATM   26  O   UNL     1     -11.740  16.692  72.437  1.00  0.00    -0.480 OA 
HETATM   27  C   UNL     1     -12.220  15.216  70.046  1.00  0.00    -0.379 A  
HETATM   28  C   UNL     1     -12.556  14.776  71.328  1.00  0.00    -0.403 A  
HETATM   29  O   UNL     1     -13.469  15.573  73.379  1.00  0.00    -0.452 OA 
HETATM   30  C   UNL     1     -12.669  15.711  72.471  1.00  0.00    -0.433 C  
ENDBRANCH  21  22
ENDBRANCH   9  21
ENDBRANCH   4   5
ENDBRANCH   3   4
ENDBRANCH   2   3
TORSDOF 8
ENDMDL
MODEL        7
REMARK 921   NORMALIZED FREE ENERGY PREDICTED BY IDOCK:   -6.34 KCAL/MOL
REMARK 922        TOTAL FREE ENERGY PREDICTED BY IDOCK:  -11.41 KCAL/MOL
REMARK 923 INTER-LIGAND FREE ENERGY PREDICTED BY IDOCK:   -9.94 KCAL/MOL
REMARK 924 INTRA-LIGAND FREE ENERGY PREDICTED BY IDOCK:   -1.47 KCAL/MOL
REMARK 927      BINDING AFFINITY PREDICTED BY RF-SCORE:    0.00 PKD
ROOT
HETATM    1  C   UNL     1     -11.998  16.096  72.517  1.00  0.00    -0.660 C  
HETATM    2  C   UNL     1     -12.736  15.080  73.380  1.00  0.00    -0.654 C  
ENDROOT
BRANCH   2   3
HETATM    3  C   UNL     1     -13.401  14.022  72.499  1.00  0.00    -0.639 C  
BRANCH   3   4
HETATM    4  C   UNL     1     -12.724  13.745  71.161  1.00  0.00    -0.438 C  
BRANCH   4   5
HETATM    5  C   UNL     1     -12.450  12.299  70.894  1.00  0.00    -0.276 A  
HETATM    6  N   UNL     1     -13.024  11.341  71.595  1.00  0.00    -0.458 NA 
HETATM    7  C   UNL     1     -12.606  10.169  71.052  1.00  0.00    -0.381 A  
HETATM    8  C   UNL     1     -11.746  10.389  70.002  1.00  0.00    -0.286 A  
HETATM    9  N   UNL     1     -11.591  11.770  69.932  1.00  0.00    -0.296 NA 
BRANCH   8  10
HETATM   10  C   UNL     1     -11.151   9.500  69.088  1.00  0.00    -0.082 C  
HETATM   11  O   UNL     1      -8.573   7.123  68.475  1.00  0.00    -0.124 OA 
HETATM   12  C   UNL     1      -9.956   8.911  69.293  1.00  0.00    -0.192 C  
HETATM   13  C   UNL     1      -9.533   8.016  68.177  1.00  0.00    -0.143 C  
HETATM   14  O   UNL     1     -10.005   8.089  67.051  1.00  0.00    -0.202 OA 
BRANCH  12  15
HETATM   15  C   UNL     1      -9.060   9.135  70.484  1.00  0.00    -0.284 C  
BRANCH  15  16
HETATM   16  C   UNL     1      -9.261   8.226  71.669  1.00  0.00    -0.185 A  
HETATM   17  C   UNL     1     -10.005   7.272  73.663  1.00  0.00    -0.377 A  
HETATM   18  C   UNL     1     -10.257   8.218  72.627  1.00  0.00    -0.368 A  
HETATM   19  C   UNL     1      -8.864   6.541  73.427  1.00  0.00    -0.123 A  
HETATM   20  S   UNL     1      -8.105   6.990  71.965  1.00  0.00    -0.097 SA 
ENDBRANCH  15  16
ENDBRANCH  12  15
ENDBRANCH   8  10
BRANCH   9  21
HETATM   21  C   UNL     1     -10.553  12.502  69.188  1.00  0.00     0.042 C  
BRANCH  21  22
HETATM   22  C   UNL     1     -11.053  13.270  67.981  1.00  0.00    -0.282 A  
HETATM   23  C   UNL     1     -10.399  14.422  67.521  1.00  0.00    -0.251 A  
HETATM   24  C   UNL     1     -10.764  15.032  66.319  1.00  0.00    -0.322 A  
HETATM   25  C   UNL     1     -12.211  12.869  67.300  1.00  0.00    -0.119 A  
HETATM   26  O   UNL     1     -12.434  14.122  63.323  1.00  0.00    -0.758 OA 
HETATM   27  C   UNL     1     -12.583  13.467  66.093  1.00  0.00    -0.355 A  
HETATM   28  C   UNL     1     -11.813  14.506  65.566  1.00  0.00    -0.330 A  
HETATM   29  O   UNL     1     -11.909  16.238  63.933  1.00  0.00    -0.994 OA 
HETATM   30  C   UNL     1     -12.071  15.066  64.219  1.00  0.00    -0.306 C  
ENDBRANCH  21  22
ENDBRANCH   9  21
ENDBRANCH   4   5
ENDBRANCH   3   4
ENDBRANCH   2   3
TORSDOF 8
ENDMDL
MODEL        8
REMARK 921   NORMALIZED FREE ENERGY PREDICTED BY IDOCK:   -6.26 KCAL/MOL
REMARK 922        TOTAL FREE ENERGY PREDICTED BY IDOCK:  -11.30 KCAL/MOL
REMARK 923 INTER-LIGAND FREE ENERGY PREDICTED BY IDOCK:   -9.75 KCAL/MOL
REMARK 924 INTRA-LIGAND FREE ENERGY PREDICTED BY IDOCK:   -1.55 KCAL/MOL
REMARK 927      BINDING AFFINITY PREDICTED BY RF-SCORE:    0.00 PKD
ROOT
HETATM    1  C   UNL     1      -8.249  10.234  63.929  1.00  0.00    -0.152 C  
HETATM    2  C   UNL     1      -9.249  10.714  62.884  1.00  0.00    -0.317 C  
ENDROOT
BRANCH   2   3
HETATM    3  C   UNL     1     -10.519  11.228  63.565  1.00  0.00    -0.457 C  
BRANCH   3   4
HETATM    4  C   UNL     1     -10.600  11.018  65.073  1.00  0.00    -0.315 C  
BRANCH   4   5
HETATM    5  C   UNL     1     -11.221  12.154  65.823  1.00  0.00    -0.339 A  
HETATM    6  N   UNL     1     -11.961  13.064  65.220  1.00  0.00    -0.380 NA 
HETATM    7  C   UNL     1     -12.409  13.897  66.194  1.00  0.00    -0.465 A  
HETATM    8  C   UNL     1     -11.934  13.517  67.427  1.00  0.00    -0.357 A  
HETATM    9  N   UNL     1     -11.111  12.421  67.186  1.00  0.00    -0.265 NA 
BRANCH   8  10
HETATM   10  C   UNL     1     -12.208  14.005  68.718  1.00  0.00    -0.237 C  
HETATM   11  O   UNL     1     -11.417  16.387  71.243  1.00  0.00    -0.396 OA 
HETATM   12  C   UNL     1     -11.421  14.893  69.359  1.00  0.00    -0.324 C  
HETATM   13  C   UNL     1     -11.917  15.254  70.720  1.00  0.00    -0.339 C  
HETATM   14  O   UNL     1     -12.711  14.563  71.342  1.00  0.00    -0.300 OA 
BRANCH  12  15
HETATM   15  C   UNL     1     -10.130  15.462  68.834  1.00  0.00    -0.219 C  
BRANCH  15  16
HETATM   16  C   UNL     1     -10.227  16.694  67.972  1.00  0.00    -0.280 A  
HETATM   17  C   UNL     1     -10.652  18.843  67.171  1.00  0.00    -0.531 A  
HETATM   18  C   UNL     1     -10.534  17.999  68.312  1.00  0.00    -0.355 A  
HETATM   19  C   UNL     1     -10.365  18.176  66.003  1.00  0.00    -0.353 A  
HETATM   20  S   UNL     1      -9.951  16.543  66.283  1.00  0.00    -0.346 SA 
ENDBRANCH  15  16
ENDBRANCH  12  15
ENDBRANCH   8  10
BRANCH   9  21
HETATM   21  C   UNL     1     -10.133  11.834  68.117  1.00  0.00    -0.192 C  
BRANCH  21  22
HETATM   22  C   UNL     1     -10.663  10.700  68.970  1.00  0.00    -0.257 A  
HETATM   23  C   UNL     1     -10.425   9.358  68.639  1.00  0.00    -0.236 A  
HETATM   24  C   UNL     1     -10.774   8.323  69.510  1.00  0.00    -0.179 A  
HETATM   25  C   UNL     1     -11.440  10.956  70.109  1.00  0.00    -0.405 A  
HETATM   26  O   UNL     1     -11.408   7.921  72.978  1.00  0.00    -0.408 OA 
HETATM   27  C   UNL     1     -11.790   9.929  70.991  1.00  0.00    -0.463 A  
HETATM   28  C   UNL     1     -11.391   8.618  70.724  1.00  0.00    -0.299 A  
HETATM   29  O   UNL     1     -11.845   6.374  71.383  1.00  0.00    -0.317 OA 
HETATM   30  C   UNL     1     -11.598   7.524  71.700  1.00  0.00    -0.268 C  
ENDBRANCH  21  22
ENDBRANCH   9  21
ENDBRANCH   4   5
ENDBRANCH   3   4
ENDBRANCH   2   3
TORSDOF 8
ENDMDL
MODEL        9
REMARK 921   NORMALIZED FREE ENERGY PREDICTED BY IDOCK:   -6.24 KCAL/MOL
REMARK 922        TOTAL FREE ENERGY PREDICTED BY IDOCK:  -11.27 KCAL/MOL
REMARK 923 INTER-LIGAND FREE ENERGY PREDICTED BY IDOCK:   -9.94 KCAL/MOL
REMARK 924 INTRA-LIGAND FREE ENERGY PREDICTED BY IDOCK:   -1.32 KCAL/MOL
REMARK 927      BINDING AFFINITY PREDICTED BY RF-SCORE:    0.00 PKD
ROOT
HETATM    1  C   UNL     1     -12.093  16.236  73.024  1.00  0.00    -0.629 C  
HETATM    2  C   UNL     1     -12.836  15.017  73.555  1.00  0.00    -0.636 C  
ENDROOT
BRANCH   2   3
HETATM    3  C   UNL     1     -13.683  14.390  72.447  1.00  0.00    -0.590 C  
BRANCH   3   4
HETATM    4  C   UNL     1     -13.307  12.969  72.040  1.00  0.00    -0.588 C  
BRANCH   4   5
HETATM    5  C   UNL     1     -12.492  12.880  70.788  1.00  0.00    -0.286 A  
HETATM    6  N   UNL     1     -11.901  13.936  70.267  1.00  0.00    -0.304 NA 
HETATM    7  C   UNL     1     -11.205  13.490  69.189  1.00  0.00    -0.260 A  
HETATM    8  C   UNL     1     -11.371  12.136  69.019  1.00  0.00    -0.276 A  
HETATM    9  N   UNL     1     -12.256  11.743  70.019  1.00  0.00    -0.271 NA 
BRANCH   8  10
HETATM   10  C   UNL     1     -10.776  11.234  68.119  1.00  0.00    -0.244 C  
HETATM   11  O   UNL     1     -10.093  10.411  64.723  1.00  0.00    -0.339 OA 
HETATM   12  C   UNL     1     -10.980  11.269  66.786  1.00  0.00    -0.339 C  
HETATM   13  C   UNL     1     -10.245  10.204  66.043  1.00  0.00    -0.218 C  
HETATM   14  O   UNL     1      -9.819   9.191  66.581  1.00  0.00    -0.198 OA 
BRANCH  12  15
HETATM   15  C   UNL     1     -11.890  12.226  66.063  1.00  0.00    -0.409 C  
BRANCH  15  16
HETATM   16  C   UNL     1     -11.296  13.545  65.642  1.00  0.00    -0.298 A  
HETATM   17  C   UNL     1      -9.950  15.440  65.451  1.00  0.00    -0.356 A  
HETATM   18  C   UNL     1     -10.071  14.109  65.944  1.00  0.00    -0.337 A  
HETATM   19  C   UNL     1     -11.056  15.826  64.731  1.00  0.00    -0.400 A  
HETATM   20  S   UNL     1     -12.230  14.589  64.646  1.00  0.00    -0.409 SA 
ENDBRANCH  15  16
ENDBRANCH  12  15
ENDBRANCH   8  10
BRANCH   9  21
HETATM   21  C   UNL     1     -12.989  10.468  70.092  1.00  0.00     0.030 C  
BRANCH  21  22
HETATM   22  C   UNL     1     -12.354   9.415  70.977  1.00  0.00    -0.332 A  
HETATM   23  C   UNL     1     -13.056   8.267  71.373  1.00  0.00    -0.240 A  
HETATM   24  C   UNL     1     -12.419   7.225  72.051  1.00  0.00    -0.276 A  
HETATM   25  C   UNL     1     -11.046   9.571  71.459  1.00  0.00    -0.406 A  
HETATM   26  O   UNL     1      -9.111   6.011  72.471  1.00  0.00    -0.136 OA 
HETATM   27  C   UNL     1     -10.396   8.533  72.133  1.00  0.00    -0.409 A  
HETATM   28  C   UNL     1     -11.065   7.329  72.365  1.00  0.00    -0.315 A  
HETATM   29  O   UNL     1     -10.908   5.347  73.678  1.00  0.00    -0.276 OA 
HETATM   30  C   UNL     1     -10.374   6.147  72.931  1.00  0.00    -0.198 C  
ENDBRANCH  21  22
ENDBRANCH   9  21
ENDBRANCH   4   5
ENDBRANCH   3   4
ENDBRANCH   2   3
TORSDOF 8
ENDMDL
MODEL       10
REMARK 921   NORMALIZED FREE ENERGY PREDICTED BY IDOCK:   -6.21 KCAL/MOL
REMARK 922        TOTAL FREE ENERGY PREDICTED BY IDOCK:  -11.22 KCAL/MOL
REMARK 923 INTER-LIGAND FREE ENERGY PREDICTED BY IDOCK:   -9.19 KCAL/MOL
REMARK 924 INTRA-LIGAND FREE ENERGY PREDICTED BY IDOCK:   -2.03 KCAL/MOL
REMARK 927      BINDING AFFINITY PREDICTED BY RF-SCORE:    0.00 PKD
ROOT
HETATM    1  C   UNL     1     -10.999  15.374  64.845  1.00  0.00    -0.453 C  
HETATM    2  C   UNL     1     -12.271  14.589  64.554  1.00  0.00    -0.483 C  
ENDROOT
BRANCH   2   3
HETATM    3  C   UNL     1     -11.942  13.114  64.323  1.00  0.00    -0.470 C  
BRANCH   3   4
HETATM    4  C   UNL     1     -10.469  12.732  64.436  1.00  0.00    -0.410 C  
BRANCH   4   5
HETATM    5  C   UNL     1     -10.169  11.736  65.511  1.00  0.00    -0.252 A  
HETATM    6  N   UNL     1     -10.653  10.510  65.478  1.00  0.00    -0.135 NA 
HETATM    7  C   UNL     1     -10.138   9.867  66.557  1.00  0.00    -0.232 A  
HETATM    8  C   UNL     1      -9.327  10.702  67.290  1.00  0.00    -0.150 A  
HETATM    9  N   UNL     1      -9.392  11.936  66.650  1.00  0.00    -0.200 NA 
BRANCH   8  10
HETATM   10  C   UNL     1      -8.511  10.457  68.408  1.00  0.00    -0.124 C  
HETATM   11  O   UNL     1      -7.901   8.443  71.281  1.00  0.00    -0.090 OA 
HETATM   12  C   UNL     1      -8.846   9.609  69.402  1.00  0.00    -0.183 C  
HETATM   13  C   UNL     1      -7.820   9.522  70.483  1.00  0.00    -0.157 C  
HETATM   14  O   UNL     1      -6.967  10.380  70.658  1.00  0.00    -0.324 OA 
BRANCH  12  15
HETATM   15  C   UNL     1     -10.136   8.837  69.500  1.00  0.00    -0.202 C  
BRANCH  15  16
HETATM   16  C   UNL     1     -11.211   9.414  70.385  1.00  0.00    -0.262 A  
HETATM   17  C   UNL     1     -12.676  10.857  71.484  1.00  0.00    -0.533 A  
HETATM   18  C   UNL     1     -11.782  10.672  70.390  1.00  0.00    -0.446 A  
HETATM   19  C   UNL     1     -12.814   9.715  72.237  1.00  0.00    -0.325 A  
HETATM   20  S   UNL     1     -11.873   8.427  71.626  1.00  0.00    -0.325 SA 
ENDBRANCH  15  16
ENDBRANCH  12  15
ENDBRANCH   8  10
BRANCH   9  21
HETATM   21  C   UNL     1      -8.956  13.233  67.195  1.00  0.00    -0.229 C  
BRANCH  21  22
HETATM   22  C   UNL     1      -9.992  13.956  68.031  1.00  0.00    -0.241 A  
HETATM   23  C   UNL     1     -11.265  13.413  68.254  1.00  0.00    -0.310 A  
HETATM   24  C   UNL     1     -12.157  14.002  69.154  1.00  0.00    -0.375 A  
HETATM   25  C   UNL     1      -9.720  15.215  68.585  1.00  0.00    -0.216 A  
HETATM   26  O   UNL     1     -11.999  16.184  71.948  1.00  0.00    -0.475 OA 
HETATM   27  C   UNL     1     -10.602  15.811  69.492  1.00  0.00    -0.272 A  
HETATM   28  C   UNL     1     -11.792  15.164  69.831  1.00  0.00    -0.363 A  
HETATM   29  O   UNL     1     -13.896  15.582  70.868  1.00  0.00    -0.512 OA 
HETATM   30  C   UNL     1     -12.682  15.674  70.899  1.00  0.00    -0.445 C  
ENDBRANCH  21  22
ENDBRANCH   9  21
ENDBRANCH   4   5
ENDBRANCH   3   4
ENDBRANCH   2   3
TORSDOF 8
ENDMDL
MODEL       11
REMARK 921   NORMALIZED FREE ENERGY PREDICTED BY IDOCK:   -6.18 KCAL/MOL
REMARK 922        TOTAL FREE ENERGY PREDICTED BY IDOCK:  -11.18 KCAL/MOL
REMARK 923 INTER-LIGAND FREE ENERGY PREDICTED BY IDOCK:   -9.55 KCAL/MOL
REMARK 924 INTRA-LIGAND FREE ENERGY PREDICTED BY IDOCK:   -1.63 KCAL/MOL
REMARK 927      BINDING AFFINITY PREDICTED BY RF-SCORE:    0.00 PKD
ROOT
HETATM    1  C   UNL     1      -7.725  20.233  66.710  1.00  0.00    -0.333 C  
HETATM    2  C   UNL     1      -9.106  20.588  67.246  1.00  0.00    -0.473 C  
ENDROOT
BRANCH   2   3
HETATM    3  C   UNL     1      -9.687  19.411  68.030  1.00  0.00    -0.447 C  
BRANCH   3   4
HETATM    4  C   UNL     1     -10.763  18.598  67.316  1.00  0.00    -0.449 C  
BRANCH   4   5
HETATM    5  C   UNL     1     -10.290  17.283  66.781  1.00  0.00    -0.308 A  
HETATM    6  N   UNL     1     -10.582  16.884  65.559  1.00  0.00    -0.553 NA 
HETATM    7  C   UNL     1      -9.950  15.695  65.385  1.00  0.00    -0.276 A  
HETATM    8  C   UNL     1      -9.261  15.331  66.518  1.00  0.00    -0.290 A  
HETATM    9  N   UNL     1      -9.528  16.328  67.451  1.00  0.00    -0.226 NA 
BRANCH   8  10
HETATM   10  C   UNL     1      -8.392  14.254  66.769  1.00  0.00     0.027 C  
HETATM   11  O   UNL     1      -7.983  10.722  66.952  1.00  0.00    -0.123 OA 
HETATM   12  C   UNL     1      -8.809  12.979  66.913  1.00  0.00    -0.184 C  
HETATM   13  C   UNL     1      -7.701  12.016  67.181  1.00  0.00    -0.161 C  
HETATM   14  O   UNL     1      -6.606  12.364  67.600  1.00  0.00    -0.099 OA 
BRANCH  12  15
HETATM   15  C   UNL     1     -10.241  12.514  66.872  1.00  0.00    -0.237 C  
BRANCH  15  16
HETATM   16  C   UNL     1     -10.847  12.289  65.511  1.00  0.00    -0.282 A  
HETATM   17  C   UNL     1     -11.174  11.794  63.255  1.00  0.00    -0.357 A  
HETATM   18  C   UNL     1     -10.316  11.684  64.388  1.00  0.00    -0.362 A  
HETATM   19  C   UNL     1     -12.360  12.416  63.566  1.00  0.00    -0.546 A  
HETATM   20  S   UNL     1     -12.440  12.860  65.214  1.00  0.00    -0.423 SA 
ENDBRANCH  15  16
ENDBRANCH  12  15
ENDBRANCH   8  10
BRANCH   9  21
HETATM   21  C   UNL     1      -9.283  16.264  68.901  1.00  0.00    -0.249 C  
BRANCH  21  22
HETATM   22  C   UNL     1     -10.442  15.738  69.723  1.00  0.00    -0.318 A  
HETATM   23  C   UNL     1     -10.872  14.408  69.618  1.00  0.00    -0.144 A  
HETATM   24  C   UNL     1     -11.830  13.884  70.490  1.00  0.00    -0.317 A  
HETATM   25  C   UNL     1     -11.147  16.578  70.597  1.00  0.00    -0.064 A  
HETATM   26  O   UNL     1     -13.113  14.617  73.716  1.00  0.00    -0.423 OA 
HETATM   27  C   UNL     1     -12.103  16.065  71.478  1.00  0.00    -0.513 A  
HETATM   28  C   UNL     1     -12.392  14.699  71.471  1.00  0.00    -0.415 A  
HETATM   29  O   UNL     1     -14.022  13.147  72.253  1.00  0.00    -0.505 OA 
HETATM   30  C   UNL     1     -13.276  14.082  72.486  1.00  0.00    -0.505 C  
ENDBRANCH  21  22
ENDBRANCH   9  21
ENDBRANCH   4   5
ENDBRANCH   3   4
ENDBRANCH   2   3
TORSDOF 8
ENDMDL
MODEL       12
REMARK 921   NORMALIZED FREE ENERGY PREDICTED BY IDOCK:   -6.15 KCAL/MOL
REMARK 922        TOTAL FREE ENERGY PREDICTED BY IDOCK:  -11.14 KCAL/MOL
REMARK 923 INTER-LIGAND FREE ENERGY PREDICTED BY IDOCK:   -9.03 KCAL/MOL
REMARK 924 INTRA-LIGAND FREE ENERGY PREDICTED BY IDOCK:   -2.11 KCAL/MOL
REMARK 927      BINDING AFFINITY PREDICTED BY RF-SCORE:    0.00 PKD
ROOT
HETATM    1  C   UNL     1     -12.671  10.337  70.987  1.00  0.00    -0.491 C  
HETATM    2  C   UNL     1     -11.873  11.357  70.185  1.00  0.00    -0.440 C  
ENDROOT
BRANCH   2   3
HETATM    3  C   UNL     1     -12.317  12.776  70.544  1.00  0.00    -0.355 C  
BRANCH   3   4
HETATM    4  C   UNL     1     -12.408  13.762  69.384  1.00  0.00    -0.219 C  
BRANCH   4   5
HETATM    5  C   UNL     1     -11.352  14.822  69.389  1.00  0.00    -0.285 A  
HETATM    6  N   UNL     1     -11.627  16.075  69.691  1.00  0.00    -0.320 NA 
HETATM    7  C   UNL     1     -10.445  16.742  69.661  1.00  0.00    -0.209 A  
HETATM    8  C   UNL     1      -9.411  15.901  69.322  1.00  0.00    -0.259 A  
HETATM    9  N   UNL     1     -10.002  14.664  69.084  1.00  0.00    -0.185 NA 
BRANCH   8  10
HETATM   10  C   UNL     1      -8.022  16.114  69.266  1.00  0.00    -0.194 C  
HETATM   11  O   UNL     1      -5.283  17.535  67.489  1.00  0.00    -0.113 OA 
HETATM   12  C   UNL     1      -7.385  16.594  68.178  1.00  0.00    -0.172 C  
HETATM   13  C   UNL     1      -5.910  16.725  68.360  1.00  0.00    -0.125 C  
HETATM   14  O   UNL     1      -5.292  16.126  69.229  1.00  0.00    -0.110 OA 
BRANCH  12  15
HETATM   15  C   UNL     1      -8.032  16.930  66.860  1.00  0.00    -0.248 C  
BRANCH  15  16
HETATM   16  C   UNL     1      -8.745  18.255  66.769  1.00  0.00    -0.272 A  
HETATM   17  C   UNL     1      -9.375  20.485  67.028  1.00  0.00    -0.482 A  
HETATM   18  C   UNL     1      -8.344  19.513  67.176  1.00  0.00    -0.321 A  
HETATM   19  C   UNL     1     -10.504  19.955  66.450  1.00  0.00    -0.475 A  
HETATM   20  S   UNL     1     -10.320  18.297  66.084  1.00  0.00    -0.337 SA 
ENDBRANCH  15  16
ENDBRANCH  12  15
ENDBRANCH   8  10
BRANCH   9  21
HETATM   21  C   UNL     1      -9.387  13.512  68.405  1.00  0.00    -0.171 C  
BRANCH  21  22
HETATM   22  C   UNL     1      -9.981  13.176  67.051  1.00  0.00    -0.244 A  
HETATM   23  C   UNL     1     -10.664  11.972  66.828  1.00  0.00    -0.280 A  
HETATM   24  C   UNL     1     -11.347  11.738  65.632  1.00  0.00    -0.293 A  
HETATM   25  C   UNL     1      -9.836  14.049  65.964  1.00  0.00    -0.316 A  
HETATM   26  O   UNL     1     -12.750  13.658  62.998  1.00  0.00    -0.681 OA 
HETATM   27  C   UNL     1     -10.520  13.828  64.764  1.00  0.00    -0.448 A  
HETATM   28  C   UNL     1     -11.336  12.703  64.627  1.00  0.00    -0.360 A  
HETATM   29  O   UNL     1     -12.446  11.414  62.959  1.00  0.00    -0.106 OA 
HETATM   30  C   UNL     1     -12.201  12.505  63.441  1.00  0.00    -0.517 C  
ENDBRANCH  21  22
ENDBRANCH   9  21
ENDBRANCH   4   5
ENDBRANCH   3   4
ENDBRANCH   2   3
TORSDOF 8
ENDMDL
MODEL       13
REMARK 921   NORMALIZED FREE ENERGY PREDICTED BY IDOCK:   -6.12 KCAL/MOL
REMARK 922        TOTAL FREE ENERGY PREDICTED BY IDOCK:  -11.10 KCAL/MOL
REMARK 923 INTER-LIGAND FREE ENERGY PREDICTED BY IDOCK:   -8.84 KCAL/MOL
REMARK 924 INTRA-LIGAND FREE ENERGY PREDICTED BY IDOCK:   -2.26 KCAL/MOL
REMARK 927      BINDING AFFINITY PREDICTED BY RF-SCORE:    0.00 PKD
ROOT
HETATM    1  C   UNL     1      -9.679   5.438  70.577  1.00  0.00    -0.246 C  
HETATM    2  C   UNL     1     -10.655   6.592  70.770  1.00  0.00    -0.265 C  
ENDROOT
BRANCH   2   3
HETATM    3  C   UNL     1     -10.295   7.385  72.027  1.00  0.00    -0.223 C  
BRANCH   3   4
HETATM    4  C   UNL     1      -9.842   8.824  71.803  1.00  0.00    -0.391 C  
BRANCH   4   5
HETATM    5  C   UNL     1     -10.826   9.674  71.062  1.00  0.00    -0.342 A  
HETATM    6  N   UNL     1     -12.067   9.823  71.478  1.00  0.00    -0.388 NA 
HETATM    7  C   UNL     1     -12.654  10.696  70.620  1.00  0.00    -0.365 A  
HETATM    8  C   UNL     1     -11.776  11.093  69.640  1.00  0.00    -0.339 A  
HETATM    9  N   UNL     1     -10.603  10.385  69.885  1.00  0.00    -0.266 NA 
BRANCH   8  10
HETATM   10  C   UNL     1     -11.899  12.047  68.613  1.00  0.00    -0.366 C  
HETATM   11  O   UNL     1     -11.249  15.375  67.529  1.00  0.00    -0.327 OA 
HETATM   12  C   UNL     1     -11.635  13.358  68.780  1.00  0.00    -0.363 C  
HETATM   13  C   UNL     1     -11.847  14.171  67.546  1.00  0.00    -0.401 C  
HETATM   14  O   UNL     1     -12.534  13.789  66.610  1.00  0.00    -0.386 OA 
BRANCH  12  15
HETATM   15  C   UNL     1     -11.216  14.012  70.071  1.00  0.00    -0.074 C  
BRANCH  15  16
HETATM   16  C   UNL     1     -12.317  14.468  70.993  1.00  0.00    -0.347 A  
HETATM   17  C   UNL     1     -14.380  14.806  72.029  1.00  0.00    -0.642 A  
HETATM   18  C   UNL     1     -13.614  14.010  71.129  1.00  0.00    -0.205 A  
HETATM   19  C   UNL     1     -13.626  15.803  72.604  1.00  0.00    -0.548 A  
HETATM   20  S   UNL     1     -12.006  15.775  72.065  1.00  0.00    -0.530 SA 
ENDBRANCH  15  16
ENDBRANCH  12  15
ENDBRANCH   8  10
BRANCH   9  21
HETATM   21  C   UNL     1      -9.468  10.217  68.962  1.00  0.00    -0.200 C  
BRANCH  21  22
HETATM   22  C   UNL     1      -9.410   8.876  68.259  1.00  0.00    -0.149 A  
HETATM   23  C   UNL     1     -10.543   8.312  67.656  1.00  0.00    -0.264 A  
HETATM   24  C   UNL     1     -10.450   7.159  66.873  1.00  0.00    -0.364 A  
HETATM   25  C   UNL     1      -8.219   8.136  68.216  1.00  0.00    -0.129 A  
HETATM   26  O   UNL     1      -7.947   5.428  65.048  1.00  0.00    -0.098 OA 
HETATM   27  C   UNL     1      -8.112   6.984  67.430  1.00  0.00    -0.116 A  
HETATM   28  C   UNL     1      -9.215   6.537  66.699  1.00  0.00    -0.172 A  
HETATM   29  O   UNL     1     -10.006   4.619  65.529  1.00  0.00    -0.189 OA 
HETATM   30  C   UNL     1      -9.112   5.419  65.733  1.00  0.00    -0.154 C  
ENDBRANCH  21  22
ENDBRANCH   9  21
ENDBRANCH   4   5
ENDBRANCH   3   4
ENDBRANCH   2   3
TORSDOF 8
ENDMDL
MODEL       14
REMARK 921   NORMALIZED FREE ENERGY PREDICTED BY IDOCK:   -6.10 KCAL/MOL
REMARK 922        TOTAL FREE ENERGY PREDICTED BY IDOCK:  -11.06 KCAL/MOL
REMARK 923 INTER-LIGAND FREE ENERGY PREDICTED BY IDOCK:   -9.35 KCAL/MOL
REMARK 924 INTRA-LIGAND FREE ENERGY PREDICTED BY IDOCK:   -1.71 KCAL/MOL
REMARK 927      BINDING AFFINITY PREDICTED BY RF-SCORE:    0.00 PKD
ROOT
HETATM    1  C   UNL     1      -9.855   8.876  66.403  1.00  0.00    -0.353 C  
HETATM    2  C   UNL     1      -8.994  10.107  66.654  1.00  0.00    -0.156 C  
ENDROOT
BRANCH   2   3
HETATM    3  C   UNL     1      -9.444  11.260  65.756  1.00  0.00    -0.252 C  
BRANCH   3   4
HETATM    4  C   UNL     1     -10.683  12.021  66.215  1.00  0.00    -0.302 C  
BRANCH   4   5
HETATM    5  C   UNL     1     -10.727  13.452  65.780  1.00  0.00    -0.274 A  
HETATM    6  N   UNL     1     -10.921  13.789  64.521  1.00  0.00    -0.399 NA 
HETATM    7  C   UNL     1     -10.966  15.146  64.493  1.00  0.00    -0.189 A  
HETATM    8  C   UNL     1     -10.784  15.673  65.750  1.00  0.00    -0.341 A  
HETATM    9  N   UNL     1     -10.566  14.580  66.582  1.00  0.00    -0.280 NA 
BRANCH   8  10
HETATM   10  C   UNL     1     -10.854  16.997  66.220  1.00  0.00     0.034 C  
HETATM   11  O   UNL     1      -9.161  20.093  66.696  1.00  0.00    -0.358 OA 
HETATM   12  C   UNL     1      -9.774  17.792  66.367  1.00  0.00    -0.315 C  
HETATM   13  C   UNL     1     -10.101  19.151  66.888  1.00  0.00    -0.373 C  
HETATM   14  O   UNL     1     -11.145  19.404  67.474  1.00  0.00    -0.417 OA 
BRANCH  12  15
HETATM   15  C   UNL     1      -8.346  17.391  66.102  1.00  0.00    -0.217 C  
BRANCH  15  16
HETATM   16  C   UNL     1      -7.429  17.307  67.294  1.00  0.00    -0.176 A  
HETATM   17  C   UNL     1      -6.535  17.388  69.447  1.00  0.00    -0.233 A  
HETATM   18  C   UNL     1      -7.713  17.374  68.645  1.00  0.00    -0.273 A  
HETATM   19  C   UNL     1      -5.394  17.261  68.689  1.00  0.00    -0.145 A  
HETATM   20  S   UNL     1      -5.742  17.122  67.023  1.00  0.00    -0.184 SA 
ENDBRANCH  15  16
ENDBRANCH  12  15
ENDBRANCH   8  10
BRANCH   9  21
HETATM   21  C   UNL     1     -10.025  14.610  67.950  1.00  0.00    -0.221 C  
BRANCH  21  22
HETATM   22  C   UNL     1     -11.061  14.500  69.051  1.00  0.00    -0.279 A  
HETATM   23  C   UNL     1     -11.482  13.256  69.541  1.00  0.00    -0.299 A  
HETATM   24  C   UNL     1     -12.312  13.161  70.661  1.00  0.00    -0.405 A  
HETATM   25  C   UNL     1     -11.660  15.646  69.595  1.00  0.00    -0.364 A  
HETATM   26  O   UNL     1     -13.179  15.169  73.456  1.00  0.00    -0.470 OA 
HETATM   27  C   UNL     1     -12.487  15.564  70.719  1.00  0.00    -0.491 A  
HETATM   28  C   UNL     1     -12.754  14.321  71.296  1.00  0.00    -0.427 A  
HETATM   29  O   UNL     1     -14.247  13.273  72.829  1.00  0.00    -0.661 OA 
HETATM   30  C   UNL     1     -13.492  14.194  72.574  1.00  0.00    -0.534 C  
ENDBRANCH  21  22
ENDBRANCH   9  21
ENDBRANCH   4   5
ENDBRANCH   3   4
ENDBRANCH   2   3
TORSDOF 8
ENDMDL
MODEL       15
REMARK 921   NORMALIZED FREE ENERGY PREDICTED BY IDOCK:   -6.08 KCAL/MOL
REMARK 922        TOTAL FREE ENERGY PREDICTED BY IDOCK:  -11.03 KCAL/MOL
REMARK 923 INTER-LIGAND FREE ENERGY PREDICTED BY IDOCK:   -8.95 KCAL/MOL
REMARK 924 INTRA-LIGAND FREE ENERGY PREDICTED BY IDOCK:   -2.08 KCAL/MOL
REMARK 927      BINDING AFFINITY PREDICTED BY RF-SCORE:    0.00 PKD
ROOT
HETATM    1  C   UNL     1     -10.384   5.407  70.513  1.00  0.00    -0.344 C  
HETATM    2  C   UNL     1     -11.553   6.359  70.729  1.00  0.00    -0.402 C  
ENDROOT
BRANCH   2   3
HETATM    3  C   UNL     1     -11.617   6.792  72.195  1.00  0.00    -0.324 C  
BRANCH   3   4
HETATM    4  C   UNL     1     -11.404   8.279  72.462  1.00  0.00    -0.455 C  
BRANCH   4   5
HETATM    5  C   UNL     1     -10.407   8.933  71.558  1.00  0.00    -0.324 A  
HETATM    6  N   UNL     1      -9.114   8.908  71.815  1.00  0.00    -0.349 NA 
HETATM    7  C   UNL     1      -8.507   9.531  70.773  1.00  0.00    -0.028 A  
HETATM    8  C   UNL     1      -9.429   9.967  69.851  1.00  0.00    -0.181 A  
HETATM    9  N   UNL     1     -10.671   9.637  70.385  1.00  0.00    -0.274 NA 
BRANCH   8  10
HETATM   10  C   UNL     1      -9.269  10.561  68.587  1.00  0.00    -0.172 C  
HETATM   11  O   UNL     1      -8.540  10.093  65.134  1.00  0.00    -0.148 OA 
HETATM   12  C   UNL     1      -8.750   9.916  67.522  1.00  0.00    -0.121 C  
HETATM   13  C   UNL     1      -8.675  10.760  66.293  1.00  0.00    -0.169 C  
HETATM   14  O   UNL     1      -8.712  11.982  66.323  1.00  0.00    -0.144 OA 
BRANCH  12  15
HETATM   15  C   UNL     1      -8.229   8.503  67.520  1.00  0.00    -0.117 C  
BRANCH  15  16
HETATM   16  C   UNL     1      -9.217   7.412  67.196  1.00  0.00    -0.136 A  
HETATM   17  C   UNL     1     -11.161   6.146  66.952  1.00  0.00    -0.301 A  
HETATM   18  C   UNL     1     -10.599   7.435  67.186  1.00  0.00    -0.413 A  
HETATM   19  C   UNL     1     -10.193   5.196  66.723  1.00  0.00    -0.253 A  
HETATM   20  S   UNL     1      -8.619   5.855  66.785  1.00  0.00    -0.114 SA 
ENDBRANCH  15  16
ENDBRANCH  12  15
ENDBRANCH   8  10
BRANCH   9  21
HETATM   21  C   UNL     1     -11.981  10.146  69.947  1.00  0.00    -0.086 C  
BRANCH  21  22
HETATM   22  C   UNL     1     -12.335  11.527  70.462  1.00  0.00    -0.432 A  
HETATM   23  C   UNL     1     -13.001  11.707  71.682  1.00  0.00    -0.483 A  
HETATM   24  C   UNL     1     -13.180  12.980  72.229  1.00  0.00    -0.539 A  
HETATM   25  C   UNL     1     -12.034  12.674  69.714  1.00  0.00    -0.365 A  
HETATM   26  O   UNL     1     -11.686  16.186  71.947  1.00  0.00    -0.475 OA 
HETATM   27  C   UNL     1     -12.204  13.953  70.253  1.00  0.00    -0.428 A  
HETATM   28  C   UNL     1     -12.712  14.100  71.545  1.00  0.00    -0.436 A  
HETATM   29  O   UNL     1     -13.647  15.747  72.990  1.00  0.00    -0.559 OA 
HETATM   30  C   UNL     1     -12.764  15.418  72.220  1.00  0.00    -0.379 C  
ENDBRANCH  21  22
ENDBRANCH   9  21
ENDBRANCH   4   5
ENDBRANCH   3   4
ENDBRANCH   2   3
TORSDOF 8
ENDMDL
MODEL       16
REMARK 921   NORMALIZED FREE ENERGY PREDICTED BY IDOCK:   -6.06 KCAL/MOL
REMARK 922        TOTAL FREE ENERGY PREDICTED BY IDOCK:  -11.00 KCAL/MOL
REMARK 923 INTER-LIGAND FREE ENERGY PREDICTED BY IDOCK:   -9.23 KCAL/MOL
REMARK 924 INTRA-LIGAND FREE ENERGY PREDICTED BY IDOCK:   -1.78 KCAL/MOL
REMARK 927      BINDING AFFINITY PREDICTED BY RF-SCORE:    0.00 PKD
ROOT
HETATM    1  C   UNL     1      -9.023   9.537  64.800  1.00  0.00    -0.263 C  
HETATM    2  C   UNL     1      -8.713  10.114  63.425  1.00  0.00    -0.216 C  
ENDROOT
BRANCH   2   3
HETATM    3  C   UNL     1      -9.681  11.252  63.098  1.00  0.00    -0.408 C  
BRANCH   3   4
HETATM    4  C   UNL     1     -10.980  11.275  63.897  1.00  0.00    -0.382 C  
BRANCH   4   5
HETATM    5  C   UNL     1     -11.333  12.613  64.464  1.00  0.00    -0.333 A  
HETATM    6  N   UNL     1     -12.125  13.452  63.826  1.00  0.00    -0.584 NA 
HETATM    7  C   UNL     1     -12.281  14.525  64.643  1.00  0.00    -0.460 A  
HETATM    8  C   UNL     1     -11.568  14.368  65.808  1.00  0.00    -0.353 A  
HETATM    9  N   UNL     1     -10.900  13.155  65.673  1.00  0.00    -0.275 NA 
BRANCH   8  10
HETATM   10  C   UNL     1     -11.507  15.155  66.972  1.00  0.00    -0.230 C  
HETATM   11  O   UNL     1     -10.269  18.111  68.522  1.00  0.00    -0.376 OA 
HETATM   12  C   UNL     1     -10.663  16.196  67.123  1.00  0.00    -0.262 C  
HETATM   13  C   UNL     1     -10.781  16.870  68.450  1.00  0.00    -0.368 C  
HETATM   14  O   UNL     1     -11.289  16.335  69.424  1.00  0.00    -0.324 OA 
BRANCH  12  15
HETATM   15  C   UNL     1      -9.640  16.650  66.116  1.00  0.00    -0.323 C  
BRANCH  15  16
HETATM   16  C   UNL     1      -8.192  16.542  66.517  1.00  0.00    -0.300 A  
HETATM   17  C   UNL     1      -6.176  15.877  67.482  1.00  0.00    -0.188 A  
HETATM   18  C   UNL     1      -7.522  15.527  67.174  1.00  0.00    -0.244 A  
HETATM   19  C   UNL     1      -5.839  17.116  66.990  1.00  0.00    -0.174 A  
HETATM   20  S   UNL     1      -7.137  17.851  66.159  1.00  0.00    -0.310 SA 
ENDBRANCH  15  16
ENDBRANCH  12  15
ENDBRANCH   8  10
BRANCH   9  21
HETATM   21  C   UNL     1      -9.779  12.672  66.496  1.00  0.00    -0.256 C  
BRANCH  21  22
HETATM   22  C   UNL     1     -10.183  11.874  67.720  1.00  0.00    -0.211 A  
HETATM   23  C   UNL     1     -11.472  11.968  68.266  1.00  0.00    -0.361 A  
HETATM   24  C   UNL     1     -11.889  11.115  69.290  1.00  0.00    -0.422 A  
HETATM   25  C   UNL     1      -9.266  11.036  68.370  1.00  0.00    -0.175 A  
HETATM   26  O   UNL     1     -10.980   7.940  70.588  1.00  0.00    -0.238 OA 
HETATM   27  C   UNL     1      -9.674  10.173  69.392  1.00  0.00    -0.247 A  
HETATM   28  C   UNL     1     -11.008  10.165  69.802  1.00  0.00    -0.325 A  
HETATM   29  O   UNL     1     -12.392   9.403  71.586  1.00  0.00    -0.337 OA 
HETATM   30  C   UNL     1     -11.524   9.165  70.766  1.00  0.00    -0.282 C  
ENDBRANCH  21  22
ENDBRANCH   9  21
ENDBRANCH   4   5
ENDBRANCH   3   4
ENDBRANCH   2   3
TORSDOF 8
ENDMDL
MODEL       17
REMARK 921   NORMALIZED FREE ENERGY PREDICTED BY IDOCK:   -6.02 KCAL/MOL
REMARK 922        TOTAL FREE ENERGY PREDICTED BY IDOCK:  -10.95 KCAL/MOL
REMARK 923 INTER-LIGAND FREE ENERGY PREDICTED BY IDOCK:   -8.19 KCAL/MOL
REMARK 924 INTRA-LIGAND FREE ENERGY PREDICTED BY IDOCK:   -2.76 KCAL/MOL
REMARK 927      BINDING AFFINITY PREDICTED BY RF-SCORE:    0.00 PKD
ROOT
HETATM    1  C   UNL     1      -8.064   8.366  72.089  1.00  0.00    -0.192 C  
HETATM    2  C   UNL     1      -7.156   8.411  70.866  1.00  0.00    -0.057 C  
ENDROOT
BRANCH   2   3
HETATM    3  C   UNL     1      -6.993   9.852  70.381  1.00  0.00    -0.145 C  
BRANCH   3   4
HETATM    4  C   UNL     1      -6.575  10.024  68.924  1.00  0.00    -0.049 C  
BRANCH   4   5
HETATM    5  C   UNL     1      -7.420  10.983  68.147  1.00  0.00    -0.092 A  
HETATM    6  N   UNL     1      -7.204  12.282  68.177  1.00  0.00    -0.092 NA 
HETATM    7  C   UNL     1      -8.099  12.838  67.321  1.00  0.00    -0.172 A  
HETATM    8  C   UNL     1      -8.902  11.876  66.753  1.00  0.00    -0.193 A  
HETATM    9  N   UNL     1      -8.507  10.674  67.332  1.00  0.00    -0.122 NA 
BRANCH   8  10
HETATM   10  C   UNL     1      -9.884  11.962  65.750  1.00  0.00    -0.262 C  
HETATM   11  O   UNL     1     -13.233  12.832  64.911  1.00  0.00    -0.808 OA 
HETATM   12  C   UNL     1     -11.188  12.197  66.003  1.00  0.00    -0.382 C  
HETATM   13  C   UNL     1     -12.036  12.235  64.776  1.00  0.00    -0.365 C  
HETATM   14  O   UNL     1     -11.688  11.742  63.712  1.00  0.00    -0.424 OA 
BRANCH  12  15
HETATM   15  C   UNL     1     -11.801  12.358  67.369  1.00  0.00    -0.360 C  
BRANCH  15  16
HETATM   16  C   UNL     1     -11.717  13.725  67.998  1.00  0.00    -0.355 A  
HETATM   17  C   UNL     1     -11.316  15.987  68.403  1.00  0.00    -0.355 A  
HETATM   18  C   UNL     1     -11.427  14.952  67.430  1.00  0.00    -0.354 A  
HETATM   19  C   UNL     1     -11.591  15.534  69.672  1.00  0.00    -0.348 A  
HETATM   20  S   UNL     1     -11.986  13.873  69.689  1.00  0.00    -0.352 SA 
ENDBRANCH  15  16
ENDBRANCH  12  15
ENDBRANCH   8  10
BRANCH   9  21
HETATM   21  C   UNL     1      -9.241   9.399  67.297  1.00  0.00    -0.130 C  
BRANCH  21  22
HETATM   22  C   UNL     1      -9.996   9.061  68.567  1.00  0.00    -0.193 A  
HETATM   23  C   UNL     1     -10.458  10.060  69.435  1.00  0.00    -0.252 A  
HETATM   24  C   UNL     1     -11.290   9.755  70.515  1.00  0.00    -0.382 A  
HETATM   25  C   UNL     1     -10.230   7.728  68.934  1.00  0.00    -0.220 A  
HETATM   26  O   UNL     1     -13.505   7.149  71.460  1.00  0.00    -0.383 OA 
HETATM   27  C   UNL     1     -11.066   7.410  70.009  1.00  0.00    -0.238 A  
HETATM   28  C   UNL     1     -11.654   8.432  70.756  1.00  0.00    -0.252 A  
HETATM   29  O   UNL     1     -12.776   8.801  72.826  1.00  0.00    -0.331 OA 
HETATM   30  C   UNL     1     -12.667   8.153  71.801  1.00  0.00    -0.330 C  
ENDBRANCH  21  22
ENDBRANCH   9  21
ENDBRANCH   4   5
ENDBRANCH   3   4
ENDBRANCH   2   3
TORSDOF 8
ENDMDL
MODEL       18
REMARK 921   NORMALIZED FREE ENERGY PREDICTED BY IDOCK:   -6.02 KCAL/MOL
REMARK 922        TOTAL FREE ENERGY PREDICTED BY IDOCK:  -10.94 KCAL/MOL
REMARK 923 INTER-LIGAND FREE ENERGY PREDICTED BY IDOCK:   -8.59 KCAL/MOL
REMARK 924 INTRA-LIGAND FREE ENERGY PREDICTED BY IDOCK:   -2.36 KCAL/MOL
REMARK 927      BINDING AFFINITY PREDICTED BY RF-SCORE:    0.00 PKD
ROOT
HETATM    1  C   UNL     1      -9.793  11.517  63.198  1.00  0.00    -0.413 C  
HETATM    2  C   UNL     1      -9.826  10.389  64.221  1.00  0.00    -0.388 C  
ENDROOT
BRANCH   2   3
HETATM    3  C   UNL     1      -8.449   9.733  64.330  1.00  0.00    -0.184 C  
BRANCH   3   4
HETATM    4  C   UNL     1      -7.624  10.109  65.557  1.00  0.00    -0.146 C  
BRANCH   4   5
HETATM    5  C   UNL     1      -7.876   9.252  66.757  1.00  0.00    -0.104 A  
HETATM    6  N   UNL     1      -8.027   7.946  66.660  1.00  0.00    -0.101 NA 
HETATM    7  C   UNL     1      -8.172   7.484  67.928  1.00  0.00    -0.123 A  
HETATM    8  C   UNL     1      -8.126   8.514  68.839  1.00  0.00    -0.119 A  
HETATM    9  N   UNL     1      -7.995   9.673  68.080  1.00  0.00    -0.100 NA 
BRANCH   8  10
HETATM   10  C   UNL     1      -8.128   8.510  70.245  1.00  0.00    -0.106 C  
HETATM   11  O   UNL     1      -9.844   7.606  73.230  1.00  0.00    -0.252 OA 
HETATM   12  C   UNL     1      -9.208   8.190  70.987  1.00  0.00    -0.178 C  
HETATM   13  C   UNL     1      -8.965   8.266  72.457  1.00  0.00    -0.236 C  
HETATM   14  O   UNL     1      -8.041   8.901  72.945  1.00  0.00    -0.380 OA 
BRANCH  12  15
HETATM   15  C   UNL     1     -10.569   7.835  70.448  1.00  0.00    -0.227 C  
BRANCH  15  16
HETATM   16  C   UNL     1     -11.742   8.604  70.997  1.00  0.00    -0.278 A  
HETATM   17  C   UNL     1     -13.136  10.284  71.819  1.00  0.00    -0.570 A  
HETATM   18  C   UNL     1     -11.936   9.967  71.119  1.00  0.00    -0.484 A  
HETATM   19  C   UNL     1     -13.854   9.157  72.147  1.00  0.00    -0.446 A  
HETATM   20  S   UNL     1     -13.088   7.729  71.610  1.00  0.00    -0.319 SA 
ENDBRANCH  15  16
ENDBRANCH  12  15
ENDBRANCH   8  10
BRANCH   9  21
HETATM   21  C   UNL     1      -8.202  11.055  68.543  1.00  0.00    -0.146 C  
BRANCH  21  22
HETATM   22  C   UNL     1      -9.311  11.807  67.835  1.00  0.00    -0.184 A  
HETATM   23  C   UNL     1      -9.063  13.000  67.142  1.00  0.00    -0.225 A  
HETATM   24  C   UNL     1     -10.051  13.602  66.358  1.00  0.00    -0.295 A  
HETATM   25  C   UNL     1     -10.636  11.348  67.878  1.00  0.00    -0.224 A  
HETATM   26  O   UNL     1     -13.044  12.633  64.718  1.00  0.00    -0.852 OA 
HETATM   27  C   UNL     1     -11.631  11.938  67.093  1.00  0.00    -0.363 A  
HETATM   28  C   UNL     1     -11.317  13.025  66.276  1.00  0.00    -0.354 A  
HETATM   29  O   UNL     1     -12.361  14.768  65.031  1.00  0.00    -0.319 OA 
HETATM   30  C   UNL     1     -12.291  13.585  65.311  1.00  0.00    -0.467 C  
ENDBRANCH  21  22
ENDBRANCH   9  21
ENDBRANCH   4   5
ENDBRANCH   3   4
ENDBRANCH   2   3
TORSDOF 8
ENDMDL
MODEL       19
REMARK 921   NORMALIZED FREE ENERGY PREDICTED BY IDOCK:   -5.99 KCAL/MOL
REMARK 922        TOTAL FREE ENERGY PREDICTED BY IDOCK:  -10.90 KCAL/MOL
REMARK 923 INTER-LIGAND FREE ENERGY PREDICTED BY IDOCK:   -8.88 KCAL/MOL
REMARK 924 INTRA-LIGAND FREE ENERGY PREDICTED BY IDOCK:   -2.03 KCAL/MOL
REMARK 927      BINDING AFFINITY PREDICTED BY RF-SCORE:    0.00 PKD
ROOT
HETATM    1  C   UNL     1     -12.154  14.953  64.417  1.00  0.00    -0.417 C  
HETATM    2  C   UNL     1     -12.979  13.954  65.220  1.00  0.00    -0.341 C  
ENDROOT
BRANCH   2   3
HETATM    3  C   UNL     1     -12.460  12.534  64.990  1.00  0.00    -0.494 C  
BRANCH   3   4
HETATM    4  C   UNL     1     -10.958  12.400  64.761  1.00  0.00    -0.340 C  
BRANCH   4   5
HETATM    5  C   UNL     1     -10.296  11.350  65.596  1.00  0.00    -0.257 A  
HETATM    6  N   UNL     1      -9.940  10.184  65.094  1.00  0.00    -0.325 NA 
HETATM    7  C   UNL     1      -9.320   9.511  66.096  1.00  0.00    -0.198 A  
HETATM    8  C   UNL     1      -9.297  10.255  67.252  1.00  0.00    -0.149 A  
HETATM    9  N   UNL     1      -9.984  11.427  66.952  1.00  0.00    -0.203 NA 
BRANCH   8  10
HETATM   10  C   UNL     1      -8.685  10.019  68.496  1.00  0.00    -0.123 C  
HETATM   11  O   UNL     1      -8.732   8.196  71.554  1.00  0.00    -0.125 OA 
HETATM   12  C   UNL     1      -9.256   9.295  69.481  1.00  0.00    -0.168 C  
HETATM   13  C   UNL     1      -8.413   9.191  70.709  1.00  0.00    -0.212 C  
HETATM   14  O   UNL     1      -7.501   9.967  70.955  1.00  0.00    -0.289 OA 
BRANCH  12  15
HETATM   15  C   UNL     1     -10.626   8.672  69.431  1.00  0.00    -0.207 C  
BRANCH  15  16
HETATM   16  C   UNL     1     -11.651   9.199  70.402  1.00  0.00    -0.146 A  
HETATM   17  C   UNL     1     -12.946  10.576  71.769  1.00  0.00    -0.582 A  
HETATM   18  C   UNL     1     -12.030  10.499  70.680  1.00  0.00    -0.455 A  
HETATM   19  C   UNL     1     -13.290   9.331  72.242  1.00  0.00    -0.477 A  
HETATM   20  S   UNL     1     -12.517   8.079  71.375  1.00  0.00    -0.273 SA 
ENDBRANCH  15  16
ENDBRANCH  12  15
ENDBRANCH   8  10
BRANCH   9  21
HETATM   21  C   UNL     1     -10.501  12.414  67.914  1.00  0.00    -0.215 C  
BRANCH  21  22
HETATM   22  C   UNL     1     -10.138  13.854  67.610  1.00  0.00    -0.241 A  
HETATM   23  C   UNL     1      -8.944  14.188  66.956  1.00  0.00    -0.251 A  
HETATM   24  C   UNL     1      -8.689  15.495  66.534  1.00  0.00    -0.340 A  
HETATM   25  C   UNL     1     -10.975  14.908  68.004  1.00  0.00    -0.282 A  
HETATM   26  O   UNL     1     -10.559  18.412  65.771  1.00  0.00    -0.570 OA 
HETATM   27  C   UNL     1     -10.734  16.219  67.583  1.00  0.00    -0.311 A  
HETATM   28  C   UNL     1      -9.623  16.498  66.784  1.00  0.00    -0.268 A  
HETATM   29  O   UNL     1      -8.310  18.331  66.015  1.00  0.00    -0.486 OA 
HETATM   30  C   UNL     1      -9.409  17.835  66.183  1.00  0.00    -0.132 C  
ENDBRANCH  21  22
ENDBRANCH   9  21
ENDBRANCH   4   5
ENDBRANCH   3   4
ENDBRANCH   2   3
TORSDOF 8
ENDMDL
MODEL       20
REMARK 921   NORMALIZED FREE ENERGY PREDICTED BY IDOCK:   -5.97 KCAL/MOL
REMARK 922        TOTAL FREE ENERGY PREDICTED BY IDOCK:  -10.88 KCAL/MOL
REMARK 923 INTER-LIGAND FREE ENERGY PREDICTED BY IDOCK:   -8.09 KCAL/MOL
REMARK 924 INTRA-LIGAND FREE ENERGY PREDICTED BY IDOCK:   -2.79 KCAL/MOL
REMARK 927      BINDING AFFINITY PREDICTED BY RF-SCORE:    0.00 PKD
ROOT
HETATM    1  C   UNL     1      -7.921   8.259  72.064  1.00  0.00    -0.176 C  
HETATM    2  C   UNL     1      -7.236   8.437  70.715  1.00  0.00    -0.055 C  
ENDROOT
BRANCH   2   3
HETATM    3  C   UNL     1      -7.209   9.916  70.327  1.00  0.00    -0.160 C  
BRANCH   3   4
HETATM    4  C   UNL     1      -6.890  10.218  68.867  1.00  0.00    -0.059 C  
BRANCH   4   5
HETATM    5  C   UNL     1      -7.692  11.335  68.277  1.00  0.00    -0.122 A  
HETATM    6  N   UNL     1      -7.477  12.594  68.602  1.00  0.00    -0.114 NA 
HETATM    7  C   UNL     1      -8.325  13.334  67.845  1.00  0.00    -0.163 A  
HETATM    8  C   UNL     1      -9.098  12.531  67.039  1.00  0.00    -0.213 A  
HETATM    9  N   UNL     1      -8.735  11.226  67.359  1.00  0.00    -0.137 NA 
BRANCH   8  10
HETATM   10  C   UNL     1     -10.026  12.846  66.030  1.00  0.00    -0.275 C  
HETATM   11  O   UNL     1     -13.320  13.938  65.233  1.00  0.00    -0.732 OA 
HETATM   12  C   UNL     1     -11.340  13.046  66.264  1.00  0.00    -0.354 C  
HETATM   13  C   UNL     1     -12.122  13.361  65.032  1.00  0.00    -0.401 C  
HETATM   14  O   UNL     1     -11.723  13.099  63.907  1.00  0.00    -0.413 OA 
BRANCH  12  15
HETATM   15  C   UNL     1     -12.022  12.924  67.601  1.00  0.00    -0.344 C  
BRANCH  15  16
HETATM   16  C   UNL     1     -11.898  14.096  68.539  1.00  0.00    -0.355 A  
HETATM   17  C   UNL     1     -11.419  16.177  69.478  1.00  0.00    -0.292 A  
HETATM   18  C   UNL     1     -11.549  15.409  68.285  1.00  0.00    -0.361 A  
HETATM   19  C   UNL     1     -11.740  15.446  70.599  1.00  0.00    -0.339 A  
HETATM   20  S   UNL     1     -12.199  13.847  70.213  1.00  0.00    -0.358 SA 
ENDBRANCH  15  16
ENDBRANCH  12  15
ENDBRANCH   8  10
BRANCH   9  21
HETATM   21  C   UNL     1      -9.467   9.998  67.008  1.00  0.00    -0.164 C  
BRANCH  21  22
HETATM   22  C   UNL     1     -10.180   9.326  68.164  1.00  0.00    -0.246 A  
HETATM   23  C   UNL     1     -10.229   7.930  68.284  1.00  0.00    -0.240 A  
HETATM   24  C   UNL     1     -10.743   7.318  69.429  1.00  0.00    -0.236 A  
HETATM   25  C   UNL     1     -10.843  10.082  69.140  1.00  0.00    -0.253 A  
HETATM   26  O   UNL     1     -11.306   8.175  72.827  1.00  0.00    -0.397 OA 
HETATM   27  C   UNL     1     -11.356   9.482  70.294  1.00  0.00    -0.284 A  
HETATM   28  C   UNL     1     -11.239   8.102  70.469  1.00  0.00    -0.249 A  
HETATM   29  O   UNL     1     -12.108   6.324  71.797  1.00  0.00    -0.323 OA 
HETATM   30  C   UNL     1     -11.622   7.439  71.738  1.00  0.00    -0.272 C  
ENDBRANCH  21  22
ENDBRANCH   9  21
ENDBRANCH   4   5
ENDBRANCH   3   4
ENDBRANCH   2   3
TORSDOF 8
ENDMDL
MODEL       21
REMARK 921   NORMALIZED FREE ENERGY PREDICTED BY IDOCK:   -5.95 KCAL/MOL
REMARK 922        TOTAL FREE ENERGY PREDICTED BY IDOCK:  -10.85 KCAL/MOL
REMARK 923 INTER-LIGAND FREE ENERGY PREDICTED BY IDOCK:   -8.69 KCAL/MOL
REMARK 924 INTRA-LIGAND FREE ENERGY PREDICTED BY IDOCK:   -2.16 KCAL/MOL
REMARK 927      BINDING AFFINITY PREDICTED BY RF-SCORE:    0.00 PKD
ROOT
HETATM    1  C   UNL     1     -11.582   8.247  72.295  1.00  0.00    -0.449 C  
HETATM    2  C   UNL     1     -12.665   9.008  71.541  1.00  0.00    -0.399 C  
ENDROOT
BRANCH   2   3
HETATM    3  C   UNL     1     -12.207  10.439  71.259  1.00  0.00    -0.491 C  
BRANCH   3   4
HETATM    4  C   UNL     1     -12.432  10.946  69.838  1.00  0.00    -0.292 C  
BRANCH   4   5
HETATM    5  C   UNL     1     -11.812  12.277  69.551  1.00  0.00    -0.315 A  
HETATM    6  N   UNL     1     -12.241  13.383  70.126  1.00  0.00    -0.332 NA 
HETATM    7  C   UNL     1     -11.426  14.378  69.694  1.00  0.00    -0.283 A  
HETATM    8  C   UNL     1     -10.477  13.897  68.823  1.00  0.00    -0.221 A  
HETATM    9  N   UNL     1     -10.760  12.543  68.677  1.00  0.00    -0.237 NA 
BRANCH   8  10
HETATM   10  C   UNL     1      -9.376  14.524  68.212  1.00  0.00    -0.203 C  
HETATM   11  O   UNL     1      -8.233  16.797  65.721  1.00  0.00    -0.398 OA 
HETATM   12  C   UNL     1      -9.463  15.229  67.065  1.00  0.00    -0.235 C  
HETATM   13  C   UNL     1      -8.158  15.792  66.611  1.00  0.00    -0.247 C  
HETATM   14  O   UNL     1      -7.080  15.364  66.998  1.00  0.00    -0.195 OA 
BRANCH  12  15
HETATM   15  C   UNL     1     -10.712  15.420  66.246  1.00  0.00    -0.312 C  
BRANCH  15  16
HETATM   16  C   UNL     1     -11.158  14.256  65.399  1.00  0.00    -0.327 A  
HETATM   17  C   UNL     1     -11.294  12.580  63.784  1.00  0.00    -0.534 A  
HETATM   18  C   UNL     1     -10.462  13.516  64.462  1.00  0.00    -0.426 A  
HETATM   19  C   UNL     1     -12.581  12.585  64.270  1.00  0.00    -0.396 A  
HETATM   20  S   UNL     1     -12.781  13.709  65.540  1.00  0.00    -0.387 SA 
ENDBRANCH  15  16
ENDBRANCH  12  15
ENDBRANCH   8  10
BRANCH   9  21
HETATM   21  C   UNL     1     -10.238  11.643  67.636  1.00  0.00    -0.188 C  
BRANCH  21  22
HETATM   22  C   UNL     1      -9.944  10.230  68.100  1.00  0.00    -0.168 A  
HETATM   23  C   UNL     1      -9.037   9.972  69.138  1.00  0.00    -0.188 A  
HETATM   24  C   UNL     1      -8.890   8.689  69.670  1.00  0.00    -0.137 A  
HETATM   25  C   UNL     1     -10.549   9.127  67.481  1.00  0.00    -0.317 A  
HETATM   26  O   UNL     1     -10.788   5.696  69.851  1.00  0.00    -0.331 OA 
HETATM   27  C   UNL     1     -10.415   7.839  68.009  1.00  0.00    -0.244 A  
HETATM   28  C   UNL     1      -9.639   7.634  69.151  1.00  0.00    -0.155 A  
HETATM   29  O   UNL     1      -8.598   5.888  70.394  1.00  0.00    -0.130 OA 
HETATM   30  C   UNL     1      -9.591   6.323  69.839  1.00  0.00    -0.156 C  
ENDBRANCH  21  22
ENDBRANCH   9  21
ENDBRANCH   4   5
ENDBRANCH   3   4
ENDBRANCH   2   3
TORSDOF 8
ENDMDL
MODEL       22
REMARK 921   NORMALIZED FREE ENERGY PREDICTED BY IDOCK:   -5.94 KCAL/MOL
REMARK 922        TOTAL FREE ENERGY PREDICTED BY IDOCK:  -10.84 KCAL/MOL
REMARK 923 INTER-LIGAND FREE ENERGY PREDICTED BY IDOCK:   -8.57 KCAL/MOL
REMARK 924 INTRA-LIGAND FREE ENERGY PREDICTED BY IDOCK:   -2.26 KCAL/MOL
REMARK 927      BINDING AFFINITY PREDICTED BY RF-SCORE:    0.00 PKD
ROOT
HETATM    1  C   UNL     1      -7.700  12.663  67.241  1.00  0.00    -0.140 C  
HETATM    2  C   UNL     1      -6.672  11.539  67.223  1.00  0.00    -0.112 C  
ENDROOT
BRANCH   2   3
HETATM    3  C   UNL     1      -7.223  10.330  66.465  1.00  0.00    -0.109 C  
BRANCH   3   4
HETATM    4  C   UNL     1      -7.333   9.035  67.263  1.00  0.00    -0.084 C  
BRANCH   4   5
HETATM    5  C   UNL     1      -8.057   9.170  68.565  1.00  0.00    -0.103 A  
HETATM    6  N   UNL     1      -7.439   9.037  69.722  1.00  0.00    -0.059 NA 
HETATM    7  C   UNL     1      -8.368   9.282  70.681  1.00  0.00    -0.207 A  
HETATM    8  C   UNL     1      -9.594   9.559  70.123  1.00  0.00    -0.248 A  
HETATM    9  N   UNL     1      -9.414   9.428  68.749  1.00  0.00    -0.148 NA 
BRANCH   8  10
HETATM   10  C   UNL     1     -10.808   9.967  70.705  1.00  0.00    -0.400 C  
HETATM   11  O   UNL     1     -13.673   9.040  72.603  1.00  0.00    -0.470 OA 
HETATM   12  C   UNL     1     -11.718   9.107  71.206  1.00  0.00    -0.396 C  
HETATM   13  C   UNL     1     -12.929   9.780  71.763  1.00  0.00    -0.438 C  
HETATM   14  O   UNL     1     -13.248  10.923  71.470  1.00  0.00    -0.386 OA 
BRANCH  12  15
HETATM   15  C   UNL     1     -11.611   7.605  71.186  1.00  0.00    -0.301 C  
BRANCH  15  16
HETATM   16  C   UNL     1     -11.085   6.942  72.433  1.00  0.00    -0.260 A  
HETATM   17  C   UNL     1      -9.888   6.437  74.370  1.00  0.00    -0.338 A  
HETATM   18  C   UNL     1     -10.260   7.437  73.425  1.00  0.00    -0.402 A  
HETATM   19  C   UNL     1     -10.496   5.231  74.110  1.00  0.00    -0.283 A  
HETATM   20  S   UNL     1     -11.511   5.306  72.739  1.00  0.00    -0.176 SA 
ENDBRANCH  15  16
ENDBRANCH  12  15
ENDBRANCH   8  10
BRANCH   9  21
HETATM   21  C   UNL     1     -10.471   9.322  67.730  1.00  0.00    -0.255 C  
BRANCH  21  22
HETATM   22  C   UNL     1     -10.826  10.623  67.039  1.00  0.00    -0.298 A  
HETATM   23  C   UNL     1     -10.639  10.797  65.660  1.00  0.00    -0.199 A  
HETATM   24  C   UNL     1     -11.115  11.933  65.001  1.00  0.00    -0.360 A  
HETATM   25  C   UNL     1     -11.325  11.714  67.766  1.00  0.00    -0.356 A  
HETATM   26  O   UNL     1     -13.581  14.429  65.535  1.00  0.00    -0.390 OA 
HETATM   27  C   UNL     1     -11.810  12.853  67.117  1.00  0.00    -0.424 A  
HETATM   28  C   UNL     1     -11.769  12.929  65.724  1.00  0.00    -0.437 A  
HETATM   29  O   UNL     1     -11.966  14.507  63.950  1.00  0.00    -0.354 OA 
HETATM   30  C   UNL     1     -12.411  14.040  64.982  1.00  0.00    -0.441 C  
ENDBRANCH  21  22
ENDBRANCH   9  21
ENDBRANCH   4   5
ENDBRANCH   3   4
ENDBRANCH   2   3
TORSDOF 8
ENDMDL
MODEL       23
REMARK 921   NORMALIZED FREE ENERGY PREDICTED BY IDOCK:   -5.94 KCAL/MOL
REMARK 922        TOTAL FREE ENERGY PREDICTED BY IDOCK:  -10.83 KCAL/MOL
REMARK 923 INTER-LIGAND FREE ENERGY PREDICTED BY IDOCK:   -8.20 KCAL/MOL
REMARK 924 INTRA-LIGAND FREE ENERGY PREDICTED BY IDOCK:   -2.63 KCAL/MOL
REMARK 927      BINDING AFFINITY PREDICTED BY RF-SCORE:    0.00 PKD
ROOT
HETATM    1  C   UNL     1      -9.559  15.432  67.193  1.00  0.00    -0.218 C  
HETATM    2  C   UNL     1      -8.282  14.616  67.036  1.00  0.00    -0.188 C  
ENDROOT
BRANCH   2   3
HETATM    3  C   UNL     1      -8.189  13.564  68.142  1.00  0.00    -0.162 C  
BRANCH   3   4
HETATM    4  C   UNL     1      -7.229  12.406  67.884  1.00  0.00    -0.110 C  
BRANCH   4   5
HETATM    5  C   UNL     1      -7.592  11.135  68.584  1.00  0.00    -0.127 A  
HETATM    6  N   UNL     1      -7.139  10.851  69.789  1.00  0.00    -0.126 NA 
HETATM    7  C   UNL     1      -7.708   9.670  70.142  1.00  0.00    -0.170 A  
HETATM    8  C   UNL     1      -8.521   9.194  69.140  1.00  0.00    -0.132 A  
HETATM    9  N   UNL     1      -8.402  10.110  68.099  1.00  0.00    -0.116 NA 
BRANCH   8  10
HETATM   10  C   UNL     1      -9.381   8.082  69.092  1.00  0.00    -0.151 C  
HETATM   11  O   UNL     1     -12.229   6.445  70.463  1.00  0.00    -0.235 OA 
HETATM   12  C   UNL     1     -10.290   7.803  70.049  1.00  0.00    -0.221 C  
HETATM   13  C   UNL     1     -11.079   6.566  69.777  1.00  0.00    -0.370 C  
HETATM   14  O   UNL     1     -10.709   5.699  68.999  1.00  0.00    -0.267 OA 
BRANCH  12  15
HETATM   15  C   UNL     1     -10.499   8.589  71.317  1.00  0.00    -0.289 C  
BRANCH  15  16
HETATM   16  C   UNL     1     -11.483   9.728  71.258  1.00  0.00    -0.385 A  
HETATM   17  C   UNL     1     -12.508  11.790  70.886  1.00  0.00    -0.416 A  
HETATM   18  C   UNL     1     -11.427  10.921  70.562  1.00  0.00    -0.314 A  
HETATM   19  C   UNL     1     -13.392  11.208  71.765  1.00  0.00    -0.274 A  
HETATM   20  S   UNL     1     -12.923   9.622  72.191  1.00  0.00    -0.378 SA 
ENDBRANCH  15  16
ENDBRANCH  12  15
ENDBRANCH   8  10
BRANCH   9  21
HETATM   21  C   UNL     1      -8.822   9.913  66.702  1.00  0.00    -0.135 C  
BRANCH  21  22
HETATM   22  C   UNL     1      -9.865  10.894  66.204  1.00  0.00    -0.268 A  
HETATM   23  C   UNL     1     -10.997  11.214  66.967  1.00  0.00    -0.348 A  
HETATM   24  C   UNL     1     -11.868  12.234  66.580  1.00  0.00    -0.378 A  
HETATM   25  C   UNL     1      -9.746  11.494  64.942  1.00  0.00    -0.264 A  
HETATM   26  O   UNL     1     -11.766  15.125  64.524  1.00  0.00    -0.403 OA 
HETATM   27  C   UNL     1     -10.608  12.521  64.546  1.00  0.00    -0.363 A  
HETATM   28  C   UNL     1     -11.629  12.939  65.402  1.00  0.00    -0.386 A  
HETATM   29  O   UNL     1     -13.644  14.210  65.397  1.00  0.00    -0.568 OA 
HETATM   30  C   UNL     1     -12.467  14.123  65.099  1.00  0.00    -0.439 C  
ENDBRANCH  21  22
ENDBRANCH   9  21
ENDBRANCH   4   5
ENDBRANCH   3   4
ENDBRANCH   2   3
TORSDOF 8
ENDMDL
MODEL       24
REMARK 921   NORMALIZED FREE ENERGY PREDICTED BY IDOCK:   -5.90 KCAL/MOL
REMARK 922        TOTAL FREE ENERGY PREDICTED BY IDOCK:  -10.77 KCAL/MOL
REMARK 923 INTER-LIGAND FREE ENERGY PREDICTED BY IDOCK:   -8.44 KCAL/MOL
REMARK 924 INTRA-LIGAND FREE ENERGY PREDICTED BY IDOCK:   -2.33 KCAL/MOL
REMARK 927      BINDING AFFINITY PREDICTED BY RF-SCORE:    0.00 PKD
ROOT
HETATM    1  C   UNL     1      -7.924   9.892  64.493  1.00  0.00    -0.145 C  
HETATM    2  C   UNL     1      -8.821   9.929  63.263  1.00  0.00    -0.257 C  
ENDROOT
BRANCH   2   3
HETATM    3  C   UNL     1     -10.138  10.634  63.589  1.00  0.00    -0.311 C  
BRANCH   3   4
HETATM    4  C   UNL     1     -10.102  12.159  63.573  1.00  0.00    -0.410 C  
BRANCH   4   5
HETATM    5  C   UNL     1     -10.944  12.809  64.625  1.00  0.00    -0.327 A  
HETATM    6  N   UNL     1     -12.054  13.454  64.326  1.00  0.00    -0.448 NA 
HETATM    7  C   UNL     1     -12.590  13.856  65.507  1.00  0.00    -0.526 A  
HETATM    8  C   UNL     1     -11.801  13.472  66.565  1.00  0.00    -0.399 A  
HETATM    9  N   UNL     1     -10.697  12.844  65.996  1.00  0.00    -0.274 NA 
BRANCH   8  10
HETATM   10  C   UNL     1     -11.997  13.572  67.954  1.00  0.00    -0.372 C  
HETATM   11  O   UNL     1     -12.201  15.703  70.799  1.00  0.00    -0.368 OA 
HETATM   12  C   UNL     1     -11.764  14.698  68.659  1.00  0.00    -0.362 C  
HETATM   13  C   UNL     1     -12.040  14.554  70.119  1.00  0.00    -0.334 C  
HETATM   14  O   UNL     1     -12.100  13.469  70.680  1.00  0.00    -0.344 OA 
BRANCH  12  15
HETATM   15  C   UNL     1     -11.225  15.988  68.100  1.00  0.00    -0.325 C  
BRANCH  15  16
HETATM   16  C   UNL     1      -9.753  16.033  67.784  1.00  0.00    -0.221 A  
HETATM   17  C   UNL     1      -7.693  16.064  66.690  1.00  0.00    -0.239 A  
HETATM   18  C   UNL     1      -9.104  16.227  66.579  1.00  0.00    -0.302 A  
HETATM   19  C   UNL     1      -7.302  15.820  67.986  1.00  0.00    -0.125 A  
HETATM   20  S   UNL     1      -8.628  15.793  69.062  1.00  0.00    -0.250 SA 
ENDBRANCH  15  16
ENDBRANCH  12  15
ENDBRANCH   8  10
BRANCH   9  21
HETATM   21  C   UNL     1      -9.426  12.524  66.664  1.00  0.00    -0.242 C  
BRANCH  21  22
HETATM   22  C   UNL     1      -9.447  11.265  67.509  1.00  0.00    -0.177 A  
HETATM   23  C   UNL     1      -8.569  11.090  68.587  1.00  0.00    -0.157 A  
HETATM   24  C   UNL     1      -8.699  10.006  69.459  1.00  0.00    -0.205 A  
HETATM   25  C   UNL     1     -10.329  10.215  67.216  1.00  0.00    -0.291 A  
HETATM   26  O   UNL     1     -11.236   7.730  70.448  1.00  0.00    -0.266 OA 
HETATM   27  C   UNL     1     -10.473   9.129  68.085  1.00  0.00    -0.260 A  
HETATM   28  C   UNL     1      -9.703   9.064  69.248  1.00  0.00    -0.168 A  
HETATM   29  O   UNL     1      -9.035   7.527  70.941  1.00  0.00    -0.147 OA 
HETATM   30  C   UNL     1      -9.927   8.021  70.276  1.00  0.00    -0.189 C  
ENDBRANCH  21  22
ENDBRANCH   9  21
ENDBRANCH   4   5
ENDBRANCH   3   4
ENDBRANCH   2   3
TORSDOF 8
ENDMDL
MODEL       25
REMARK 921   NORMALIZED FREE ENERGY PREDICTED BY IDOCK:   -5.83 KCAL/MOL
REMARK 922        TOTAL FREE ENERGY PREDICTED BY IDOCK:  -10.68 KCAL/MOL
REMARK 923 INTER-LIGAND FREE ENERGY PREDICTED BY IDOCK:   -9.59 KCAL/MOL
REMARK 924 INTRA-LIGAND FREE ENERGY PREDICTED BY IDOCK:   -1.09 KCAL/MOL
REMARK 927      BINDING AFFINITY PREDICTED BY RF-SCORE:    0.00 PKD
ROOT
HETATM    1  C   UNL     1      -8.661  19.955  66.833  1.00  0.00    -0.391 C  
HETATM    2  C   UNL     1     -10.119  19.804  66.419  1.00  0.00    -0.600 C  
ENDROOT
BRANCH   2   3
HETATM    3  C   UNL     1     -10.719  18.545  67.046  1.00  0.00    -0.363 C  
BRANCH   3   4
HETATM    4  C   UNL     1     -10.392  17.230  66.347  1.00  0.00    -0.316 C  
BRANCH   4   5
HETATM    5  C   UNL     1     -10.037  16.109  67.273  1.00  0.00    -0.265 A  
HETATM    6  N   UNL     1      -8.990  16.172  68.071  1.00  0.00    -0.184 NA 
HETATM    7  C   UNL     1      -9.002  15.032  68.807  1.00  0.00    -0.196 A  
HETATM    8  C   UNL     1     -10.064  14.230  68.459  1.00  0.00    -0.246 A  
HETATM    9  N   UNL     1     -10.706  14.896  67.420  1.00  0.00    -0.285 NA 
BRANCH   8  10
HETATM   10  C   UNL     1     -10.535  13.024  69.008  1.00  0.00    -0.023 C  
HETATM   11  O   UNL     1     -13.283  11.252  70.416  1.00  0.00     0.106 OA 
HETATM   12  C   UNL     1     -11.723  12.906  69.635  1.00  0.00    -0.367 C  
HETATM   13  C   UNL     1     -11.997  11.527  70.138  1.00  0.00    -0.369 C  
HETATM   14  O   UNL     1     -11.116  10.697  70.311  1.00  0.00    -0.292 OA 
BRANCH  12  15
HETATM   15  C   UNL     1     -12.698  14.026  69.886  1.00  0.00    -0.059 C  
BRANCH  15  16
HETATM   16  C   UNL     1     -12.585  14.747  71.204  1.00  0.00    -0.337 A  
HETATM   17  C   UNL     1     -11.915  16.147  72.945  1.00  0.00    -0.623 A  
HETATM   18  C   UNL     1     -11.847  15.863  71.550  1.00  0.00    -0.536 A  
HETATM   19  C   UNL     1     -12.756  15.284  73.607  1.00  0.00    -0.566 A  
HETATM   20  S   UNL     1     -13.462  14.141  72.552  1.00  0.00    -0.548 SA 
ENDBRANCH  15  16
ENDBRANCH  12  15
ENDBRANCH   8  10
BRANCH   9  21
HETATM   21  C   UNL     1     -11.707  14.332  66.499  1.00  0.00    -0.394 C  
BRANCH  21  22
HETATM   22  C   UNL     1     -11.225  13.155  65.674  1.00  0.00    -0.306 A  
HETATM   23  C   UNL     1     -10.716  13.324  64.379  1.00  0.00    -0.432 A  
HETATM   24  C   UNL     1     -10.126  12.264  63.687  1.00  0.00    -0.369 A  
HETATM   25  C   UNL     1     -11.303  11.846  66.172  1.00  0.00    -0.383 A  
HETATM   26  O   UNL     1      -8.605   9.154  64.465  1.00  0.00    -0.173 OA 
HETATM   27  C   UNL     1     -10.710  10.778  65.492  1.00  0.00    -0.145 A  
HETATM   28  C   UNL     1     -10.056  11.004  64.279  1.00  0.00    -0.398 A  
HETATM   29  O   UNL     1      -9.203   9.831  62.389  1.00  0.00    -0.287 OA 
HETATM   30  C   UNL     1      -9.280   9.942  63.599  1.00  0.00    -0.240 C  
ENDBRANCH  21  22
ENDBRANCH   9  21
ENDBRANCH   4   5
ENDBRANCH   3   4
ENDBRANCH   2   3
TORSDOF 8
ENDMDL
MODEL       26
REMARK 921   NORMALIZED FREE ENERGY PREDICTED BY IDOCK:   -5.82 KCAL/MOL
REMARK 922        TOTAL FREE ENERGY PREDICTED BY IDOCK:  -10.65 KCAL/MOL
REMARK 923 INTER-LIGAND FREE ENERGY PREDICTED BY IDOCK:   -9.04 KCAL/MOL
REMARK 924 INTRA-LIGAND FREE ENERGY PREDICTED BY IDOCK:   -1.62 KCAL/MOL
REMARK 927      BINDING AFFINITY PREDICTED BY RF-SCORE:    0.00 PKD
ROOT
HETATM    1  C   UNL     1     -12.553  11.990  63.648  1.00  0.00    -0.605 C  
HETATM    2  C   UNL     1     -11.392  12.941  63.913  1.00  0.00    -0.489 C  
ENDROOT
BRANCH   2   3
HETATM    3  C   UNL     1     -10.080  12.160  64.007  1.00  0.00    -0.357 C  
BRANCH   3   4
HETATM    4  C   UNL     1      -9.868  11.361  65.288  1.00  0.00    -0.290 C  
BRANCH   4   5
HETATM    5  C   UNL     1      -9.735  12.195  66.523  1.00  0.00    -0.223 A  
HETATM    6  N   UNL     1      -8.686  12.964  66.733  1.00  0.00    -0.157 NA 
HETATM    7  C   UNL     1      -8.920  13.618  67.899  1.00  0.00    -0.195 A  
HETATM    8  C   UNL     1     -10.128  13.248  68.440  1.00  0.00    -0.237 A  
HETATM    9  N   UNL     1     -10.636  12.277  67.583  1.00  0.00    -0.211 NA 
BRANCH   8  10
HETATM   10  C   UNL     1     -10.828  13.725  69.563  1.00  0.00    -0.003 C  
HETATM   11  O   UNL     1     -13.337  15.921  70.812  1.00  0.00    -0.460 OA 
HETATM   12  C   UNL     1     -11.631  14.808  69.534  1.00  0.00    -0.339 C  
HETATM   13  C   UNL     1     -12.257  15.121  70.852  1.00  0.00    -0.342 C  
HETATM   14  O   UNL     1     -11.817  14.701  71.913  1.00  0.00    -0.324 OA 
BRANCH  12  15
HETATM   15  C   UNL     1     -11.872  15.690  68.338  1.00  0.00    -0.211 C  
BRANCH  15  16
HETATM   16  C   UNL     1     -10.845  16.756  68.057  1.00  0.00    -0.341 A  
HETATM   17  C   UNL     1      -9.434  18.607  68.211  1.00  0.00    -0.369 A  
HETATM   18  C   UNL     1     -10.268  17.684  68.905  1.00  0.00    -0.354 A  
HETATM   19  C   UNL     1      -9.344  18.314  66.870  1.00  0.00    -0.286 A  
HETATM   20  S   UNL     1     -10.256  16.932  66.452  1.00  0.00    -0.313 SA 
ENDBRANCH  15  16
ENDBRANCH  12  15
ENDBRANCH   8  10
BRANCH   9  21
HETATM   21  C   UNL     1     -11.745  11.350  67.862  1.00  0.00    -0.228 C  
BRANCH  21  22
HETATM   22  C   UNL     1     -11.503  10.390  69.010  1.00  0.00    -0.258 A  
HETATM   23  C   UNL     1     -12.081  10.593  70.271  1.00  0.00    -0.423 A  
HETATM   24  C   UNL     1     -11.988   9.626  71.275  1.00  0.00    -0.462 A  
HETATM   25  C   UNL     1     -10.661   9.279  68.856  1.00  0.00    -0.182 A  
HETATM   26  O   UNL     1     -11.401   6.133  71.501  1.00  0.00    -0.284 OA 
HETATM   27  C   UNL     1     -10.565   8.302  69.851  1.00  0.00    -0.232 A  
HETATM   28  C   UNL     1     -11.290   8.444  71.036  1.00  0.00    -0.303 A  
HETATM   29  O   UNL     1     -11.407   7.572  73.250  1.00  0.00    -0.296 OA 
HETATM   30  C   UNL     1     -11.347   7.367  72.051  1.00  0.00    -0.264 C  
ENDBRANCH  21  22
ENDBRANCH   9  21
ENDBRANCH   4   5
ENDBRANCH   3   4
ENDBRANCH   2   3
TORSDOF 8
ENDMDL
MODEL       27
REMARK 921   NORMALIZED FREE ENERGY PREDICTED BY IDOCK:   -5.80 KCAL/MOL
REMARK 922        TOTAL FREE ENERGY PREDICTED BY IDOCK:  -10.63 KCAL/MOL
REMARK 923 INTER-LIGAND FREE ENERGY PREDICTED BY IDOCK:   -8.19 KCAL/MOL
REMARK 924 INTRA-LIGAND FREE ENERGY PREDICTED BY IDOCK:   -2.43 KCAL/MOL
REMARK 927      BINDING AFFINITY PREDICTED BY RF-SCORE:    0.00 PKD
ROOT
HETATM    1  C   UNL     1     -11.264  15.951  64.518  1.00  0.00    -0.324 C  
HETATM    2  C   UNL     1     -12.107  14.687  64.402  1.00  0.00    -0.481 C  
ENDROOT
BRANCH   2   3
HETATM    3  C   UNL     1     -11.217  13.447  64.492  1.00  0.00    -0.393 C  
BRANCH   3   4
HETATM    4  C   UNL     1     -11.761  12.294  65.330  1.00  0.00    -0.413 C  
BRANCH   4   5
HETATM    5  C   UNL     1     -10.709  11.440  65.963  1.00  0.00    -0.263 A  
HETATM    6  N   UNL     1     -10.203  10.389  65.348  1.00  0.00    -0.285 NA 
HETATM    7  C   UNL     1      -9.244   9.892  66.170  1.00  0.00    -0.168 A  
HETATM    8  C   UNL     1      -9.152  10.631  67.327  1.00  0.00    -0.143 A  
HETATM    9  N   UNL     1     -10.143  11.602  67.226  1.00  0.00    -0.198 NA 
BRANCH   8  10
HETATM   10  C   UNL     1      -8.251  10.559  68.404  1.00  0.00    -0.121 C  
HETATM   11  O   UNL     1      -6.991   8.640  71.126  1.00  0.00    -0.062 OA 
HETATM   12  C   UNL     1      -8.299   9.600  69.352  1.00  0.00    -0.145 C  
HETATM   13  C   UNL     1      -7.242   9.741  70.396  1.00  0.00    -0.142 C  
HETATM   14  O   UNL     1      -6.646  10.789  70.601  1.00  0.00    -0.332 OA 
BRANCH  12  15
HETATM   15  C   UNL     1      -9.325   8.501  69.436  1.00  0.00    -0.154 C  
BRANCH  15  16
HETATM   16  C   UNL     1     -10.439   8.683  70.434  1.00  0.00    -0.208 A  
HETATM   17  C   UNL     1     -12.077   9.587  71.827  1.00  0.00    -0.459 A  
HETATM   18  C   UNL     1     -11.217   9.792  70.710  1.00  0.00    -0.419 A  
HETATM   19  C   UNL     1     -11.981   8.308  72.324  1.00  0.00    -0.386 A  
HETATM   20  S   UNL     1     -10.864   7.361  71.446  1.00  0.00    -0.230 SA 
ENDBRANCH  15  16
ENDBRANCH  12  15
ENDBRANCH   8  10
BRANCH   9  21
HETATM   21  C   UNL     1     -10.662  12.445  68.316  1.00  0.00    -0.230 C  
BRANCH  21  22
HETATM   22  C   UNL     1     -10.519  13.937  68.092  1.00  0.00    -0.246 A  
HETATM   23  C   UNL     1     -11.602  14.812  68.257  1.00  0.00    -0.348 A  
HETATM   24  C   UNL     1     -11.430  16.197  68.210  1.00  0.00    -0.259 A  
HETATM   25  C   UNL     1      -9.298  14.491  67.680  1.00  0.00    -0.202 A  
HETATM   26  O   UNL     1      -8.784  18.523  68.641  1.00  0.00    -0.327 OA 
HETATM   27  C   UNL     1      -9.112  15.876  67.635  1.00  0.00    -0.200 A  
HETATM   28  C   UNL     1     -10.164  16.730  67.972  1.00  0.00    -0.300 A  
HETATM   29  O   UNL     1     -10.827  19.011  67.793  1.00  0.00    -0.396 OA 
HETATM   30  C   UNL     1      -9.975  18.194  68.093  1.00  0.00    -0.359 C  
ENDBRANCH  21  22
ENDBRANCH   9  21
ENDBRANCH   4   5
ENDBRANCH   3   4
ENDBRANCH   2   3
TORSDOF 8
ENDMDL
MODEL       28
REMARK 921   NORMALIZED FREE ENERGY PREDICTED BY IDOCK:   -5.79 KCAL/MOL
REMARK 922        TOTAL FREE ENERGY PREDICTED BY IDOCK:  -10.62 KCAL/MOL
REMARK 923 INTER-LIGAND FREE ENERGY PREDICTED BY IDOCK:   -8.91 KCAL/MOL
REMARK 924 INTRA-LIGAND FREE ENERGY PREDICTED BY IDOCK:   -1.70 KCAL/MOL
REMARK 927      BINDING AFFINITY PREDICTED BY RF-SCORE:    0.00 PKD
ROOT
HETATM    1  C   UNL     1     -11.580   8.148  72.462  1.00  0.00    -0.468 C  
HETATM    2  C   UNL     1     -12.645   8.985  71.765  1.00  0.00    -0.434 C  
ENDROOT
BRANCH   2   3
HETATM    3  C   UNL     1     -12.002  10.187  71.071  1.00  0.00    -0.474 C  
BRANCH   3   4
HETATM    4  C   UNL     1     -10.581   9.980  70.556  1.00  0.00    -0.313 C  
BRANCH   4   5
HETATM    5  C   UNL     1     -10.492   9.682  69.093  1.00  0.00    -0.214 A  
HETATM    6  N   UNL     1     -10.728   8.477  68.613  1.00  0.00    -0.107 NA 
HETATM    7  C   UNL     1     -10.622   8.576  67.264  1.00  0.00    -0.245 A  
HETATM    8  C   UNL     1     -10.301   9.859  66.886  1.00  0.00    -0.235 A  
HETATM    9  N   UNL     1     -10.154  10.569  68.073  1.00  0.00    -0.161 NA 
BRANCH   8  10
HETATM   10  C   UNL     1     -10.190  10.452  65.615  1.00  0.00    -0.308 C  
HETATM   11  O   UNL     1      -8.476  10.538  62.496  1.00  0.00    -0.166 OA 
HETATM   12  C   UNL     1      -9.148  10.242  64.785  1.00  0.00    -0.256 C  
HETATM   13  C   UNL     1      -9.254  10.988  63.496  1.00  0.00    -0.221 C  
HETATM   14  O   UNL     1      -9.981  11.959  63.349  1.00  0.00    -0.409 OA 
BRANCH  12  15
HETATM   15  C   UNL     1      -7.939   9.396  65.089  1.00  0.00    -0.116 C  
BRANCH  15  16
HETATM   16  C   UNL     1      -7.067   9.839  66.235  1.00  0.00    -0.095 A  
HETATM   17  C   UNL     1      -5.570  10.999  67.596  1.00  0.00    -0.043 A  
HETATM   18  C   UNL     1      -6.399  11.032  66.438  1.00  0.00    -0.133 A  
HETATM   19  C   UNL     1      -5.683   9.809  68.278  1.00  0.00    -0.043 A  
HETATM   20  S   UNL     1      -6.786   8.743  67.528  1.00  0.00    -0.071 SA 
ENDBRANCH  15  16
ENDBRANCH  12  15
ENDBRANCH   8  10
BRANCH   9  21
HETATM   21  C   UNL     1      -9.525  11.890  68.236  1.00  0.00    -0.197 C  
BRANCH  21  22
HETATM   22  C   UNL     1     -10.108  12.987  67.367  1.00  0.00    -0.231 A  
HETATM   23  C   UNL     1      -9.288  13.903  66.692  1.00  0.00    -0.282 A  
HETATM   24  C   UNL     1      -9.819  14.807  65.768  1.00  0.00    -0.373 A  
HETATM   25  C   UNL     1     -11.495  13.142  67.236  1.00  0.00    -0.375 A  
HETATM   26  O   UNL     1     -12.724  15.086  63.750  1.00  0.00    -0.741 OA 
HETATM   27  C   UNL     1     -12.038  14.039  66.311  1.00  0.00    -0.482 A  
HETATM   28  C   UNL     1     -11.191  14.821  65.523  1.00  0.00    -0.346 A  
HETATM   29  O   UNL     1     -11.223  16.742  64.114  1.00  0.00    -1.155 OA 
HETATM   30  C   UNL     1     -11.707  15.668  64.423  1.00  0.00    -0.218 C  
ENDBRANCH  21  22
ENDBRANCH   9  21
ENDBRANCH   4   5
ENDBRANCH   3   4
ENDBRANCH   2   3
TORSDOF 8
ENDMDL
MODEL       29
REMARK 921   NORMALIZED FREE ENERGY PREDICTED BY IDOCK:   -5.78 KCAL/MOL
REMARK 922        TOTAL FREE ENERGY PREDICTED BY IDOCK:  -10.60 KCAL/MOL
REMARK 923 INTER-LIGAND FREE ENERGY PREDICTED BY IDOCK:   -8.56 KCAL/MOL
REMARK 924 INTRA-LIGAND FREE ENERGY PREDICTED BY IDOCK:   -2.04 KCAL/MOL
REMARK 927      BINDING AFFINITY PREDICTED BY RF-SCORE:    0.00 PKD
ROOT
HETATM    1  C   UNL     1     -10.389  11.766  63.325  1.00  0.00    -0.446 C  
HETATM    2  C   UNL     1     -11.881  11.889  63.605  1.00  0.00    -0.573 C  
ENDROOT
BRANCH   2   3
HETATM    3  C   UNL     1     -12.263  13.357  63.800  1.00  0.00    -0.482 C  
BRANCH   3   4
HETATM    4  C   UNL     1     -12.670  13.760  65.213  1.00  0.00    -0.481 C  
BRANCH   4   5
HETATM    5  C   UNL     1     -11.784  13.217  66.290  1.00  0.00    -0.369 A  
HETATM    6  N   UNL     1     -12.234  12.378  67.202  1.00  0.00    -0.418 NA 
HETATM    7  C   UNL     1     -11.166  12.044  67.971  1.00  0.00    -0.258 A  
HETATM    8  C   UNL     1     -10.029  12.691  67.548  1.00  0.00    -0.205 A  
HETATM    9  N   UNL     1     -10.436  13.503  66.494  1.00  0.00    -0.281 NA 
BRANCH   8  10
HETATM   10  C   UNL     1      -8.690  12.583  67.963  1.00  0.00    -0.186 C  
HETATM   11  O   UNL     1      -5.419  11.384  67.227  1.00  0.00    -0.047 OA 
HETATM   12  C   UNL     1      -7.786  11.784  67.359  1.00  0.00    -0.151 C  
HETATM   13  C   UNL     1      -6.433  11.835  67.987  1.00  0.00    -0.056 C  
HETATM   14  O   UNL     1      -6.243  12.239  69.125  1.00  0.00    -0.075 OA 
BRANCH  12  15
HETATM   15  C   UNL     1      -8.063  10.867  66.197  1.00  0.00    -0.160 C  
BRANCH  15  16
HETATM   16  C   UNL     1      -8.661   9.521  66.518  1.00  0.00    -0.134 A  
HETATM   17  C   UNL     1     -10.133   7.745  66.859  1.00  0.00    -0.356 A  
HETATM   18  C   UNL     1      -9.928   9.027  66.272  1.00  0.00    -0.352 A  
HETATM   19  C   UNL     1      -8.998   7.271  67.473  1.00  0.00    -0.122 A  
HETATM   20  S   UNL     1      -7.692   8.363  67.339  1.00  0.00    -0.099 SA 
ENDBRANCH  15  16
ENDBRANCH  12  15
ENDBRANCH   8  10
BRANCH   9  21
HETATM   21  C   UNL     1      -9.678  14.614  65.896  1.00  0.00    -0.310 C  
BRANCH  21  22
HETATM   22  C   UNL     1      -9.965  15.978  66.491  1.00  0.00    -0.293 A  
HETATM   23  C   UNL     1      -9.866  16.214  67.869  1.00  0.00    -0.235 A  
HETATM   24  C   UNL     1      -9.973  17.504  68.394  1.00  0.00    -0.335 A  
HETATM   25  C   UNL     1     -10.373  17.047  65.680  1.00  0.00    -0.226 A  
HETATM   26  O   UNL     1      -9.586  20.839  67.244  1.00  0.00    -0.457 OA 
HETATM   27  C   UNL     1     -10.477  18.344  66.192  1.00  0.00    -0.422 A  
HETATM   28  C   UNL     1     -10.205  18.582  67.541  1.00  0.00    -0.414 A  
HETATM   29  O   UNL     1     -10.503  20.240  69.225  1.00  0.00    -0.181 OA 
HETATM   30  C   UNL     1     -10.147  19.953  68.097  1.00  0.00    -0.441 C  
ENDBRANCH  21  22
ENDBRANCH   9  21
ENDBRANCH   4   5
ENDBRANCH   3   4
ENDBRANCH   2   3
TORSDOF 8
ENDMDL
MODEL       30
REMARK 921   NORMALIZED FREE ENERGY PREDICTED BY IDOCK:   -5.78 KCAL/MOL
REMARK 922        TOTAL FREE ENERGY PREDICTED BY IDOCK:  -10.59 KCAL/MOL
REMARK 923 INTER-LIGAND FREE ENERGY PREDICTED BY IDOCK:   -9.11 KCAL/MOL
REMARK 924 INTRA-LIGAND FREE ENERGY PREDICTED BY IDOCK:   -1.48 KCAL/MOL
REMARK 927      BINDING AFFINITY PREDICTED BY RF-SCORE:    0.00 PKD
ROOT
HETATM    1  C   UNL     1      -6.318  10.634  67.763  1.00  0.00    -0.059 C  
HETATM    2  C   UNL     1      -6.852  12.048  67.572  1.00  0.00    -0.128 C  
ENDROOT
BRANCH   2   3
HETATM    3  C   UNL     1      -6.259  12.984  68.626  1.00  0.00    -0.079 C  
BRANCH   3   4
HETATM    4  C   UNL     1      -7.128  14.172  69.029  1.00  0.00    -0.111 C  
BRANCH   4   5
HETATM    5  C   UNL     1      -7.931  14.758  67.911  1.00  0.00    -0.140 A  
HETATM    6  N   UNL     1      -7.482  15.762  67.184  1.00  0.00    -0.213 NA 
HETATM    7  C   UNL     1      -8.423  15.995  66.234  1.00  0.00    -0.302 A  
HETATM    8  C   UNL     1      -9.488  15.136  66.371  1.00  0.00    -0.296 A  
HETATM    9  N   UNL     1      -9.203  14.370  67.497  1.00  0.00    -0.193 NA 
BRANCH   8  10
HETATM   10  C   UNL     1     -10.628  14.937  65.572  1.00  0.00    -0.373 C  
HETATM   11  O   UNL     1     -12.449  12.726  63.457  1.00  0.00    -0.671 OA 
HETATM   12  C   UNL     1     -10.779  13.888  64.738  1.00  0.00    -0.437 C  
HETATM   13  C   UNL     1     -12.071  13.901  63.992  1.00  0.00    -0.396 C  
HETATM   14  O   UNL     1     -12.747  14.910  63.850  1.00  0.00    -0.789 OA 
BRANCH  12  15
HETATM   15  C   UNL     1      -9.759  12.807  64.495  1.00  0.00     0.091 C  
BRANCH  15  16
HETATM   16  C   UNL     1      -9.910  11.535  65.289  1.00  0.00    -0.250 A  
HETATM   17  C   UNL     1     -10.484   9.956  66.906  1.00  0.00    -0.284 A  
HETATM   18  C   UNL     1     -10.749  11.239  66.347  1.00  0.00    -0.320 A  
HETATM   19  C   UNL     1      -9.501   9.286  66.216  1.00  0.00    -0.224 A  
HETATM   20  S   UNL     1      -8.906  10.196  64.900  1.00  0.00    -0.207 SA 
ENDBRANCH  15  16
ENDBRANCH  12  15
ENDBRANCH   8  10
BRANCH   9  21
HETATM   21  C   UNL     1     -10.146  13.522  68.245  1.00  0.00    -0.247 C  
BRANCH  21  22
HETATM   22  C   UNL     1     -11.013  14.260  69.246  1.00  0.00    -0.271 A  
HETATM   23  C   UNL     1     -12.241  13.739  69.677  1.00  0.00    -0.359 A  
HETATM   24  C   UNL     1     -12.958  14.338  70.716  1.00  0.00    -0.368 A  
HETATM   25  C   UNL     1     -10.627  15.509  69.751  1.00  0.00    -0.301 A  
HETATM   26  O   UNL     1     -12.292  16.498  73.452  1.00  0.00    -0.466 OA 
HETATM   27  C   UNL     1     -11.333  16.115  70.795  1.00  0.00    -0.397 A  
HETATM   28  C   UNL     1     -12.462  15.489  71.326  1.00  0.00    -0.486 A  
HETATM   29  O   UNL     1     -14.354  15.939  72.702  1.00  0.00    -0.476 OA 
HETATM   30  C   UNL     1     -13.150  16.007  72.531  1.00  0.00    -0.360 C  
ENDBRANCH  21  22
ENDBRANCH   9  21
ENDBRANCH   4   5
ENDBRANCH   3   4
ENDBRANCH   2   3
TORSDOF 8
ENDMDL
MODEL       31
REMARK 921   NORMALIZED FREE ENERGY PREDICTED BY IDOCK:   -5.76 KCAL/MOL
REMARK 922        TOTAL FREE ENERGY PREDICTED BY IDOCK:  -10.57 KCAL/MOL
REMARK 923 INTER-LIGAND FREE ENERGY PREDICTED BY IDOCK:   -8.66 KCAL/MOL
REMARK 924 INTRA-LIGAND FREE ENERGY PREDICTED BY IDOCK:   -1.92 KCAL/MOL
REMARK 927      BINDING AFFINITY PREDICTED BY RF-SCORE:    0.00 PKD
ROOT
HETATM    1  C   UNL     1      -9.659   7.784  71.890  1.00  0.00    -0.210 C  
HETATM    2  C   UNL     1     -10.467   8.778  71.066  1.00  0.00    -0.293 C  
ENDROOT
BRANCH   2   3
HETATM    3  C   UNL     1      -9.532   9.680  70.259  1.00  0.00    -0.300 C  
BRANCH   3   4
HETATM    4  C   UNL     1      -9.680   9.610  68.742  1.00  0.00    -0.167 C  
BRANCH   4   5
HETATM    5  C   UNL     1      -9.327  10.876  68.028  1.00  0.00    -0.160 A  
HETATM    6  N   UNL     1      -8.075  11.248  67.850  1.00  0.00    -0.116 NA 
HETATM    7  C   UNL     1      -8.118  12.392  67.120  1.00  0.00    -0.167 A  
HETATM    8  C   UNL     1      -9.415  12.755  66.844  1.00  0.00    -0.235 A  
HETATM    9  N   UNL     1     -10.209  11.808  67.484  1.00  0.00    -0.194 NA 
BRANCH   8  10
HETATM   10  C   UNL     1      -9.940  13.789  66.048  1.00  0.00    -0.319 C  
HETATM   11  O   UNL     1     -10.289  17.296  65.548  1.00  0.00    -0.614 OA 
HETATM   12  C   UNL     1      -9.963  15.083  66.427  1.00  0.00    -0.295 C  
HETATM   13  C   UNL     1     -10.577  15.990  65.414  1.00  0.00    -0.408 C  
HETATM   14  O   UNL     1     -11.314  15.590  64.524  1.00  0.00    -0.399 OA 
BRANCH  12  15
HETATM   15  C   UNL     1      -9.482  15.618  67.750  1.00  0.00    -0.208 C  
BRANCH  15  16
HETATM   16  C   UNL     1      -8.122  16.266  67.771  1.00  0.00    -0.149 A  
HETATM   17  C   UNL     1      -5.824  16.660  67.705  1.00  0.00    -0.152 A  
HETATM   18  C   UNL     1      -6.888  15.761  67.406  1.00  0.00    -0.235 A  
HETATM   19  C   UNL     1      -6.283  17.848  68.224  1.00  0.00    -0.178 A  
HETATM   20  S   UNL     1      -7.986  17.880  68.344  1.00  0.00    -0.304 SA 
ENDBRANCH  15  16
ENDBRANCH  12  15
ENDBRANCH   8  10
BRANCH   9  21
HETATM   21  C   UNL     1     -11.652  11.908  67.754  1.00  0.00    -0.323 C  
BRANCH  21  22
HETATM   22  C   UNL     1     -12.019  12.729  68.975  1.00  0.00    -0.288 A  
HETATM   23  C   UNL     1     -12.250  12.128  70.221  1.00  0.00    -0.344 A  
HETATM   24  C   UNL     1     -12.427  12.897  71.374  1.00  0.00    -0.234 A  
HETATM   25  C   UNL     1     -12.171  14.120  68.890  1.00  0.00    -0.257 A  
HETATM   26  O   UNL     1     -11.630  16.171  72.488  1.00  0.00    -0.430 OA 
HETATM   27  C   UNL     1     -12.342  14.900  70.038  1.00  0.00    -0.358 A  
HETATM   28  C   UNL     1     -12.398  14.287  71.291  1.00  0.00    -0.439 A  
HETATM   29  O   UNL     1     -13.028  14.736  73.544  1.00  0.00    -0.525 OA 
HETATM   30  C   UNL     1     -12.419  15.075  72.546  1.00  0.00    -0.358 C  
ENDBRANCH  21  22
ENDBRANCH   9  21
ENDBRANCH   4   5
ENDBRANCH   3   4
ENDBRANCH   2   3
TORSDOF 8
ENDMDL
MODEL       32
REMARK 921   NORMALIZED FREE ENERGY PREDICTED BY IDOCK:   -5.72 KCAL/MOL
REMARK 922        TOTAL FREE ENERGY PREDICTED BY IDOCK:  -10.52 KCAL/MOL
REMARK 923 INTER-LIGAND FREE ENERGY PREDICTED BY IDOCK:   -8.15 KCAL/MOL
REMARK 924 INTRA-LIGAND FREE ENERGY PREDICTED BY IDOCK:   -2.37 KCAL/MOL
REMARK 927      BINDING AFFINITY PREDICTED BY RF-SCORE:    0.00 PKD
ROOT
HETATM    1  C   UNL     1      -9.924  19.825  68.726  1.00  0.00    -0.510 C  
HETATM    2  C   UNL     1     -10.402  19.312  67.374  1.00  0.00    -0.540 C  
ENDROOT
BRANCH   2   3
HETATM    3  C   UNL     1     -10.908  17.875  67.502  1.00  0.00    -0.239 C  
BRANCH   3   4
HETATM    4  C   UNL     1     -10.756  17.233  68.878  1.00  0.00    -0.197 C  
BRANCH   4   5
HETATM    5  C   UNL     1     -10.948  15.749  68.893  1.00  0.00    -0.283 A  
HETATM    6  N   UNL     1     -12.143  15.204  69.005  1.00  0.00    -0.254 NA 
HETATM    7  C   UNL     1     -11.958  13.862  68.919  1.00  0.00    -0.358 A  
HETATM    8  C   UNL     1     -10.627  13.554  68.765  1.00  0.00    -0.218 A  
HETATM    9  N   UNL     1      -9.957  14.773  68.808  1.00  0.00    -0.229 NA 
BRANCH   8  10
HETATM   10  C   UNL     1      -9.978  12.328  68.534  1.00  0.00    -0.175 C  
HETATM   11  O   UNL     1      -7.929  10.391  66.360  1.00  0.00    -0.120 OA 
HETATM   12  C   UNL     1      -9.431  11.986  67.350  1.00  0.00    -0.177 C  
HETATM   13  C   UNL     1      -8.806  10.631  67.350  1.00  0.00    -0.132 C  
HETATM   14  O   UNL     1      -9.079   9.775  68.180  1.00  0.00    -0.126 OA 
BRANCH  12  15
HETATM   15  C   UNL     1      -9.461  12.821  66.096  1.00  0.00    -0.169 C  
BRANCH  15  16
HETATM   16  C   UNL     1     -10.631  12.618  65.169  1.00  0.00    -0.298 A  
HETATM   17  C   UNL     1     -12.776  12.417  64.276  1.00  0.00    -0.437 A  
HETATM   18  C   UNL     1     -11.975  12.881  65.359  1.00  0.00    -0.470 A  
HETATM   19  C   UNL     1     -12.015  11.878  63.265  1.00  0.00    -0.337 A  
HETATM   20  S   UNL     1     -10.345  11.936  63.618  1.00  0.00    -0.477 SA 
ENDBRANCH  15  16
ENDBRANCH  12  15
ENDBRANCH   8  10
BRANCH   9  21
HETATM   21  C   UNL     1      -8.511  14.976  68.992  1.00  0.00    -0.200 C  
BRANCH  21  22
HETATM   22  C   UNL     1      -7.910  16.089  68.157  1.00  0.00    -0.142 A  
HETATM   23  C   UNL     1      -7.964  16.067  66.756  1.00  0.00    -0.302 A  
HETATM   24  C   UNL     1      -7.556  17.166  65.997  1.00  0.00    -0.185 A  
HETATM   25  C   UNL     1      -7.248  17.167  68.761  1.00  0.00    -0.232 A  
HETATM   26  O   UNL     1      -7.117  20.656  66.469  1.00  0.00    -0.264 OA 
HETATM   27  C   UNL     1      -6.841  18.276  68.013  1.00  0.00    -0.212 A  
HETATM   28  C   UNL     1      -7.063  18.303  66.634  1.00  0.00    -0.241 A  
HETATM   29  O   UNL     1      -6.393  19.480  64.674  1.00  0.00    -0.347 OA 
HETATM   30  C   UNL     1      -6.795  19.513  65.823  1.00  0.00    -0.278 C  
ENDBRANCH  21  22
ENDBRANCH   9  21
ENDBRANCH   4   5
ENDBRANCH   3   4
ENDBRANCH   2   3
TORSDOF 8
ENDMDL
MODEL       33
REMARK 921   NORMALIZED FREE ENERGY PREDICTED BY IDOCK:   -5.72 KCAL/MOL
REMARK 922        TOTAL FREE ENERGY PREDICTED BY IDOCK:  -10.51 KCAL/MOL
REMARK 923 INTER-LIGAND FREE ENERGY PREDICTED BY IDOCK:   -8.60 KCAL/MOL
REMARK 924 INTRA-LIGAND FREE ENERGY PREDICTED BY IDOCK:   -1.91 KCAL/MOL
REMARK 927      BINDING AFFINITY PREDICTED BY RF-SCORE:    0.00 PKD
ROOT
HETATM    1  C   UNL     1     -12.538  11.911  63.435  1.00  0.00    -0.555 C  
HETATM    2  C   UNL     1     -11.074  12.249  63.184  1.00  0.00    -0.217 C  
ENDROOT
BRANCH   2   3
HETATM    3  C   UNL     1     -10.169  11.276  63.941  1.00  0.00    -0.420 C  
BRANCH   3   4
HETATM    4  C   UNL     1     -10.778  10.622  65.178  1.00  0.00    -0.088 C  
BRANCH   4   5
HETATM    5  C   UNL     1      -9.780   9.992  66.098  1.00  0.00    -0.227 A  
HETATM    6  N   UNL     1      -9.191   8.849  65.808  1.00  0.00    -0.223 NA 
HETATM    7  C   UNL     1      -8.313   8.606  66.814  1.00  0.00    -0.108 A  
HETATM    8  C   UNL     1      -8.359   9.602  67.761  1.00  0.00    -0.121 A  
HETATM    9  N   UNL     1      -9.354  10.475  67.334  1.00  0.00    -0.143 NA 
BRANCH   8  10
HETATM   10  C   UNL     1      -7.575   9.830  68.907  1.00  0.00    -0.081 C  
HETATM   11  O   UNL     1      -6.523   8.643  72.094  1.00  0.00    -0.074 OA 
HETATM   12  C   UNL     1      -7.679   9.100  70.036  1.00  0.00    -0.088 C  
HETATM   13  C   UNL     1      -6.746   9.538  71.116  1.00  0.00    -0.001 C  
HETATM   14  O   UNL     1      -6.225  10.644  71.135  1.00  0.00    -0.344 OA 
BRANCH  12  15
HETATM   15  C   UNL     1      -8.655   7.978  70.270  1.00  0.00    -0.132 C  
BRANCH  15  16
HETATM   16  C   UNL     1      -9.971   8.340  70.908  1.00  0.00    -0.190 A  
HETATM   17  C   UNL     1     -11.943   9.423  71.522  1.00  0.00    -0.456 A  
HETATM   18  C   UNL     1     -10.881   9.326  70.577  1.00  0.00    -0.318 A  
HETATM   19  C   UNL     1     -11.849   8.465  72.504  1.00  0.00    -0.358 A  
HETATM   20  S   UNL     1     -10.491   7.452  72.284  1.00  0.00    -0.236 SA 
ENDBRANCH  15  16
ENDBRANCH  12  15
ENDBRANCH   8  10
BRANCH   9  21
HETATM   21  C   UNL     1     -10.002  11.529  68.132  1.00  0.00    -0.192 C  
BRANCH  21  22
HETATM   22  C   UNL     1     -10.443  12.747  67.345  1.00  0.00    -0.234 A  
HETATM   23  C   UNL     1      -9.514  13.607  66.742  1.00  0.00    -0.275 A  
HETATM   24  C   UNL     1      -9.925  14.632  65.886  1.00  0.00    -0.352 A  
HETATM   25  C   UNL     1     -11.801  13.072  67.220  1.00  0.00    -0.419 A  
HETATM   26  O   UNL     1     -12.753  15.396  63.883  1.00  0.00    -0.695 OA 
HETATM   27  C   UNL     1     -12.224  14.091  66.362  1.00  0.00    -0.492 A  
HETATM   28  C   UNL     1     -11.282  14.825  65.637  1.00  0.00    -0.343 A  
HETATM   29  O   UNL     1     -11.074  16.834  64.374  1.00  0.00    -1.072 OA 
HETATM   30  C   UNL     1     -11.683  15.804  64.601  1.00  0.00    -0.147 C  
ENDBRANCH  21  22
ENDBRANCH   9  21
ENDBRANCH   4   5
ENDBRANCH   3   4
ENDBRANCH   2   3
TORSDOF 8
ENDMDL
MODEL       34
REMARK 921   NORMALIZED FREE ENERGY PREDICTED BY IDOCK:   -5.72 KCAL/MOL
REMARK 922        TOTAL FREE ENERGY PREDICTED BY IDOCK:  -10.51 KCAL/MOL
REMARK 923 INTER-LIGAND FREE ENERGY PREDICTED BY IDOCK:   -9.62 KCAL/MOL
REMARK 924 INTRA-LIGAND FREE ENERGY PREDICTED BY IDOCK:   -0.89 KCAL/MOL
REMARK 927      BINDING AFFINITY PREDICTED BY RF-SCORE:    0.00 PKD
ROOT
HETATM    1  C   UNL     1     -11.762  13.981  65.568  1.00  0.00    -0.353 C  
HETATM    2  C   UNL     1     -12.156  12.595  66.063  1.00  0.00    -0.429 C  
ENDROOT
BRANCH   2   3
HETATM    3  C   UNL     1     -10.907  11.776  66.390  1.00  0.00    -0.325 C  
BRANCH   3   4
HETATM    4  C   UNL     1     -10.180  12.151  67.677  1.00  0.00    -0.206 C  
BRANCH   4   5
HETATM    5  C   UNL     1      -9.801  10.985  68.535  1.00  0.00    -0.192 A  
HETATM    6  N   UNL     1      -8.659  10.346  68.375  1.00  0.00    -0.123 NA 
HETATM    7  C   UNL     1      -8.613   9.400  69.348  1.00  0.00    -0.148 A  
HETATM    8  C   UNL     1      -9.747   9.433  70.125  1.00  0.00    -0.235 A  
HETATM    9  N   UNL     1     -10.551  10.420  69.564  1.00  0.00    -0.232 NA 
BRANCH   8  10
HETATM   10  C   UNL     1     -10.095   8.726  71.290  1.00  0.00    -0.336 C  
HETATM   11  O   UNL     1     -11.617   5.826  72.686  1.00  0.00    -0.300 OA 
HETATM   12  C   UNL     1     -10.918   7.658  71.294  1.00  0.00    -0.260 C  
HETATM   13  C   UNL     1     -11.140   7.083  72.654  1.00  0.00    -0.281 C  
HETATM   14  O   UNL     1     -10.927   7.708  73.682  1.00  0.00    -0.301 OA 
BRANCH  12  15
HETATM   15  C   UNL     1     -11.620   7.085  70.091  1.00  0.00    -0.273 C  
BRANCH  15  16
HETATM   16  C   UNL     1     -10.816   6.172  69.202  1.00  0.00    -0.351 A  
HETATM   17  C   UNL     1      -9.347   4.550  68.395  1.00  0.00    -0.194 A  
HETATM   18  C   UNL     1     -10.067   5.054  69.517  1.00  0.00    -0.301 A  
HETATM   19  C   UNL     1      -9.622   5.255  67.247  1.00  0.00    -0.137 A  
HETATM   20  S   UNL     1     -10.745   6.513  67.519  1.00  0.00    -0.359 SA 
ENDBRANCH  15  16
ENDBRANCH  12  15
ENDBRANCH   8  10
BRANCH   9  21
HETATM   21  C   UNL     1     -11.983  10.642  69.827  1.00  0.00    -0.291 C  
BRANCH  21  22
HETATM   22  C   UNL     1     -12.321  11.994  70.423  1.00  0.00    -0.317 A  
HETATM   23  C   UNL     1     -13.118  12.113  71.570  1.00  0.00    -0.357 A  
HETATM   24  C   UNL     1     -13.293  13.343  72.208  1.00  0.00    -0.641 A  
HETATM   25  C   UNL     1     -11.872  13.179  69.823  1.00  0.00    -0.386 A  
HETATM   26  O   UNL     1     -11.605  16.459  72.394  1.00  0.00    -0.435 OA 
HETATM   27  C   UNL     1     -12.036  14.416  70.454  1.00  0.00    -0.395 A  
HETATM   28  C   UNL     1     -12.687  14.485  71.687  1.00  0.00    -0.414 A  
HETATM   29  O   UNL     1     -13.698  16.060  73.161  1.00  0.00    -0.597 OA 
HETATM   30  C   UNL     1     -12.747  15.741  72.470  1.00  0.00    -0.451 C  
ENDBRANCH  21  22
ENDBRANCH   9  21
ENDBRANCH   4   5
ENDBRANCH   3   4
ENDBRANCH   2   3
TORSDOF 8
ENDMDL
MODEL       35
REMARK 921   NORMALIZED FREE ENERGY PREDICTED BY IDOCK:   -5.71 KCAL/MOL
REMARK 922        TOTAL FREE ENERGY PREDICTED BY IDOCK:  -10.50 KCAL/MOL
REMARK 923 INTER-LIGAND FREE ENERGY PREDICTED BY IDOCK:   -8.78 KCAL/MOL
REMARK 924 INTRA-LIGAND FREE ENERGY PREDICTED BY IDOCK:   -1.73 KCAL/MOL
REMARK 927      BINDING AFFINITY PREDICTED BY RF-SCORE:    0.00 PKD
ROOT
HETATM    1  C   UNL     1     -12.806   8.783  72.319  1.00  0.00    -0.465 C  
HETATM    2  C   UNL     1     -13.408   9.559  71.154  1.00  0.00    -0.314 C  
ENDROOT
BRANCH   2   3
HETATM    3  C   UNL     1     -12.707  10.909  70.999  1.00  0.00    -0.505 C  
BRANCH   3   4
HETATM    4  C   UNL     1     -12.133  11.210  69.619  1.00  0.00    -0.406 C  
BRANCH   4   5
HETATM    5  C   UNL     1     -10.907  10.425  69.274  1.00  0.00    -0.241 A  
HETATM    6  N   UNL     1     -10.038  10.054  70.193  1.00  0.00    -0.249 NA 
HETATM    7  C   UNL     1      -9.096   9.316  69.551  1.00  0.00    -0.160 A  
HETATM    8  C   UNL     1      -9.367   9.231  68.206  1.00  0.00    -0.134 A  
HETATM    9  N   UNL     1     -10.509  10.001  68.008  1.00  0.00    -0.203 NA 
BRANCH   8  10
HETATM   10  C   UNL     1      -8.742   8.502  67.178  1.00  0.00    -0.134 C  
HETATM   11  O   UNL     1      -8.991   5.847  64.819  1.00  0.00     0.075 OA 
HETATM   12  C   UNL     1      -9.231   7.346  66.683  1.00  0.00    -0.196 C  
HETATM   13  C   UNL     1      -8.387   6.757  65.602  1.00  0.00    -0.147 C  
HETATM   14  O   UNL     1      -7.213   7.057  65.439  1.00  0.00    -0.069 OA 
BRANCH  12  15
HETATM   15  C   UNL     1     -10.471   6.640  67.165  1.00  0.00    -0.358 C  
BRANCH  15  16
HETATM   16  C   UNL     1     -10.437   6.082  68.564  1.00  0.00    -0.234 A  
HETATM   17  C   UNL     1     -10.798   5.704  70.837  1.00  0.00    -0.294 A  
HETATM   18  C   UNL     1     -11.253   6.345  69.649  1.00  0.00    -0.483 A  
HETATM   19  C   UNL     1      -9.693   4.917  70.609  1.00  0.00    -0.201 A  
HETATM   20  S   UNL     1      -9.211   4.949  68.971  1.00  0.00    -0.128 SA 
ENDBRANCH  15  16
ENDBRANCH  12  15
ENDBRANCH   8  10
BRANCH   9  21
HETATM   21  C   UNL     1     -11.032  10.483  66.719  1.00  0.00    -0.080 C  
BRANCH  21  22
HETATM   22  C   UNL     1     -10.928  11.980  66.506  1.00  0.00    -0.337 A  
HETATM   23  C   UNL     1      -9.696  12.646  66.565  1.00  0.00    -0.256 A  
HETATM   24  C   UNL     1      -9.582  13.992  66.209  1.00  0.00    -0.284 A  
HETATM   25  C   UNL     1     -12.073  12.756  66.272  1.00  0.00    -0.400 A  
HETATM   26  O   UNL     1     -11.379  16.345  64.252  1.00  0.00    -0.892 OA 
HETATM   27  C   UNL     1     -11.971  14.102  65.909  1.00  0.00    -0.420 A  
HETATM   28  C   UNL     1     -10.713  14.701  65.808  1.00  0.00    -0.321 A  
HETATM   29  O   UNL     1      -9.691  16.849  65.675  1.00  0.00    -0.538 OA 
HETATM   30  C   UNL     1     -10.541  16.073  65.277  1.00  0.00    -0.402 C  
ENDBRANCH  21  22
ENDBRANCH   9  21
ENDBRANCH   4   5
ENDBRANCH   3   4
ENDBRANCH   2   3
TORSDOF 8
ENDMDL
MODEL       36
REMARK 921   NORMALIZED FREE ENERGY PREDICTED BY IDOCK:   -5.70 KCAL/MOL
REMARK 922        TOTAL FREE ENERGY PREDICTED BY IDOCK:  -10.48 KCAL/MOL
REMARK 923 INTER-LIGAND FREE ENERGY PREDICTED BY IDOCK:   -8.15 KCAL/MOL
REMARK 924 INTRA-LIGAND FREE ENERGY PREDICTED BY IDOCK:   -2.33 KCAL/MOL
REMARK 927      BINDING AFFINITY PREDICTED BY RF-SCORE:    0.00 PKD
ROOT
HETATM    1  C   UNL     1      -6.206  21.041  63.567  1.00  0.00    -0.315 C  
HETATM    2  C   UNL     1      -5.636  19.649  63.805  1.00  0.00    -0.326 C  
ENDROOT
BRANCH   2   3
HETATM    3  C   UNL     1      -6.339  18.985  64.989  1.00  0.00    -0.283 C  
BRANCH   3   4
HETATM    4  C   UNL     1      -7.083  19.922  65.936  1.00  0.00    -0.315 C  
BRANCH   4   5
HETATM    5  C   UNL     1      -8.411  19.408  66.396  1.00  0.00    -0.331 A  
HETATM    6  N   UNL     1      -9.524  19.680  65.746  1.00  0.00    -0.366 NA 
HETATM    7  C   UNL     1     -10.515  19.014  66.392  1.00  0.00    -0.446 A  
HETATM    8  C   UNL     1     -10.023  18.322  67.473  1.00  0.00    -0.335 A  
HETATM    9  N   UNL     1      -8.665  18.624  67.519  1.00  0.00    -0.268 NA 
BRANCH   8  10
HETATM   10  C   UNL     1     -10.642  17.425  68.362  1.00  0.00    -0.355 C  
HETATM   11  O   UNL     1     -10.998  14.050  69.439  1.00  0.00    -0.231 OA 
HETATM   12  C   UNL     1     -10.585  16.085  68.226  1.00  0.00    -0.283 C  
HETATM   13  C   UNL     1     -11.327  15.346  69.289  1.00  0.00    -0.315 C  
HETATM   14  O   UNL     1     -12.195  15.865  69.976  1.00  0.00    -0.325 OA 
BRANCH  12  15
HETATM   15  C   UNL     1      -9.903  15.344  67.106  1.00  0.00    -0.221 C  
BRANCH  15  16
HETATM   16  C   UNL     1     -10.789  14.741  66.048  1.00  0.00    -0.318 A  
HETATM   17  C   UNL     1     -12.248  14.427  64.255  1.00  0.00    -0.450 A  
HETATM   18  C   UNL     1     -11.363  15.317  64.929  1.00  0.00    -0.387 A  
HETATM   19  C   UNL     1     -12.270  13.181  64.837  1.00  0.00    -0.428 A  
HETATM   20  S   UNL     1     -11.226  13.084  66.185  1.00  0.00    -0.301 SA 
ENDBRANCH  15  16
ENDBRANCH  12  15
ENDBRANCH   8  10
BRANCH   9  21
HETATM   21  C   UNL     1      -7.749  18.387  68.647  1.00  0.00    -0.301 C  
BRANCH  21  22
HETATM   22  C   UNL     1      -7.028  17.054  68.616  1.00  0.00    -0.202 A  
HETATM   23  C   UNL     1      -7.288  16.056  69.565  1.00  0.00    -0.146 A  
HETATM   24  C   UNL     1      -6.744  14.776  69.439  1.00  0.00    -0.149 A  
HETATM   25  C   UNL     1      -6.047  16.787  67.650  1.00  0.00    -0.167 A  
HETATM   26  O   UNL     1      -5.422  12.735  66.854  1.00  0.00    -0.314 OA 
HETATM   27  C   UNL     1      -5.500  15.508  67.510  1.00  0.00    -0.012 A  
HETATM   28  C   UNL     1      -5.907  14.482  68.365  1.00  0.00    -0.105 A  
HETATM   29  O   UNL     1      -5.267  12.298  69.071  1.00  0.00    -0.055 OA 
HETATM   30  C   UNL     1      -5.479  13.078  68.160  1.00  0.00    -0.092 C  
ENDBRANCH  21  22
ENDBRANCH   9  21
ENDBRANCH   4   5
ENDBRANCH   3   4
ENDBRANCH   2   3
TORSDOF 8
ENDMDL
MODEL       37
REMARK 921   NORMALIZED FREE ENERGY PREDICTED BY IDOCK:   -5.69 KCAL/MOL
REMARK 922        TOTAL FREE ENERGY PREDICTED BY IDOCK:  -10.47 KCAL/MOL
REMARK 923 INTER-LIGAND FREE ENERGY PREDICTED BY IDOCK:   -8.36 KCAL/MOL
REMARK 924 INTRA-LIGAND FREE ENERGY PREDICTED BY IDOCK:   -2.11 KCAL/MOL
REMARK 927      BINDING AFFINITY PREDICTED BY RF-SCORE:    0.00 PKD
ROOT
HETATM    1  C   UNL     1     -14.409   7.482  71.462  1.00  0.00    -0.603 C  
HETATM    2  C   UNL     1     -13.928   8.782  72.095  1.00  0.00    -0.522 C  
ENDROOT
BRANCH   2   3
HETATM    3  C   UNL     1     -12.470   8.648  72.534  1.00  0.00    -0.372 C  
BRANCH   3   4
HETATM    4  C   UNL     1     -11.569   7.824  71.620  1.00  0.00    -0.304 C  
BRANCH   4   5
HETATM    5  C   UNL     1     -10.366   8.556  71.113  1.00  0.00    -0.215 A  
HETATM    6  N   UNL     1      -9.219   8.543  71.763  1.00  0.00    -0.222 NA 
HETATM    7  C   UNL     1      -8.342   9.244  71.001  1.00  0.00    -0.081 A  
HETATM    8  C   UNL     1      -8.946   9.719  69.860  1.00  0.00    -0.229 A  
HETATM    9  N   UNL     1     -10.278   9.328  69.957  1.00  0.00    -0.201 NA 
BRANCH   8  10
HETATM   10  C   UNL     1      -8.422  10.397  68.745  1.00  0.00    -0.132 C  
HETATM   11  O   UNL     1      -7.104  10.155  65.447  1.00  0.00    -0.131 OA 
HETATM   12  C   UNL     1      -7.827   9.773  67.708  1.00  0.00    -0.094 C  
HETATM   13  C   UNL     1      -7.345  10.708  66.648  1.00  0.00    -0.129 C  
HETATM   14  O   UNL     1      -7.157  11.899  66.849  1.00  0.00    -0.133 OA 
BRANCH  12  15
HETATM   15  C   UNL     1      -7.592   8.290  67.593  1.00  0.00    -0.098 C  
BRANCH  15  16
HETATM   16  C   UNL     1      -8.811   7.414  67.462  1.00  0.00    -0.127 A  
HETATM   17  C   UNL     1     -10.937   6.587  66.974  1.00  0.00    -0.466 A  
HETATM   18  C   UNL     1      -9.959   7.590  66.712  1.00  0.00    -0.307 A  
HETATM   19  C   UNL     1     -10.479   5.640  67.861  1.00  0.00    -0.211 A  
HETATM   20  S   UNL     1      -8.880   5.957  68.370  1.00  0.00    -0.109 SA 
ENDBRANCH  15  16
ENDBRANCH  12  15
ENDBRANCH   8  10
BRANCH   9  21
HETATM   21  C   UNL     1     -11.404   9.837  69.156  1.00  0.00     0.015 C  
BRANCH  21  22
HETATM   22  C   UNL     1     -11.807  11.267  69.455  1.00  0.00    -0.427 A  
HETATM   23  C   UNL     1     -12.302  11.643  70.712  1.00  0.00    -0.454 A  
HETATM   24  C   UNL     1     -12.518  12.985  71.034  1.00  0.00    -0.385 A  
HETATM   25  C   UNL     1     -11.726  12.260  68.469  1.00  0.00    -0.381 A  
HETATM   26  O   UNL     1     -11.386  16.160  69.924  1.00  0.00    -0.325 OA 
HETATM   27  C   UNL     1     -11.934  13.607  68.781  1.00  0.00    -0.394 A  
HETATM   28  C   UNL     1     -12.261  13.975  70.087  1.00  0.00    -0.425 A  
HETATM   29  O   UNL     1     -13.125  15.813  71.332  1.00  0.00    -0.493 OA 
HETATM   30  C   UNL     1     -12.337  15.394  70.505  1.00  0.00    -0.408 C  
ENDBRANCH  21  22
ENDBRANCH   9  21
ENDBRANCH   4   5
ENDBRANCH   3   4
ENDBRANCH   2   3
TORSDOF 8
ENDMDL
MODEL       38
REMARK 921   NORMALIZED FREE ENERGY PREDICTED BY IDOCK:   -5.69 KCAL/MOL
REMARK 922        TOTAL FREE ENERGY PREDICTED BY IDOCK:  -10.47 KCAL/MOL
REMARK 923 INTER-LIGAND FREE ENERGY PREDICTED BY IDOCK:   -8.59 KCAL/MOL
REMARK 924 INTRA-LIGAND FREE ENERGY PREDICTED BY IDOCK:   -1.88 KCAL/MOL
REMARK 927      BINDING AFFINITY PREDICTED BY RF-SCORE:    0.00 PKD
ROOT
HETATM    1  C   UNL     1      -7.220   7.242  69.733  1.00  0.00    -0.082 C  
HETATM    2  C   UNL     1      -6.395   8.425  69.243  1.00  0.00    -0.038 C  
ENDROOT
BRANCH   2   3
HETATM    3  C   UNL     1      -6.728   8.732  67.782  1.00  0.00    -0.066 C  
BRANCH   3   4
HETATM    4  C   UNL     1      -6.715  10.206  67.389  1.00  0.00    -0.073 C  
BRANCH   4   5
HETATM    5  C   UNL     1      -7.659  10.559  66.284  1.00  0.00    -0.133 A  
HETATM    6  N   UNL     1      -7.404  10.252  65.027  1.00  0.00    -0.137 NA 
HETATM    7  C   UNL     1      -8.483  10.657  64.310  1.00  0.00    -0.067 A  
HETATM    8  C   UNL     1      -9.428  11.240  65.122  1.00  0.00    -0.215 A  
HETATM    9  N   UNL     1      -8.872  11.236  66.398  1.00  0.00    -0.178 NA 
BRANCH   8  10
HETATM   10  C   UNL     1     -10.726  11.706  64.849  1.00  0.00    -0.352 C  
HETATM   11  O   UNL     1     -12.776  14.456  63.896  1.00  0.00    -0.771 OA 
HETATM   12  C   UNL     1     -11.032  13.012  64.702  1.00  0.00    -0.364 C  
HETATM   13  C   UNL     1     -12.478  13.257  64.424  1.00  0.00    -0.290 C  
HETATM   14  O   UNL     1     -13.350  12.438  64.675  1.00  0.00    -0.778 OA 
BRANCH  12  15
HETATM   15  C   UNL     1     -10.069  14.161  64.845  1.00  0.00    -0.280 C  
BRANCH  15  16
HETATM   16  C   UNL     1     -10.221  15.031  66.065  1.00  0.00    -0.301 A  
HETATM   17  C   UNL     1     -11.036  16.095  67.974  1.00  0.00    -0.317 A  
HETATM   18  C   UNL     1     -11.177  15.008  67.063  1.00  0.00    -0.328 A  
HETATM   19  C   UNL     1      -9.939  16.872  67.684  1.00  0.00    -0.271 A  
HETATM   20  S   UNL     1      -9.082  16.291  66.326  1.00  0.00    -0.347 SA 
ENDBRANCH  15  16
ENDBRANCH  12  15
ENDBRANCH   8  10
BRANCH   9  21
HETATM   21  C   UNL     1      -9.338  12.007  67.562  1.00  0.00    -0.179 C  
BRANCH  21  22
HETATM   22  C   UNL     1     -10.179  11.226  68.552  1.00  0.00    -0.214 A  
HETATM   23  C   UNL     1      -9.603  10.306  69.440  1.00  0.00    -0.237 A  
HETATM   24  C   UNL     1     -10.355   9.711  70.456  1.00  0.00    -0.359 A  
HETATM   25  C   UNL     1     -11.572  11.375  68.590  1.00  0.00    -0.384 A  
HETATM   26  O   UNL     1     -13.347  10.388  72.239  1.00  0.00    -0.396 OA 
HETATM   27  C   UNL     1     -12.334  10.789  69.605  1.00  0.00    -0.262 A  
HETATM   28  C   UNL     1     -11.709  10.013  70.583  1.00  0.00    -0.421 A  
HETATM   29  O   UNL     1     -12.211   8.429  72.290  1.00  0.00    -0.351 OA 
HETATM   30  C   UNL     1     -12.443   9.502  71.764  1.00  0.00    -0.401 C  
ENDBRANCH  21  22
ENDBRANCH   9  21
ENDBRANCH   4   5
ENDBRANCH   3   4
ENDBRANCH   2   3
TORSDOF 8
ENDMDL
MODEL       39
REMARK 921   NORMALIZED FREE ENERGY PREDICTED BY IDOCK:   -5.69 KCAL/MOL
REMARK 922        TOTAL FREE ENERGY PREDICTED BY IDOCK:  -10.46 KCAL/MOL
REMARK 923 INTER-LIGAND FREE ENERGY PREDICTED BY IDOCK:   -8.49 KCAL/MOL
REMARK 924 INTRA-LIGAND FREE ENERGY PREDICTED BY IDOCK:   -1.97 KCAL/MOL
REMARK 927      BINDING AFFINITY PREDICTED BY RF-SCORE:    0.00 PKD
ROOT
HETATM    1  C   UNL     1     -12.349  15.443  74.521  1.00  0.00    -0.700 C  
HETATM    2  C   UNL     1     -12.872  15.780  73.130  1.00  0.00    -0.631 C  
ENDROOT
BRANCH   2   3
HETATM    3  C   UNL     1     -12.964  14.513  72.278  1.00  0.00    -0.441 C  
BRANCH   3   4
HETATM    4  C   UNL     1     -13.033  14.725  70.770  1.00  0.00    -0.407 C  
BRANCH   4   5
HETATM    5  C   UNL     1     -12.405  13.633  69.962  1.00  0.00    -0.278 A  
HETATM    6  N   UNL     1     -12.069  12.477  70.498  1.00  0.00    -0.345 NA 
HETATM    7  C   UNL     1     -11.593  11.710  69.484  1.00  0.00    -0.331 A  
HETATM    8  C   UNL     1     -11.616  12.396  68.292  1.00  0.00    -0.333 A  
HETATM    9  N   UNL     1     -12.085  13.668  68.606  1.00  0.00    -0.349 NA 
BRANCH   8  10
HETATM   10  C   UNL     1     -11.324  11.986  66.979  1.00  0.00    -0.396 C  
HETATM   11  O   UNL     1      -9.438   9.822  64.873  1.00  0.00    -0.264 OA 
HETATM   12  C   UNL     1     -10.289  11.181  66.664  1.00  0.00    -0.286 C  
HETATM   13  C   UNL     1     -10.182  10.893  65.204  1.00  0.00    -0.297 C  
HETATM   14  O   UNL     1     -10.713  11.587  64.349  1.00  0.00    -0.306 OA 
BRANCH  12  15
HETATM   15  C   UNL     1      -9.272  10.639  67.634  1.00  0.00    -0.153 C  
BRANCH  15  16
HETATM   16  C   UNL     1      -8.119  11.541  67.990  1.00  0.00    -0.136 A  
HETATM   17  C   UNL     1      -6.592  13.301  68.074  1.00  0.00    -0.129 A  
HETATM   18  C   UNL     1      -7.870  12.853  67.633  1.00  0.00    -0.168 A  
HETATM   19  C   UNL     1      -5.935  12.344  68.812  1.00  0.00    -0.066 A  
HETATM   20  S   UNL     1      -6.858  10.916  68.975  1.00  0.00    -0.090 SA 
ENDBRANCH  15  16
ENDBRANCH  12  15
ENDBRANCH   8  10
BRANCH   9  21
HETATM   21  C   UNL     1     -12.012  14.867  67.755  1.00  0.00    -0.162 C  
BRANCH  21  22
HETATM   22  C   UNL     1     -10.672  15.575  67.762  1.00  0.00    -0.297 A  
HETATM   23  C   UNL     1      -9.994  15.853  68.957  1.00  0.00    -0.233 A  
HETATM   24  C   UNL     1      -8.691  16.357  68.951  1.00  0.00    -0.253 A  
HETATM   25  C   UNL     1     -10.078  16.006  66.567  1.00  0.00    -0.297 A  
HETATM   26  O   UNL     1      -5.929  16.449  66.725  1.00  0.00    -0.326 OA 
HETATM   27  C   UNL     1      -8.773  16.506  66.548  1.00  0.00    -0.317 A  
HETATM   28  C   UNL     1      -8.053  16.613  67.739  1.00  0.00    -0.185 A  
HETATM   29  O   UNL     1      -6.104  17.648  68.638  1.00  0.00    -0.170 OA 
HETATM   30  C   UNL     1      -6.619  16.986  67.756  1.00  0.00    -0.145 C  
ENDBRANCH  21  22
ENDBRANCH   9  21
ENDBRANCH   4   5
ENDBRANCH   3   4
ENDBRANCH   2   3
TORSDOF 8
ENDMDL
MODEL       40
REMARK 921   NORMALIZED FREE ENERGY PREDICTED BY IDOCK:   -5.68 KCAL/MOL
REMARK 922        TOTAL FREE ENERGY PREDICTED BY IDOCK:  -10.45 KCAL/MOL
REMARK 923 INTER-LIGAND FREE ENERGY PREDICTED BY IDOCK:   -8.87 KCAL/MOL
REMARK 924 INTRA-LIGAND FREE ENERGY PREDICTED BY IDOCK:   -1.58 KCAL/MOL
REMARK 927      BINDING AFFINITY PREDICTED BY RF-SCORE:    0.00 PKD
ROOT
HETATM    1  C   UNL     1     -12.173   8.839  71.985  1.00  0.00    -0.447 C  
HETATM    2  C   UNL     1     -13.244   9.780  71.450  1.00  0.00    -0.482 C  
ENDROOT
BRANCH   2   3
HETATM    3  C   UNL     1     -12.678  11.192  71.296  1.00  0.00    -0.531 C  
BRANCH   3   4
HETATM    4  C   UNL     1     -12.329  11.621  69.874  1.00  0.00    -0.226 C  
BRANCH   4   5
HETATM    5  C   UNL     1     -12.011  13.076  69.728  1.00  0.00    -0.308 A  
HETATM    6  N   UNL     1     -11.789  13.848  70.773  1.00  0.00    -0.247 NA 
HETATM    7  C   UNL     1     -11.471  15.072  70.282  1.00  0.00    -0.269 A  
HETATM    8  C   UNL     1     -11.506  15.078  68.907  1.00  0.00    -0.314 A  
HETATM    9  N   UNL     1     -11.916  13.800  68.541  1.00  0.00    -0.370 NA 
BRANCH   8  10
HETATM   10  C   UNL     1     -11.157  16.071  67.974  1.00  0.00    -0.334 C  
HETATM   11  O   UNL     1      -8.709  17.320  65.711  1.00  0.00    -0.531 OA 
HETATM   12  C   UNL     1      -9.911  16.225  67.481  1.00  0.00    -0.248 C  
HETATM   13  C   UNL     1      -9.789  17.352  66.511  1.00  0.00    -0.304 C  
HETATM   14  O   UNL     1     -10.599  18.266  66.449  1.00  0.00    -0.374 OA 
BRANCH  12  15
HETATM   15  C   UNL     1      -8.707  15.409  67.871  1.00  0.00    -0.160 C  
BRANCH  15  16
HETATM   16  C   UNL     1      -7.672  16.087  68.731  1.00  0.00    -0.187 A  
HETATM   17  C   UNL     1      -6.229  17.645  69.695  1.00  0.00    -0.220 A  
HETATM   18  C   UNL     1      -7.377  17.429  68.879  1.00  0.00    -0.244 A  
HETATM   19  C   UNL     1      -5.726  16.469  70.199  1.00  0.00    -0.194 A  
HETATM   20  S   UNL     1      -6.636  15.114  69.696  1.00  0.00    -0.184 SA 
ENDBRANCH  15  16
ENDBRANCH  12  15
ENDBRANCH   8  10
BRANCH   9  21
HETATM   21  C   UNL     1     -12.400  13.376  67.217  1.00  0.00    -0.107 C  
BRANCH  21  22
HETATM   22  C   UNL     1     -11.377  12.655  66.363  1.00  0.00    -0.381 A  
HETATM   23  C   UNL     1     -10.841  11.418  66.746  1.00  0.00    -0.336 A  
HETATM   24  C   UNL     1     -10.025  10.682  65.883  1.00  0.00    -0.312 A  
HETATM   25  C   UNL     1     -10.906  13.221  65.169  1.00  0.00    -0.323 A  
HETATM   26  O   UNL     1      -9.412  10.481  62.394  1.00  0.00    -0.262 OA 
HETATM   27  C   UNL     1     -10.094  12.493  64.295  1.00  0.00    -0.298 A  
HETATM   28  C   UNL     1      -9.713  11.190  64.624  1.00  0.00    -0.308 A  
HETATM   29  O   UNL     1      -8.148   9.506  63.999  1.00  0.00    -0.133 OA 
HETATM   30  C   UNL     1      -8.988  10.322  63.667  1.00  0.00    -0.240 C  
ENDBRANCH  21  22
ENDBRANCH   9  21
ENDBRANCH   4   5
ENDBRANCH   3   4
ENDBRANCH   2   3
TORSDOF 8
ENDMDL
MODEL       41
REMARK 921   NORMALIZED FREE ENERGY PREDICTED BY IDOCK:   -5.68 KCAL/MOL
REMARK 922        TOTAL FREE ENERGY PREDICTED BY IDOCK:  -10.45 KCAL/MOL
REMARK 923 INTER-LIGAND FREE ENERGY PREDICTED BY IDOCK:   -9.09 KCAL/MOL
REMARK 924 INTRA-LIGAND FREE ENERGY PREDICTED BY IDOCK:   -1.36 KCAL/MOL
REMARK 927      BINDING AFFINITY PREDICTED BY RF-SCORE:    0.00 PKD
ROOT
HETATM    1  C   UNL     1      -5.653   9.583  69.495  1.00  0.00    -0.034 C  
HETATM    2  C   UNL     1      -6.618  10.448  70.296  1.00  0.00    -0.141 C  
ENDROOT
BRANCH   2   3
HETATM    3  C   UNL     1      -8.020   9.837  70.271  1.00  0.00    -0.185 C  
BRANCH   3   4
HETATM    4  C   UNL     1      -8.414   9.120  68.984  1.00  0.00    -0.132 C  
BRANCH   4   5
HETATM    5  C   UNL     1      -8.847  10.029  67.877  1.00  0.00    -0.125 A  
HETATM    6  N   UNL     1      -7.977  10.636  67.095  1.00  0.00    -0.119 NA 
HETATM    7  C   UNL     1      -8.704  11.320  66.175  1.00  0.00    -0.179 A  
HETATM    8  C   UNL     1     -10.052  11.154  66.387  1.00  0.00    -0.226 A  
HETATM    9  N   UNL     1     -10.154  10.366  67.529  1.00  0.00    -0.183 NA 
BRANCH   8  10
HETATM   10  C   UNL     1     -11.168  11.577  65.642  1.00  0.00    -0.212 C  
HETATM   11  O   UNL     1     -12.447  13.808  63.180  1.00  0.00    -0.786 OA 
HETATM   12  C   UNL     1     -11.184  12.705  64.903  1.00  0.00    -0.332 C  
HETATM   13  C   UNL     1     -12.484  12.944  64.210  1.00  0.00    -0.349 C  
HETATM   14  O   UNL     1     -13.529  12.412  64.556  1.00  0.00    -0.668 OA 
BRANCH  12  15
HETATM   15  C   UNL     1     -10.056  13.696  64.789  1.00  0.00    -0.268 C  
BRANCH  15  16
HETATM   16  C   UNL     1     -10.050  14.839  65.771  1.00  0.00    -0.339 A  
HETATM   17  C   UNL     1     -10.014  16.124  67.717  1.00  0.00    -0.237 A  
HETATM   18  C   UNL     1      -9.777  14.850  67.126  1.00  0.00    -0.229 A  
HETATM   19  C   UNL     1     -10.393  17.063  66.785  1.00  0.00    -0.302 A  
HETATM   20  S   UNL     1     -10.457  16.411  65.208  1.00  0.00    -0.153 SA 
ENDBRANCH  15  16
ENDBRANCH  12  15
ENDBRANCH   8  10
BRANCH   9  21
HETATM   21  C   UNL     1     -11.360  10.152  68.346  1.00  0.00    -0.113 C  
BRANCH  21  22
HETATM   22  C   UNL     1     -11.696  11.282  69.297  1.00  0.00    -0.403 A  
HETATM   23  C   UNL     1     -11.554  12.626  68.922  1.00  0.00    -0.363 A  
HETATM   24  C   UNL     1     -12.016  13.660  69.739  1.00  0.00    -0.404 A  
HETATM   25  C   UNL     1     -12.133  11.019  70.604  1.00  0.00    -0.471 A  
HETATM   26  O   UNL     1     -14.379  14.074  72.354  1.00  0.00    -0.614 OA 
HETATM   27  C   UNL     1     -12.604  12.045  71.428  1.00  0.00    -0.330 A  
HETATM   28  C   UNL     1     -12.611  13.362  70.963  1.00  0.00    -0.425 A  
HETATM   29  O   UNL     1     -12.820  15.601  71.749  1.00  0.00    -0.407 OA 
HETATM   30  C   UNL     1     -13.242  14.459  71.733  1.00  0.00    -0.358 C  
ENDBRANCH  21  22
ENDBRANCH   9  21
ENDBRANCH   4   5
ENDBRANCH   3   4
ENDBRANCH   2   3
TORSDOF 8
ENDMDL
MODEL       42
REMARK 921   NORMALIZED FREE ENERGY PREDICTED BY IDOCK:   -5.68 KCAL/MOL
REMARK 922        TOTAL FREE ENERGY PREDICTED BY IDOCK:  -10.45 KCAL/MOL
REMARK 923 INTER-LIGAND FREE ENERGY PREDICTED BY IDOCK:   -8.84 KCAL/MOL
REMARK 924 INTRA-LIGAND FREE ENERGY PREDICTED BY IDOCK:   -1.61 KCAL/MOL
REMARK 927      BINDING AFFINITY PREDICTED BY RF-SCORE:    0.00 PKD
ROOT
HETATM    1  C   UNL     1      -9.165  10.781  63.069  1.00  0.00    -0.320 C  
HETATM    2  C   UNL     1      -9.990  10.591  64.335  1.00  0.00    -0.410 C  
ENDROOT
BRANCH   2   3
HETATM    3  C   UNL     1      -9.239   9.703  65.328  1.00  0.00    -0.295 C  
BRANCH   3   4
HETATM    4  C   UNL     1      -8.553  10.424  66.484  1.00  0.00    -0.134 C  
BRANCH   4   5
HETATM    5  C   UNL     1      -9.095  10.080  67.836  1.00  0.00    -0.131 A  
HETATM    6  N   UNL     1      -8.441   9.295  68.668  1.00  0.00    -0.122 NA 
HETATM    7  C   UNL     1      -9.178   9.248  69.807  1.00  0.00    -0.181 A  
HETATM    8  C   UNL     1     -10.321  10.004  69.688  1.00  0.00    -0.247 A  
HETATM    9  N   UNL     1     -10.305  10.498  68.387  1.00  0.00    -0.168 NA 
BRANCH   8  10
HETATM   10  C   UNL     1     -11.317  10.333  70.624  1.00  0.00    -0.431 C  
HETATM   11  O   UNL     1     -13.891   9.165  72.789  1.00  0.00    -0.430 OA 
HETATM   12  C   UNL     1     -12.250   9.461  71.057  1.00  0.00    -0.354 C  
HETATM   13  C   UNL     1     -13.203  10.048  72.045  1.00  0.00    -0.443 C  
HETATM   14  O   UNL     1     -13.373  11.252  72.168  1.00  0.00    -0.457 OA 
BRANCH  12  15
HETATM   15  C   UNL     1     -12.404   8.037  70.589  1.00  0.00     0.152 C  
BRANCH  15  16
HETATM   16  C   UNL     1     -11.465   7.019  71.182  1.00  0.00    -0.294 A  
HETATM   17  C   UNL     1     -10.196   5.103  71.582  1.00  0.00    -0.276 A  
HETATM   18  C   UNL     1     -10.947   5.859  70.636  1.00  0.00    -0.357 A  
HETATM   19  C   UNL     1     -10.105   5.741  72.797  1.00  0.00    -0.179 A  
HETATM   20  S   UNL     1     -10.916   7.244  72.795  1.00  0.00    -0.338 SA 
ENDBRANCH  15  16
ENDBRANCH  12  15
ENDBRANCH   8  10
BRANCH   9  21
HETATM   21  C   UNL     1     -11.433  11.105  67.663  1.00  0.00    -0.250 C  
BRANCH  21  22
HETATM   22  C   UNL     1     -11.356  12.610  67.504  1.00  0.00    -0.361 A  
HETATM   23  C   UNL     1     -10.953  13.440  68.560  1.00  0.00    -0.292 A  
HETATM   24  C   UNL     1     -10.727  14.805  68.364  1.00  0.00    -0.243 A  
HETATM   25  C   UNL     1     -11.718  13.228  66.299  1.00  0.00    -0.412 A  
HETATM   26  O   UNL     1      -9.988  16.974  65.654  1.00  0.00    -0.554 OA 
HETATM   27  C   UNL     1     -11.491  14.591  66.089  1.00  0.00    -0.357 A  
HETATM   28  C   UNL     1     -10.926  15.365  67.104  1.00  0.00    -0.317 A  
HETATM   29  O   UNL     1     -10.596  17.640  67.731  1.00  0.00    -0.374 OA 
HETATM   30  C   UNL     1     -10.520  16.773  66.880  1.00  0.00    -0.269 C  
ENDBRANCH  21  22
ENDBRANCH   9  21
ENDBRANCH   4   5
ENDBRANCH   3   4
ENDBRANCH   2   3
TORSDOF 8
ENDMDL
MODEL       43
REMARK 921   NORMALIZED FREE ENERGY PREDICTED BY IDOCK:   -5.65 KCAL/MOL
REMARK 922        TOTAL FREE ENERGY PREDICTED BY IDOCK:  -10.41 KCAL/MOL
REMARK 923 INTER-LIGAND FREE ENERGY PREDICTED BY IDOCK:   -8.11 KCAL/MOL
REMARK 924 INTRA-LIGAND FREE ENERGY PREDICTED BY IDOCK:   -2.30 KCAL/MOL
REMARK 927      BINDING AFFINITY PREDICTED BY RF-SCORE:    0.00 PKD
ROOT
HETATM    1  C   UNL     1      -9.455  15.406  66.946  1.00  0.00    -0.246 C  
HETATM    2  C   UNL     1      -8.677  15.121  68.224  1.00  0.00    -0.171 C  
ENDROOT
BRANCH   2   3
HETATM    3  C   UNL     1      -8.256  13.652  68.270  1.00  0.00    -0.156 C  
BRANCH   3   4
HETATM    4  C   UNL     1      -8.803  12.764  67.157  1.00  0.00    -0.202 C  
BRANCH   4   5
HETATM    5  C   UNL     1      -8.838  11.306  67.489  1.00  0.00    -0.140 A  
HETATM    6  N   UNL     1      -7.758  10.553  67.431  1.00  0.00    -0.101 NA 
HETATM    7  C   UNL     1      -8.132   9.318  67.853  1.00  0.00    -0.104 A  
HETATM    8  C   UNL     1      -9.470   9.286  68.168  1.00  0.00    -0.138 A  
HETATM    9  N   UNL     1      -9.950  10.559  67.876  1.00  0.00    -0.166 NA 
BRANCH   8  10
HETATM   10  C   UNL     1     -10.267   8.275  68.734  1.00  0.00    -0.226 C  
HETATM   11  O   UNL     1     -12.027   7.106  71.599  1.00  0.00    -0.284 OA 
HETATM   12  C   UNL     1     -10.546   8.196  70.051  1.00  0.00    -0.239 C  
HETATM   13  C   UNL     1     -11.406   7.030  70.409  1.00  0.00    -0.310 C  
HETATM   14  O   UNL     1     -11.532   6.051  69.687  1.00  0.00    -0.394 OA 
BRANCH  12  15
HETATM   15  C   UNL     1     -10.029   9.129  71.114  1.00  0.00    -0.377 C  
BRANCH  15  16
HETATM   16  C   UNL     1      -8.980   8.584  72.048  1.00  0.00    -0.231 A  
HETATM   17  C   UNL     1      -7.835   7.796  73.922  1.00  0.00    -0.213 A  
HETATM   18  C   UNL     1      -9.100   8.089  73.333  1.00  0.00    -0.340 A  
HETATM   19  C   UNL     1      -6.797   8.009  73.045  1.00  0.00    -0.092 A  
HETATM   20  S   UNL     1      -7.344   8.555  71.522  1.00  0.00    -0.100 SA 
ENDBRANCH  15  16
ENDBRANCH  12  15
ENDBRANCH   8  10
BRANCH   9  21
HETATM   21  C   UNL     1     -11.360  10.960  67.748  1.00  0.00    -0.292 C  
BRANCH  21  22
HETATM   22  C   UNL     1     -11.861  11.894  68.832  1.00  0.00    -0.366 A  
HETATM   23  C   UNL     1     -12.246  11.416  70.092  1.00  0.00    -0.401 A  
HETATM   24  C   UNL     1     -12.551  12.292  71.137  1.00  0.00    -0.353 A  
HETATM   25  C   UNL     1     -11.986  13.270  68.596  1.00  0.00    -0.345 A  
HETATM   26  O   UNL     1     -11.856  15.658  72.020  1.00  0.00    -0.370 OA 
HETATM   27  C   UNL     1     -12.284  14.157  69.635  1.00  0.00    -0.376 A  
HETATM   28  C   UNL     1     -12.496  13.668  70.926  1.00  0.00    -0.448 A  
HETATM   29  O   UNL     1     -13.386  14.332  73.033  1.00  0.00    -0.618 OA 
HETATM   30  C   UNL     1     -12.659  14.573  72.087  1.00  0.00    -0.314 C  
ENDBRANCH  21  22
ENDBRANCH   9  21
ENDBRANCH   4   5
ENDBRANCH   3   4
ENDBRANCH   2   3
TORSDOF 8
ENDMDL
MODEL       44
REMARK 921   NORMALIZED FREE ENERGY PREDICTED BY IDOCK:   -5.64 KCAL/MOL
REMARK 922        TOTAL FREE ENERGY PREDICTED BY IDOCK:  -10.39 KCAL/MOL
REMARK 923 INTER-LIGAND FREE ENERGY PREDICTED BY IDOCK:   -7.84 KCAL/MOL
REMARK 924 INTRA-LIGAND FREE ENERGY PREDICTED BY IDOCK:   -2.55 KCAL/MOL
REMARK 927      BINDING AFFINITY PREDICTED BY RF-SCORE:    0.00 PKD
ROOT
HETATM    1  C   UNL     1      -7.824  10.002  64.494  1.00  0.00    -0.145 C  
HETATM    2  C   UNL     1      -9.330  10.008  64.264  1.00  0.00    -0.345 C  
ENDROOT
BRANCH   2   3
HETATM    3  C   UNL     1      -9.814  11.428  63.967  1.00  0.00    -0.316 C  
BRANCH   3   4
HETATM    4  C   UNL     1     -11.231  11.761  64.424  1.00  0.00    -0.383 C  
BRANCH   4   5
HETATM    5  C   UNL     1     -11.324  12.938  65.341  1.00  0.00    -0.303 A  
HETATM    6  N   UNL     1     -10.998  14.154  64.949  1.00  0.00    -0.376 NA 
HETATM    7  C   UNL     1     -11.260  14.976  65.996  1.00  0.00    -0.310 A  
HETATM    8  C   UNL     1     -11.746  14.269  67.071  1.00  0.00    -0.403 A  
HETATM    9  N   UNL     1     -11.733  12.936  66.674  1.00  0.00    -0.372 NA 
BRANCH   8  10
HETATM   10  C   UNL     1     -12.243  14.697  68.315  1.00  0.00    -0.112 C  
HETATM   11  O   UNL     1     -11.547  16.265  71.435  1.00  0.00    -0.448 OA 
HETATM   12  C   UNL     1     -11.455  15.105  69.331  1.00  0.00    -0.322 C  
HETATM   13  C   UNL     1     -12.216  15.503  70.552  1.00  0.00    -0.404 C  
HETATM   14  O   UNL     1     -13.368  15.151  70.761  1.00  0.00    -0.396 OA 
BRANCH  12  15
HETATM   15  C   UNL     1      -9.950  15.129  69.319  1.00  0.00    -0.243 C  
BRANCH  15  16
HETATM   16  C   UNL     1      -9.291  16.421  68.912  1.00  0.00    -0.249 A  
HETATM   17  C   UNL     1      -7.757  18.141  68.553  1.00  0.00    -0.307 A  
HETATM   18  C   UNL     1      -7.953  16.765  68.868  1.00  0.00    -0.237 A  
HETATM   19  C   UNL     1      -8.944  18.786  68.299  1.00  0.00    -0.324 A  
HETATM   20  S   UNL     1     -10.286  17.739  68.435  1.00  0.00    -0.387 SA 
ENDBRANCH  15  16
ENDBRANCH  12  15
ENDBRANCH   8  10
BRANCH   9  21
HETATM   21  C   UNL     1     -11.865  11.757  67.546  1.00  0.00    -0.154 C  
BRANCH  21  22
HETATM   22  C   UNL     1     -10.570  11.024  67.831  1.00  0.00    -0.244 A  
HETATM   23  C   UNL     1     -10.486   9.626  67.759  1.00  0.00    -0.309 A  
HETATM   24  C   UNL     1      -9.258   8.967  67.863  1.00  0.00    -0.148 A  
HETATM   25  C   UNL     1      -9.414  11.722  68.209  1.00  0.00    -0.193 A  
HETATM   26  O   UNL     1      -5.824   9.741  67.413  1.00  0.00    -0.050 OA 
HETATM   27  C   UNL     1      -8.179  11.074  68.309  1.00  0.00    -0.130 A  
HETATM   28  C   UNL     1      -8.092   9.703  68.064  1.00  0.00    -0.105 A  
HETATM   29  O   UNL     1      -6.622   7.855  68.380  1.00  0.00    -0.058 OA 
HETATM   30  C   UNL     1      -6.789   9.000  68.003  1.00  0.00    -0.069 C  
ENDBRANCH  21  22
ENDBRANCH   9  21
ENDBRANCH   4   5
ENDBRANCH   3   4
ENDBRANCH   2   3
TORSDOF 8
ENDMDL
MODEL       45
REMARK 921   NORMALIZED FREE ENERGY PREDICTED BY IDOCK:   -5.64 KCAL/MOL
REMARK 922        TOTAL FREE ENERGY PREDICTED BY IDOCK:  -10.39 KCAL/MOL
REMARK 923 INTER-LIGAND FREE ENERGY PREDICTED BY IDOCK:   -7.82 KCAL/MOL
REMARK 924 INTRA-LIGAND FREE ENERGY PREDICTED BY IDOCK:   -2.56 KCAL/MOL
REMARK 927      BINDING AFFINITY PREDICTED BY RF-SCORE:    0.00 PKD
ROOT
HETATM    1  C   UNL     1     -10.500  13.298  64.473  1.00  0.00    -0.434 C  
HETATM    2  C   UNL     1     -10.085  11.995  63.802  1.00  0.00    -0.419 C  
ENDROOT
BRANCH   2   3
HETATM    3  C   UNL     1     -10.533  10.800  64.645  1.00  0.00    -0.346 C  
BRANCH   3   4
HETATM    4  C   UNL     1      -9.461   9.759  64.951  1.00  0.00    -0.331 C  
BRANCH   4   5
HETATM    5  C   UNL     1      -9.616   9.083  66.277  1.00  0.00    -0.260 A  
HETATM    6  N   UNL     1     -10.501   8.125  66.469  1.00  0.00    -0.148 NA 
HETATM    7  C   UNL     1     -10.330   7.699  67.747  1.00  0.00    -0.219 A  
HETATM    8  C   UNL     1      -9.332   8.407  68.375  1.00  0.00    -0.135 A  
HETATM    9  N   UNL     1      -8.906   9.350  67.445  1.00  0.00    -0.128 NA 
BRANCH   8  10
HETATM   10  C   UNL     1      -8.742   8.254  69.642  1.00  0.00    -0.138 C  
HETATM   11  O   UNL     1      -9.126   8.527  73.171  1.00  0.00    -0.257 OA 
HETATM   12  C   UNL     1      -9.294   8.721  70.781  1.00  0.00    -0.253 C  
HETATM   13  C   UNL     1      -8.476   8.442  71.998  1.00  0.00    -0.183 C  
HETATM   14  O   UNL     1      -7.285   8.172  71.949  1.00  0.00    -0.073 OA 
BRANCH  12  15
HETATM   15  C   UNL     1     -10.578   9.502  70.878  1.00  0.00    -0.395 C  
BRANCH  15  16
HETATM   16  C   UNL     1     -11.823   8.728  71.225  1.00  0.00    -0.303 A  
HETATM   17  C   UNL     1     -13.406   7.040  71.520  1.00  0.00    -0.370 A  
HETATM   18  C   UNL     1     -12.040   7.364  71.277  1.00  0.00    -0.359 A  
HETATM   19  C   UNL     1     -14.175   8.164  71.715  1.00  0.00    -0.462 A  
HETATM   20  S   UNL     1     -13.255   9.598  71.610  1.00  0.00    -0.424 SA 
ENDBRANCH  15  16
ENDBRANCH  12  15
ENDBRANCH   8  10
BRANCH   9  21
HETATM   21  C   UNL     1      -8.078  10.537  67.713  1.00  0.00    -0.106 C  
BRANCH  21  22
HETATM   22  C   UNL     1      -8.840  11.845  67.786  1.00  0.00    -0.166 A  
HETATM   23  C   UNL     1     -10.168  11.898  68.234  1.00  0.00    -0.207 A  
HETATM   24  C   UNL     1     -10.812  13.118  68.453  1.00  0.00    -0.283 A  
HETATM   25  C   UNL     1      -8.250  13.048  67.373  1.00  0.00    -0.183 A  
HETATM   26  O   UNL     1      -9.893  16.488  69.079  1.00  0.00    -0.248 OA 
HETATM   27  C   UNL     1      -8.882  14.276  67.593  1.00  0.00    -0.196 A  
HETATM   28  C   UNL     1     -10.138  14.311  68.202  1.00  0.00    -0.232 A  
HETATM   29  O   UNL     1     -11.980  15.778  68.560  1.00  0.00    -0.314 OA 
HETATM   30  C   UNL     1     -10.779  15.586  68.599  1.00  0.00    -0.252 C  
ENDBRANCH  21  22
ENDBRANCH   9  21
ENDBRANCH   4   5
ENDBRANCH   3   4
ENDBRANCH   2   3
TORSDOF 8
ENDMDL
MODEL       46
REMARK 921   NORMALIZED FREE ENERGY PREDICTED BY IDOCK:   -5.59 KCAL/MOL
REMARK 922        TOTAL FREE ENERGY PREDICTED BY IDOCK:  -10.32 KCAL/MOL
REMARK 923 INTER-LIGAND FREE ENERGY PREDICTED BY IDOCK:   -8.51 KCAL/MOL
REMARK 924 INTRA-LIGAND FREE ENERGY PREDICTED BY IDOCK:   -1.81 KCAL/MOL
REMARK 927      BINDING AFFINITY PREDICTED BY RF-SCORE:    0.00 PKD
ROOT
HETATM    1  C   UNL     1     -12.235  13.183  63.568  1.00  0.00    -0.552 C  
HETATM    2  C   UNL     1     -12.524  14.468  64.333  1.00  0.00    -0.335 C  
ENDROOT
BRANCH   2   3
HETATM    3  C   UNL     1     -11.231  15.036  64.921  1.00  0.00    -0.423 C  
BRANCH   3   4
HETATM    4  C   UNL     1     -10.067  14.057  65.046  1.00  0.00    -0.323 C  
BRANCH   4   5
HETATM    5  C   UNL     1      -9.846  13.533  66.429  1.00  0.00    -0.295 A  
HETATM    6  N   UNL     1      -9.034  14.130  67.278  1.00  0.00    -0.203 NA 
HETATM    7  C   UNL     1      -9.120  13.435  68.441  1.00  0.00    -0.142 A  
HETATM    8  C   UNL     1      -9.988  12.376  68.321  1.00  0.00    -0.224 A  
HETATM    9  N   UNL     1     -10.417  12.396  66.998  1.00  0.00    -0.220 NA 
BRANCH   8  10
HETATM   10  C   UNL     1     -10.466  11.456  69.272  1.00  0.00    -0.104 C  
HETATM   11  O   UNL     1     -13.191  10.401  71.305  1.00  0.00    -0.374 OA 
HETATM   12  C   UNL     1     -11.625  11.614  69.943  1.00  0.00    -0.366 C  
HETATM   13  C   UNL     1     -11.913  10.508  70.903  1.00  0.00    -0.377 C  
HETATM   14  O   UNL     1     -11.049   9.750  71.322  1.00  0.00    -0.355 OA 
BRANCH  12  15
HETATM   15  C   UNL     1     -12.555  12.792  69.823  1.00  0.00     0.227 C  
BRANCH  15  16
HETATM   16  C   UNL     1     -12.512  13.811  70.933  1.00  0.00    -0.377 A  
HETATM   17  C   UNL     1     -11.890  15.546  72.362  1.00  0.00    -0.570 A  
HETATM   18  C   UNL     1     -11.697  14.915  71.099  1.00  0.00    -0.377 A  
HETATM   19  C   UNL     1     -12.893  14.948  73.090  1.00  0.00    -0.512 A  
HETATM   20  S   UNL     1     -13.599  13.637  72.253  1.00  0.00    -0.605 SA 
ENDBRANCH  15  16
ENDBRANCH  12  15
ENDBRANCH   8  10
BRANCH   9  21
HETATM   21  C   UNL     1     -11.109  11.312  66.281  1.00  0.00    -0.166 C  
BRANCH  21  22
HETATM   22  C   UNL     1     -10.198  10.343  65.555  1.00  0.00    -0.316 A  
HETATM   23  C   UNL     1      -9.891  10.501  64.196  1.00  0.00    -0.401 A  
HETATM   24  C   UNL     1      -8.928   9.703  63.573  1.00  0.00    -0.247 A  
HETATM   25  C   UNL     1      -9.655   9.231  66.215  1.00  0.00    -0.313 A  
HETATM   26  O   UNL     1      -6.137   7.735  64.535  1.00  0.00    -0.044 OA 
HETATM   27  C   UNL     1      -8.686   8.430  65.604  1.00  0.00    -0.204 A  
HETATM   28  C   UNL     1      -8.271   8.714  64.302  1.00  0.00    -0.160 A  
HETATM   29  O   UNL     1      -7.088   7.734  62.480  1.00  0.00    -0.079 OA 
HETATM   30  C   UNL     1      -7.140   7.998  63.668  1.00  0.00    -0.078 C  
ENDBRANCH  21  22
ENDBRANCH   9  21
ENDBRANCH   4   5
ENDBRANCH   3   4
ENDBRANCH   2   3
TORSDOF 8
ENDMDL
MODEL       47
REMARK 921   NORMALIZED FREE ENERGY PREDICTED BY IDOCK:   -5.58 KCAL/MOL
REMARK 922        TOTAL FREE ENERGY PREDICTED BY IDOCK:  -10.30 KCAL/MOL
REMARK 923 INTER-LIGAND FREE ENERGY PREDICTED BY IDOCK:   -8.34 KCAL/MOL
REMARK 924 INTRA-LIGAND FREE ENERGY PREDICTED BY IDOCK:   -1.96 KCAL/MOL
REMARK 927      BINDING AFFINITY PREDICTED BY RF-SCORE:    0.00 PKD
ROOT
HETATM    1  C   UNL     1      -5.626  18.994  70.714  1.00  0.00    -0.200 C  
HETATM    2  C   UNL     1      -6.133  18.384  69.413  1.00  0.00    -0.263 C  
ENDROOT
BRANCH   2   3
HETATM    3  C   UNL     1      -6.372  16.884  69.589  1.00  0.00    -0.212 C  
BRANCH   3   4
HETATM    4  C   UNL     1      -7.823  16.423  69.496  1.00  0.00     0.105 C  
BRANCH   4   5
HETATM    5  C   UNL     1      -8.329  16.251  68.099  1.00  0.00    -0.172 A  
HETATM    6  N   UNL     1      -7.510  16.096  67.077  1.00  0.00    -0.208 NA 
HETATM    7  C   UNL     1      -8.295  15.907  65.986  1.00  0.00     0.170 A  
HETATM    8  C   UNL     1      -9.628  15.957  66.320  1.00  0.00    -0.316 A  
HETATM    9  N   UNL     1      -9.658  16.242  67.681  1.00  0.00    -0.226 NA 
BRANCH   8  10
HETATM   10  C   UNL     1     -10.786  15.719  65.557  1.00  0.00    -0.397 C  
HETATM   11  O   UNL     1     -12.748  13.354  63.760  1.00  0.00    -0.685 OA 
HETATM   12  C   UNL     1     -11.003  14.579  64.871  1.00  0.00    -0.421 C  
HETATM   13  C   UNL     1     -12.300  14.566  64.133  1.00  0.00    -0.286 C  
HETATM   14  O   UNL     1     -12.919  15.584  63.860  1.00  0.00    -0.478 OA 
BRANCH  12  15
HETATM   15  C   UNL     1     -10.048  13.418  64.772  1.00  0.00    -0.262 C  
BRANCH  15  16
HETATM   16  C   UNL     1     -10.096  12.399  65.881  1.00  0.00    -0.253 A  
HETATM   17  C   UNL     1     -10.795  10.807  67.435  1.00  0.00    -0.345 A  
HETATM   18  C   UNL     1     -11.095  11.511  66.233  1.00  0.00    -0.321 A  
HETATM   19  C   UNL     1      -9.550  11.127  67.924  1.00  0.00    -0.175 A  
HETATM   20  S   UNL     1      -8.747  12.266  66.937  1.00  0.00    -0.176 SA 
ENDBRANCH  15  16
ENDBRANCH  12  15
ENDBRANCH   8  10
BRANCH   9  21
HETATM   21  C   UNL     1     -10.822  16.697  68.459  1.00  0.00    -0.356 C  
BRANCH  21  22
HETATM   22  C   UNL     1     -11.553  15.604  69.214  1.00  0.00    -0.375 A  
HETATM   23  C   UNL     1     -11.187  14.256  69.091  1.00  0.00    -0.302 A  
HETATM   24  C   UNL     1     -11.753  13.274  69.908  1.00  0.00    -0.330 A  
HETATM   25  C   UNL     1     -12.645  15.905  70.041  1.00  0.00     0.069 A  
HETATM   26  O   UNL     1     -13.394  13.108  73.050  1.00  0.00    -0.392 OA 
HETATM   27  C   UNL     1     -13.215  14.932  70.868  1.00  0.00    -0.420 A  
HETATM   28  C   UNL     1     -12.716  13.628  70.851  1.00  0.00    -0.382 A  
HETATM   29  O   UNL     1     -13.284  11.421  71.544  1.00  0.00    -0.373 OA 
HETATM   30  C   UNL     1     -13.177  12.603  71.816  1.00  0.00    -0.359 C  
ENDBRANCH  21  22
ENDBRANCH   9  21
ENDBRANCH   4   5
ENDBRANCH   3   4
ENDBRANCH   2   3
TORSDOF 8
ENDMDL
MODEL       48
REMARK 921   NORMALIZED FREE ENERGY PREDICTED BY IDOCK:   -5.57 KCAL/MOL
REMARK 922        TOTAL FREE ENERGY PREDICTED BY IDOCK:  -10.29 KCAL/MOL
REMARK 923 INTER-LIGAND FREE ENERGY PREDICTED BY IDOCK:   -8.43 KCAL/MOL
REMARK 924 INTRA-LIGAND FREE ENERGY PREDICTED BY IDOCK:   -1.86 KCAL/MOL
REMARK 927      BINDING AFFINITY PREDICTED BY RF-SCORE:    0.00 PKD
ROOT
HETATM    1  C   UNL     1     -10.740   7.218  70.396  1.00  0.00    -0.253 C  
HETATM    2  C   UNL     1      -9.293   7.694  70.374  1.00  0.00    -0.160 C  
ENDROOT
BRANCH   2   3
HETATM    3  C   UNL     1      -9.211   9.160  70.800  1.00  0.00    -0.321 C  
BRANCH   3   4
HETATM    4  C   UNL     1      -8.830  10.154  69.707  1.00  0.00    -0.152 C  
BRANCH   4   5
HETATM    5  C   UNL     1      -9.991  10.710  68.945  1.00  0.00    -0.204 A  
HETATM    6  N   UNL     1     -11.058  11.189  69.554  1.00  0.00    -0.254 NA 
HETATM    7  C   UNL     1     -11.874  11.662  68.578  1.00  0.00    -0.292 A  
HETATM    8  C   UNL     1     -11.321  11.467  67.334  1.00  0.00    -0.298 A  
HETATM    9  N   UNL     1     -10.125  10.794  67.561  1.00  0.00    -0.181 NA 
BRANCH   8  10
HETATM   10  C   UNL     1     -11.744  11.877  66.056  1.00  0.00    -0.209 C  
HETATM   11  O   UNL     1     -12.490  14.597  63.883  1.00  0.00    -0.813 OA 
HETATM   12  C   UNL     1     -12.088  13.146  65.758  1.00  0.00    -0.502 C  
HETATM   13  C   UNL     1     -12.509  13.332  64.338  1.00  0.00    -0.290 C  
HETATM   14  O   UNL     1     -12.870  12.405  63.626  1.00  0.00    -0.743 OA 
BRANCH  12  15
HETATM   15  C   UNL     1     -12.120  14.298  66.728  1.00  0.00    -0.446 C  
BRANCH  15  16
HETATM   16  C   UNL     1     -10.914  15.200  66.756  1.00  0.00    -0.321 A  
HETATM   17  C   UNL     1      -8.830  16.171  66.365  1.00  0.00    -0.355 A  
HETATM   18  C   UNL     1      -9.824  15.258  65.908  1.00  0.00    -0.385 A  
HETATM   19  C   UNL     1      -9.221  16.832  67.506  1.00  0.00    -0.215 A  
HETATM   20  S   UNL     1     -10.779  16.357  68.020  1.00  0.00    -0.334 SA 
ENDBRANCH  15  16
ENDBRANCH  12  15
ENDBRANCH   8  10
BRANCH   9  21
HETATM   21  C   UNL     1      -9.309  10.089  66.558  1.00  0.00    -0.162 C  
BRANCH  21  22
HETATM   22  C   UNL     1      -9.222   8.587  66.745  1.00  0.00    -0.215 A  
HETATM   23  C   UNL     1     -10.369   7.780  66.748  1.00  0.00    -0.348 A  
HETATM   24  C   UNL     1     -10.275   6.387  66.758  1.00  0.00    -0.259 A  
HETATM   25  C   UNL     1      -7.988   7.957  66.955  1.00  0.00    -0.108 A  
HETATM   26  O   UNL     1      -7.875   3.918  65.895  1.00  0.00    -0.089 OA 
HETATM   27  C   UNL     1      -7.880   6.563  66.959  1.00  0.00    -0.108 A  
HETATM   28  C   UNL     1      -9.022   5.777  66.788  1.00  0.00    -0.118 A  
HETATM   29  O   UNL     1      -9.784   3.536  67.053  1.00  0.00    -0.176 OA 
HETATM   30  C   UNL     1      -8.943   4.307  66.628  1.00  0.00    -0.121 C  
ENDBRANCH  21  22
ENDBRANCH   9  21
ENDBRANCH   4   5
ENDBRANCH   3   4
ENDBRANCH   2   3
TORSDOF 8
ENDMDL
MODEL       49
REMARK 921   NORMALIZED FREE ENERGY PREDICTED BY IDOCK:   -5.55 KCAL/MOL
REMARK 922        TOTAL FREE ENERGY PREDICTED BY IDOCK:  -10.26 KCAL/MOL
REMARK 923 INTER-LIGAND FREE ENERGY PREDICTED BY IDOCK:   -7.85 KCAL/MOL
REMARK 924 INTRA-LIGAND FREE ENERGY PREDICTED BY IDOCK:   -2.41 KCAL/MOL
REMARK 927      BINDING AFFINITY PREDICTED BY RF-SCORE:    0.00 PKD
ROOT
HETATM    1  C   UNL     1     -11.543  14.891  64.721  1.00  0.00    -0.410 C  
HETATM    2  C   UNL     1     -12.334  13.774  64.053  1.00  0.00    -0.370 C  
ENDROOT
BRANCH   2   3
HETATM    3  C   UNL     1     -11.399  12.635  63.645  1.00  0.00    -0.544 C  
BRANCH   3   4
HETATM    4  C   UNL     1     -11.522  11.347  64.453  1.00  0.00    -0.148 C  
BRANCH   4   5
HETATM    5  C   UNL     1     -10.283  10.963  65.199  1.00  0.00    -0.297 A  
HETATM    6  N   UNL     1      -9.124  10.811  64.590  1.00  0.00    -0.204 NA 
HETATM    7  C   UNL     1      -8.218  10.529  65.560  1.00  0.00    -0.162 A  
HETATM    8  C   UNL     1      -8.815  10.490  66.798  1.00  0.00    -0.131 A  
HETATM    9  N   UNL     1     -10.169  10.710  66.564  1.00  0.00    -0.226 NA 
BRANCH   8  10
HETATM   10  C   UNL     1      -8.271  10.341  68.087  1.00  0.00    -0.114 C  
HETATM   11  O   UNL     1      -6.266  11.753  70.668  1.00  0.00    -0.292 OA 
HETATM   12  C   UNL     1      -7.322  11.155  68.592  1.00  0.00    -0.110 C  
HETATM   13  C   UNL     1      -6.899  10.789  69.976  1.00  0.00    -0.122 C  
HETATM   14  O   UNL     1      -7.091   9.682  70.459  1.00  0.00    -0.115 OA 
BRANCH  12  15
HETATM   15  C   UNL     1      -6.671  12.302  67.865  1.00  0.00    -0.093 C  
BRANCH  15  16
HETATM   16  C   UNL     1      -7.405  13.618  67.871  1.00  0.00    -0.148 A  
HETATM   17  C   UNL     1      -8.777  15.423  67.325  1.00  0.00    -0.215 A  
HETATM   18  C   UNL     1      -8.460  14.054  67.091  1.00  0.00    -0.207 A  
HETATM   19  C   UNL     1      -8.003  15.969  68.322  1.00  0.00    -0.145 A  
HETATM   20  S   UNL     1      -6.905  14.836  68.975  1.00  0.00    -0.123 SA 
ENDBRANCH  15  16
ENDBRANCH  12  15
ENDBRANCH   8  10
BRANCH   9  21
HETATM   21  C   UNL     1     -11.275  10.468  67.505  1.00  0.00    -0.224 C  
BRANCH  21  22
HETATM   22  C   UNL     1     -11.566  11.611  68.456  1.00  0.00    -0.379 A  
HETATM   23  C   UNL     1     -11.661  12.936  68.006  1.00  0.00    -0.401 A  
HETATM   24  C   UNL     1     -12.089  13.961  68.853  1.00  0.00    -0.355 A  
HETATM   25  C   UNL     1     -11.721  11.384  69.831  1.00  0.00    -0.424 A  
HETATM   26  O   UNL     1     -13.964  14.272  71.849  1.00  0.00    -0.409 OA 
HETATM   27  C   UNL     1     -12.154  12.401  70.688  1.00  0.00    -0.317 A  
HETATM   28  C   UNL     1     -12.408  13.676  70.179  1.00  0.00    -0.372 A  
HETATM   29  O   UNL     1     -12.741  15.923  70.897  1.00  0.00    -0.429 OA 
HETATM   30  C   UNL     1     -13.016  14.742  71.008  1.00  0.00    -0.363 C  
ENDBRANCH  21  22
ENDBRANCH   9  21
ENDBRANCH   4   5
ENDBRANCH   3   4
ENDBRANCH   2   3
TORSDOF 8
ENDMDL
MODEL       50
REMARK 921   NORMALIZED FREE ENERGY PREDICTED BY IDOCK:   -5.55 KCAL/MOL
REMARK 922        TOTAL FREE ENERGY PREDICTED BY IDOCK:  -10.26 KCAL/MOL
REMARK 923 INTER-LIGAND FREE ENERGY PREDICTED BY IDOCK:   -8.81 KCAL/MOL
REMARK 924 INTRA-LIGAND FREE ENERGY PREDICTED BY IDOCK:   -1.45 KCAL/MOL
REMARK 927      BINDING AFFINITY PREDICTED BY RF-SCORE:    0.00 PKD
ROOT
HETATM    1  C   UNL     1     -10.856  11.452  63.411  1.00  0.00    -0.375 C  
HETATM    2  C   UNL     1     -11.842  12.612  63.459  1.00  0.00    -0.619 C  
ENDROOT
BRANCH   2   3
HETATM    3  C   UNL     1     -12.584  12.620  64.796  1.00  0.00    -0.530 C  
BRANCH   3   4
HETATM    4  C   UNL     1     -12.651  13.964  65.515  1.00  0.00    -0.560 C  
BRANCH   4   5
HETATM    5  C   UNL     1     -11.319  14.523  65.904  1.00  0.00    -0.341 A  
HETATM    6  N   UNL     1     -10.670  15.375  65.135  1.00  0.00    -0.414 NA 
HETATM    7  C   UNL     1      -9.546  15.721  65.812  1.00  0.00    -0.320 A  
HETATM    8  C   UNL     1      -9.476  15.068  67.020  1.00  0.00    -0.229 A  
HETATM    9  N   UNL     1     -10.594  14.241  67.060  1.00  0.00    -0.278 NA 
BRANCH   8  10
HETATM   10  C   UNL     1      -8.565  15.184  68.086  1.00  0.00    -0.158 C  
HETATM   11  O   UNL     1      -6.279  17.264  69.853  1.00  0.00    -0.234 OA 
HETATM   12  C   UNL     1      -7.722  16.226  68.234  1.00  0.00    -0.158 C  
HETATM   13  C   UNL     1      -6.848  16.118  69.440  1.00  0.00    -0.214 C  
HETATM   14  O   UNL     1      -6.637  15.060  70.015  1.00  0.00    -0.170 OA 
BRANCH  12  15
HETATM   15  C   UNL     1      -7.585  17.387  67.285  1.00  0.00    -0.214 C  
BRANCH  15  16
HETATM   16  C   UNL     1      -8.513  18.555  67.498  1.00  0.00    -0.261 A  
HETATM   17  C   UNL     1     -10.175  19.982  68.297  1.00  0.00    -0.527 A  
HETATM   18  C   UNL     1      -9.368  18.835  68.547  1.00  0.00    -0.390 A  
HETATM   19  C   UNL     1      -9.863  20.582  67.099  1.00  0.00    -0.426 A  
HETATM   20  S   UNL     1      -8.602  19.768  66.284  1.00  0.00    -0.330 SA 
ENDBRANCH  15  16
ENDBRANCH  12  15
ENDBRANCH   8  10
BRANCH   9  21
HETATM   21  C   UNL     1     -10.827  13.122  67.988  1.00  0.00    -0.242 C  
BRANCH  21  22
HETATM   22  C   UNL     1     -10.272  11.787  67.532  1.00  0.00    -0.214 A  
HETATM   23  C   UNL     1     -10.998  10.598  67.690  1.00  0.00    -0.370 A  
HETATM   24  C   UNL     1     -10.556   9.399  67.125  1.00  0.00    -0.294 A  
HETATM   25  C   UNL     1      -8.994  11.694  66.964  1.00  0.00    -0.182 A  
HETATM   26  O   UNL     1      -8.408   8.380  64.491  1.00  0.00    -0.166 OA 
HETATM   27  C   UNL     1      -8.544  10.501  66.390  1.00  0.00    -0.147 A  
HETATM   28  C   UNL     1      -9.361   9.369  66.409  1.00  0.00    -0.241 A  
HETATM   29  O   UNL     1      -9.267   7.012  66.078  1.00  0.00    -0.127 OA 
HETATM   30  C   UNL     1      -9.000   8.131  65.681  1.00  0.00    -0.080 C  
ENDBRANCH  21  22
ENDBRANCH   9  21
ENDBRANCH   4   5
ENDBRANCH   3   4
ENDBRANCH   2   3
TORSDOF 8
ENDMDL
MODEL       51
REMARK 921   NORMALIZED FREE ENERGY PREDICTED BY IDOCK:   -5.54 KCAL/MOL
REMARK 922        TOTAL FREE ENERGY PREDICTED BY IDOCK:  -10.25 KCAL/MOL
REMARK 923 INTER-LIGAND FREE ENERGY PREDICTED BY IDOCK:   -8.04 KCAL/MOL
REMARK 924 INTRA-LIGAND FREE ENERGY PREDICTED BY IDOCK:   -2.21 KCAL/MOL
REMARK 927      BINDING AFFINITY PREDICTED BY RF-SCORE:    0.00 PKD
ROOT
HETATM    1  C   UNL     1      -7.010   7.110  70.997  1.00  0.00    -0.061 C  
HETATM    2  C   UNL     1      -7.033   7.033  69.476  1.00  0.00    -0.062 C  
ENDROOT
BRANCH   2   3
HETATM    3  C   UNL     1      -7.103   8.438  68.877  1.00  0.00    -0.066 C  
BRANCH   3   4
HETATM    4  C   UNL     1      -7.184   8.513  67.355  1.00  0.00    -0.084 C  
BRANCH   4   5
HETATM    5  C   UNL     1      -7.852   9.744  66.831  1.00  0.00    -0.102 A  
HETATM    6  N   UNL     1      -7.235  10.909  66.796  1.00  0.00    -0.126 NA 
HETATM    7  C   UNL     1      -8.097  11.779  66.211  1.00  0.00     0.115 A  
HETATM    8  C   UNL     1      -9.281  11.160  65.885  1.00  0.00    -0.206 A  
HETATM    9  N   UNL     1      -9.152   9.852  66.341  1.00  0.00    -0.147 NA 
BRANCH   8  10
HETATM   10  C   UNL     1     -10.409  11.623  65.184  1.00  0.00    -0.326 C  
HETATM   11  O   UNL     1     -13.332  13.656  65.232  1.00  0.00    -0.669 OA 
HETATM   12  C   UNL     1     -11.421  12.297  65.767  1.00  0.00    -0.417 C  
HETATM   13  C   UNL     1     -12.508  12.677  64.817  1.00  0.00    -0.484 C  
HETATM   14  O   UNL     1     -12.666  12.130  63.735  1.00  0.00    -0.661 OA 
BRANCH  12  15
HETATM   15  C   UNL     1     -11.532  12.619  67.234  1.00  0.00    -0.402 C  
BRANCH  15  16
HETATM   16  C   UNL     1     -11.263  14.044  67.642  1.00  0.00    -0.297 A  
HETATM   17  C   UNL     1     -11.343  16.136  68.670  1.00  0.00    -0.365 A  
HETATM   18  C   UNL     1     -11.737  14.768  68.720  1.00  0.00    -0.354 A  
HETATM   19  C   UNL     1     -10.525  16.398  67.596  1.00  0.00    -0.302 A  
HETATM   20  S   UNL     1     -10.230  15.002  66.658  1.00  0.00    -0.277 SA 
ENDBRANCH  15  16
ENDBRANCH  12  15
ENDBRANCH   8  10
BRANCH   9  21
HETATM   21  C   UNL     1     -10.235   8.869  66.511  1.00  0.00    -0.249 C  
BRANCH  21  22
HETATM   22  C   UNL     1     -10.530   8.486  67.948  1.00  0.00    -0.262 A  
HETATM   23  C   UNL     1     -10.629   9.450  68.960  1.00  0.00    -0.233 A  
HETATM   24  C   UNL     1     -11.059   9.112  70.245  1.00  0.00    -0.272 A  
HETATM   25  C   UNL     1     -10.684   7.142  68.318  1.00  0.00    -0.202 A  
HETATM   26  O   UNL     1     -12.936   6.520  71.780  1.00  0.00    -0.262 OA 
HETATM   27  C   UNL     1     -11.121   6.791  69.599  1.00  0.00    -0.343 A  
HETATM   28  C   UNL     1     -11.378   7.788  70.542  1.00  0.00    -0.253 A  
HETATM   29  O   UNL     1     -11.718   8.079  72.882  1.00  0.00    -0.369 OA 
HETATM   30  C   UNL     1     -11.989   7.482  71.856  1.00  0.00    -0.301 C  
ENDBRANCH  21  22
ENDBRANCH   9  21
ENDBRANCH   4   5
ENDBRANCH   3   4
ENDBRANCH   2   3
TORSDOF 8
ENDMDL
MODEL       52
REMARK 921   NORMALIZED FREE ENERGY PREDICTED BY IDOCK:   -5.54 KCAL/MOL
REMARK 922        TOTAL FREE ENERGY PREDICTED BY IDOCK:  -10.25 KCAL/MOL
REMARK 923 INTER-LIGAND FREE ENERGY PREDICTED BY IDOCK:   -8.29 KCAL/MOL
REMARK 924 INTRA-LIGAND FREE ENERGY PREDICTED BY IDOCK:   -1.95 KCAL/MOL
REMARK 927      BINDING AFFINITY PREDICTED BY RF-SCORE:    0.00 PKD
ROOT
HETATM    1  C   UNL     1     -12.782  13.530  65.383  1.00  0.00    -0.495 C  
HETATM    2  C   UNL     1     -11.560  14.297  64.893  1.00  0.00    -0.384 C  
ENDROOT
BRANCH   2   3
HETATM    3  C   UNL     1     -10.288  13.494  65.167  1.00  0.00    -0.368 C  
BRANCH   3   4
HETATM    4  C   UNL     1     -10.397  11.984  64.980  1.00  0.00    -0.318 C  
BRANCH   4   5
HETATM    5  C   UNL     1      -9.631  11.180  65.982  1.00  0.00    -0.217 A  
HETATM    6  N   UNL     1      -8.392  10.789  65.760  1.00  0.00    -0.166 NA 
HETATM    7  C   UNL     1      -7.987  10.146  66.885  1.00  0.00    -0.114 A  
HETATM    8  C   UNL     1      -8.989  10.119  67.826  1.00  0.00    -0.128 A  
HETATM    9  N   UNL     1     -10.082  10.735  67.223  1.00  0.00    -0.190 NA 
BRANCH   8  10
HETATM   10  C   UNL     1      -9.001   9.663  69.157  1.00  0.00    -0.154 C  
HETATM   11  O   UNL     1      -9.648   6.965  71.388  1.00  0.00    -0.167 OA 
HETATM   12  C   UNL     1      -9.569   8.502  69.541  1.00  0.00    -0.170 C  
HETATM   13  C   UNL     1      -9.458   8.240  71.006  1.00  0.00    -0.161 C  
HETATM   14  O   UNL     1      -9.230   9.121  71.823  1.00  0.00    -0.338 OA 
BRANCH  12  15
HETATM   15  C   UNL     1     -10.307   7.546  68.640  1.00  0.00    -0.218 C  
BRANCH  15  16
HETATM   16  C   UNL     1      -9.478   6.525  67.904  1.00  0.00    -0.120 A  
HETATM   17  C   UNL     1      -7.711   5.305  66.994  1.00  0.00    -0.096 A  
HETATM   18  C   UNL     1      -8.120   6.275  67.955  1.00  0.00    -0.114 A  
HETATM   19  C   UNL     1      -8.777   4.796  66.289  1.00  0.00    -0.114 A  
HETATM   20  S   UNL     1     -10.260   5.480  66.787  1.00  0.00    -0.260 SA 
ENDBRANCH  15  16
ENDBRANCH  12  15
ENDBRANCH   8  10
BRANCH   9  21
HETATM   21  C   UNL     1     -11.479  10.693  67.683  1.00  0.00    -0.086 C  
BRANCH  21  22
HETATM   22  C   UNL     1     -11.774  11.535  68.909  1.00  0.00    -0.403 A  
HETATM   23  C   UNL     1     -11.643  12.931  68.891  1.00  0.00    -0.360 A  
HETATM   24  C   UNL     1     -12.069  13.713  69.966  1.00  0.00    -0.417 A  
HETATM   25  C   UNL     1     -12.160  10.938  70.118  1.00  0.00    -0.431 A  
HETATM   26  O   UNL     1     -14.324  13.416  72.690  1.00  0.00    -0.709 OA 
HETATM   27  C   UNL     1     -12.594  11.711  71.199  1.00  0.00    -0.439 A  
HETATM   28  C   UNL     1     -12.616  13.103  71.093  1.00  0.00    -0.403 A  
HETATM   29  O   UNL     1     -12.786  15.059  72.442  1.00  0.00    -0.310 OA 
HETATM   30  C   UNL     1     -13.212  13.958  72.146  1.00  0.00    -0.444 C  
ENDBRANCH  21  22
ENDBRANCH   9  21
ENDBRANCH   4   5
ENDBRANCH   3   4
ENDBRANCH   2   3
TORSDOF 8
ENDMDL
MODEL       53
REMARK 921   NORMALIZED FREE ENERGY PREDICTED BY IDOCK:   -5.50 KCAL/MOL
REMARK 922        TOTAL FREE ENERGY PREDICTED BY IDOCK:  -10.19 KCAL/MOL
REMARK 923 INTER-LIGAND FREE ENERGY PREDICTED BY IDOCK:   -8.47 KCAL/MOL
REMARK 924 INTRA-LIGAND FREE ENERGY PREDICTED BY IDOCK:   -1.72 KCAL/MOL
REMARK 927      BINDING AFFINITY PREDICTED BY RF-SCORE:    0.00 PKD
ROOT
HETATM    1  C   UNL     1     -12.239  11.975  63.347  1.00  0.00    -0.627 C  
HETATM    2  C   UNL     1     -12.082  13.302  64.079  1.00  0.00    -0.508 C  
ENDROOT
BRANCH   2   3
HETATM    3  C   UNL     1     -12.331  13.112  65.576  1.00  0.00    -0.529 C  
BRANCH   3   4
HETATM    4  C   UNL     1     -11.782  11.826  66.187  1.00  0.00    -0.106 C  
BRANCH   4   5
HETATM    5  C   UNL     1     -10.400  11.948  66.746  1.00  0.00    -0.209 A  
HETATM    6  N   UNL     1      -9.360  11.392  66.158  1.00  0.00    -0.210 NA 
HETATM    7  C   UNL     1      -8.273  11.751  66.887  1.00  0.00    -0.166 A  
HETATM    8  C   UNL     1      -8.632  12.533  67.960  1.00  0.00    -0.185 A  
HETATM    9  N   UNL     1     -10.020  12.614  67.910  1.00  0.00    -0.221 NA 
BRANCH   8  10
HETATM   10  C   UNL     1      -7.855  13.211  68.916  1.00  0.00     0.118 C  
HETATM   11  O   UNL     1      -6.179  16.220  69.817  1.00  0.00    -0.192 OA 
HETATM   12  C   UNL     1      -7.248  14.392  68.679  1.00  0.00    -0.123 C  
HETATM   13  C   UNL     1      -6.475  14.908  69.846  1.00  0.00    -0.171 C  
HETATM   14  O   UNL     1      -6.108  14.194  70.769  1.00  0.00    -0.197 OA 
BRANCH  12  15
HETATM   15  C   UNL     1      -7.264  15.141  67.372  1.00  0.00    -0.231 C  
BRANCH  15  16
HETATM   16  C   UNL     1      -8.513  15.918  67.047  1.00  0.00    -0.217 A  
HETATM   17  C   UNL     1     -10.326  16.894  65.951  1.00  0.00    -0.327 A  
HETATM   18  C   UNL     1      -9.303  15.903  65.913  1.00  0.00    -0.353 A  
HETATM   19  C   UNL     1     -10.329  17.587  67.139  1.00  0.00    -0.330 A  
HETATM   20  S   UNL     1      -9.109  17.042  68.203  1.00  0.00    -0.244 SA 
ENDBRANCH  15  16
ENDBRANCH  12  15
ENDBRANCH   8  10
BRANCH   9  21
HETATM   21  C   UNL     1     -10.913  13.074  68.986  1.00  0.00    -0.196 C  
BRANCH  21  22
HETATM   22  C   UNL     1     -11.455  11.977  69.880  1.00  0.00    -0.239 A  
HETATM   23  C   UNL     1     -12.474  12.224  70.811  1.00  0.00    -0.356 A  
HETATM   24  C   UNL     1     -13.081  11.181  71.516  1.00  0.00    -0.489 A  
HETATM   25  C   UNL     1     -10.928  10.678  69.828  1.00  0.00    -0.340 A  
HETATM   26  O   UNL     1     -13.515   7.678  71.150  1.00  0.00    -0.239 OA 
HETATM   27  C   UNL     1     -11.531   9.626  70.524  1.00  0.00    -0.352 A  
HETATM   28  C   UNL     1     -12.656   9.869  71.314  1.00  0.00    -0.480 A  
HETATM   29  O   UNL     1     -13.968   8.861  73.028  1.00  0.00    -0.343 OA 
HETATM   30  C   UNL     1     -13.423   8.769  71.943  1.00  0.00    -0.404 C  
ENDBRANCH  21  22
ENDBRANCH   9  21
ENDBRANCH   4   5
ENDBRANCH   3   4
ENDBRANCH   2   3
TORSDOF 8
ENDMDL
MODEL       54
REMARK 921   NORMALIZED FREE ENERGY PREDICTED BY IDOCK:   -5.48 KCAL/MOL
REMARK 922        TOTAL FREE ENERGY PREDICTED BY IDOCK:  -10.16 KCAL/MOL
REMARK 923 INTER-LIGAND FREE ENERGY PREDICTED BY IDOCK:   -7.66 KCAL/MOL
REMARK 924 INTRA-LIGAND FREE ENERGY PREDICTED BY IDOCK:   -2.51 KCAL/MOL
REMARK 927      BINDING AFFINITY PREDICTED BY RF-SCORE:    0.00 PKD
ROOT
HETATM    1  C   UNL     1      -9.050   6.868  70.236  1.00  0.00    -0.153 C  
HETATM    2  C   UNL     1      -7.729   7.313  69.621  1.00  0.00    -0.105 C  
ENDROOT
BRANCH   2   3
HETATM    3  C   UNL     1      -7.502   8.804  69.877  1.00  0.00    -0.053 C  
BRANCH   3   4
HETATM    4  C   UNL     1      -8.756   9.671  69.931  1.00  0.00    -0.236 C  
BRANCH   4   5
HETATM    5  C   UNL     1      -8.909  10.609  68.776  1.00  0.00    -0.161 A  
HETATM    6  N   UNL     1      -8.282  11.768  68.733  1.00  0.00    -0.083 NA 
HETATM    7  C   UNL     1      -8.592  12.325  67.535  1.00  0.00    -0.174 A  
HETATM    8  C   UNL     1      -9.437  11.514  66.816  1.00  0.00    -0.189 A  
HETATM    9  N   UNL     1      -9.697  10.425  67.642  1.00  0.00    -0.166 NA 
BRANCH   8  10
HETATM   10  C   UNL     1      -9.936  11.622  65.505  1.00  0.00    -0.277 C  
HETATM   11  O   UNL     1     -12.313  13.130  63.325  1.00  0.00    -0.712 OA 
HETATM   12  C   UNL     1     -11.092  12.246  65.198  1.00  0.00    -0.361 C  
HETATM   13  C   UNL     1     -11.411  12.223  63.740  1.00  0.00    -0.466 C  
HETATM   14  O   UNL     1     -10.910  11.423  62.963  1.00  0.00    -0.202 OA 
BRANCH  12  15
HETATM   15  C   UNL     1     -12.039  12.875  66.185  1.00  0.00    -0.458 C  
BRANCH  15  16
HETATM   16  C   UNL     1     -11.610  14.179  66.806  1.00  0.00    -0.391 A  
HETATM   17  C   UNL     1     -10.648  16.267  67.199  1.00  0.00    -0.291 A  
HETATM   18  C   UNL     1     -11.019  15.289  66.232  1.00  0.00    -0.300 A  
HETATM   19  C   UNL     1     -11.030  15.906  68.470  1.00  0.00    -0.324 A  
HETATM   20  S   UNL     1     -11.834  14.400  68.496  1.00  0.00    -0.312 SA 
ENDBRANCH  15  16
ENDBRANCH  12  15
ENDBRANCH   8  10
BRANCH   9  21
HETATM   21  C   UNL     1     -10.769   9.429  67.474  1.00  0.00    -0.222 C  
BRANCH  21  22
HETATM   22  C   UNL     1     -10.310   8.075  66.971  1.00  0.00    -0.414 A  
HETATM   23  C   UNL     1      -9.101   7.920  66.278  1.00  0.00    -0.224 A  
HETATM   24  C   UNL     1      -8.605   6.653  65.959  1.00  0.00    -0.152 A  
HETATM   25  C   UNL     1     -11.100   6.931  67.156  1.00  0.00    -0.362 A  
HETATM   26  O   UNL     1      -9.003   3.320  67.111  1.00  0.00    -0.131 OA 
HETATM   27  C   UNL     1     -10.612   5.658  66.848  1.00  0.00    -0.367 A  
HETATM   28  C   UNL     1      -9.330   5.517  66.314  1.00  0.00    -0.166 A  
HETATM   29  O   UNL     1      -7.955   3.923  65.196  1.00  0.00    -0.091 OA 
HETATM   30  C   UNL     1      -8.707   4.187  66.117  1.00  0.00    -0.115 C  
ENDBRANCH  21  22
ENDBRANCH   9  21
ENDBRANCH   4   5
ENDBRANCH   3   4
ENDBRANCH   2   3
TORSDOF 8
ENDMDL
MODEL       55
REMARK 921   NORMALIZED FREE ENERGY PREDICTED BY IDOCK:   -5.48 KCAL/MOL
REMARK 922        TOTAL FREE ENERGY PREDICTED BY IDOCK:  -10.16 KCAL/MOL
REMARK 923 INTER-LIGAND FREE ENERGY PREDICTED BY IDOCK:   -8.34 KCAL/MOL
REMARK 924 INTRA-LIGAND FREE ENERGY PREDICTED BY IDOCK:   -1.82 KCAL/MOL
REMARK 927      BINDING AFFINITY PREDICTED BY RF-SCORE:    0.00 PKD
ROOT
HETATM    1  C   UNL     1     -10.211  19.741  68.614  1.00  0.00    -0.515 C  
HETATM    2  C   UNL     1     -10.481  19.638  67.118  1.00  0.00    -0.595 C  
ENDROOT
BRANCH   2   3
HETATM    3  C   UNL     1     -10.647  18.173  66.711  1.00  0.00    -0.310 C  
BRANCH   3   4
HETATM    4  C   UNL     1     -10.852  17.181  67.851  1.00  0.00    -0.294 C  
BRANCH   4   5
HETATM    5  C   UNL     1     -10.745  15.744  67.447  1.00  0.00    -0.317 A  
HETATM    6  N   UNL     1     -11.784  15.070  66.995  1.00  0.00    -0.257 NA 
HETATM    7  C   UNL     1     -11.323  13.836  66.668  1.00  0.00    -0.328 A  
HETATM    8  C   UNL     1      -9.978  13.724  66.930  1.00  0.00    -0.264 A  
HETATM    9  N   UNL     1      -9.608  14.940  67.494  1.00  0.00    -0.203 NA 
BRANCH   8  10
HETATM   10  C   UNL     1      -9.064  12.689  66.664  1.00  0.00    -0.193 C  
HETATM   11  O   UNL     1      -8.574   9.216  66.051  1.00  0.00    -0.134 OA 
HETATM   12  C   UNL     1      -9.387  11.380  66.711  1.00  0.00    -0.192 C  
HETATM   13  C   UNL     1      -8.244  10.473  66.397  1.00  0.00    -0.140 C  
HETATM   14  O   UNL     1      -7.076  10.828  66.464  1.00  0.00    -0.123 OA 
BRANCH  12  15
HETATM   15  C   UNL     1     -10.733  10.821  67.089  1.00  0.00    -0.324 C  
BRANCH  15  16
HETATM   16  C   UNL     1     -10.948  10.481  68.541  1.00  0.00    -0.252 A  
HETATM   17  C   UNL     1     -11.000   9.400  70.607  1.00  0.00    -0.352 A  
HETATM   18  C   UNL     1     -10.442   9.439  69.296  1.00  0.00    -0.230 A  
HETATM   19  C   UNL     1     -11.859  10.449  70.834  1.00  0.00    -0.377 A  
HETATM   20  S   UNL     1     -11.988  11.478  69.477  1.00  0.00    -0.321 SA 
ENDBRANCH  15  16
ENDBRANCH  12  15
ENDBRANCH   8  10
BRANCH   9  21
HETATM   21  C   UNL     1      -8.362  15.229  68.223  1.00  0.00    -0.148 C  
BRANCH  21  22
HETATM   22  C   UNL     1      -7.665  16.512  67.816  1.00  0.00    -0.165 A  
HETATM   23  C   UNL     1      -7.341  16.779  66.479  1.00  0.00    -0.306 A  
HETATM   24  C   UNL     1      -6.848  18.026  66.087  1.00  0.00    -0.312 A  
HETATM   25  C   UNL     1      -7.292  17.465  68.775  1.00  0.00    -0.257 A  
HETATM   26  O   UNL     1      -6.876  21.356  67.315  1.00  0.00    -0.572 OA 
HETATM   27  C   UNL     1      -6.804  18.719  68.395  1.00  0.00    -0.269 A  
HETATM   28  C   UNL     1      -6.651  19.023  67.040  1.00  0.00    -0.200 A  
HETATM   29  O   UNL     1      -5.593  20.604  65.607  1.00  0.00    -0.182 OA 
HETATM   30  C   UNL     1      -6.289  20.384  66.581  1.00  0.00    -0.207 C  
ENDBRANCH  21  22
ENDBRANCH   9  21
ENDBRANCH   4   5
ENDBRANCH   3   4
ENDBRANCH   2   3
TORSDOF 8
ENDMDL
MODEL       56
REMARK 921   NORMALIZED FREE ENERGY PREDICTED BY IDOCK:   -5.44 KCAL/MOL
REMARK 922        TOTAL FREE ENERGY PREDICTED BY IDOCK:  -10.10 KCAL/MOL
REMARK 923 INTER-LIGAND FREE ENERGY PREDICTED BY IDOCK:   -8.33 KCAL/MOL
REMARK 924 INTRA-LIGAND FREE ENERGY PREDICTED BY IDOCK:   -1.78 KCAL/MOL
REMARK 927      BINDING AFFINITY PREDICTED BY RF-SCORE:    0.00 PKD
ROOT
HETATM    1  C   UNL     1     -13.046   7.037  71.597  1.00  0.00    -0.384 C  
HETATM    2  C   UNL     1     -14.060   8.172  71.649  1.00  0.00    -0.504 C  
ENDROOT
BRANCH   2   3
HETATM    3  C   UNL     1     -13.373   9.478  72.050  1.00  0.00    -0.535 C  
BRANCH   3   4
HETATM    4  C   UNL     1     -13.029  10.430  70.908  1.00  0.00    -0.475 C  
BRANCH   4   5
HETATM    5  C   UNL     1     -11.657  10.246  70.341  1.00  0.00    -0.328 A  
HETATM    6  N   UNL     1     -10.663   9.773  71.066  1.00  0.00    -0.317 NA 
HETATM    7  C   UNL     1      -9.595   9.678  70.233  1.00  0.00    -0.254 A  
HETATM    8  C   UNL     1      -9.916  10.110  68.967  1.00  0.00    -0.208 A  
HETATM    9  N   UNL     1     -11.237  10.538  69.045  1.00  0.00    -0.248 NA 
BRANCH   8  10
HETATM   10  C   UNL     1      -9.179  10.101  67.769  1.00  0.00    -0.146 C  
HETATM   11  O   UNL     1      -8.892   8.859  64.445  1.00  0.00    -0.136 OA 
HETATM   12  C   UNL     1      -9.403   9.229  66.765  1.00  0.00    -0.202 C  
HETATM   13  C   UNL     1      -8.487   9.413  65.601  1.00  0.00    -0.136 C  
HETATM   14  O   UNL     1      -7.423  10.010  65.681  1.00  0.00    -0.123 OA 
BRANCH  12  15
HETATM   15  C   UNL     1     -10.422   8.121  66.776  1.00  0.00    -0.316 C  
BRANCH  15  16
HETATM   16  C   UNL     1     -10.120   6.924  67.640  1.00  0.00    -0.161 A  
HETATM   17  C   UNL     1     -10.093   5.348  69.359  1.00  0.00    -0.304 A  
HETATM   18  C   UNL     1     -10.786   6.432  68.747  1.00  0.00    -0.339 A  
HETATM   19  C   UNL     1      -8.958   5.002  68.663  1.00  0.00    -0.106 A  
HETATM   20  S   UNL     1      -8.734   5.974  67.277  1.00  0.00    -0.103 SA 
ENDBRANCH  15  16
ENDBRANCH  12  15
ENDBRANCH   8  10
BRANCH   9  21
HETATM   21  C   UNL     1     -11.955  11.361  68.058  1.00  0.00    -0.090 C  
BRANCH  21  22
HETATM   22  C   UNL     1     -11.304  12.693  67.741  1.00  0.00    -0.349 A  
HETATM   23  C   UNL     1     -10.962  13.050  66.429  1.00  0.00    -0.301 A  
HETATM   24  C   UNL     1     -10.514  14.337  66.121  1.00  0.00    -0.294 A  
HETATM   25  C   UNL     1     -10.991  13.603  68.761  1.00  0.00    -0.292 A  
HETATM   26  O   UNL     1     -10.707  17.586  67.536  1.00  0.00    -0.349 OA 
HETATM   27  C   UNL     1     -10.548  14.896  68.465  1.00  0.00    -0.245 A  
HETATM   28  C   UNL     1     -10.379  15.284  67.134  1.00  0.00    -0.265 A  
HETATM   29  O   UNL     1      -9.358  16.987  65.818  1.00  0.00    -0.524 OA 
HETATM   30  C   UNL     1     -10.065  16.683  66.762  1.00  0.00    -0.291 C  
ENDBRANCH  21  22
ENDBRANCH   9  21
ENDBRANCH   4   5
ENDBRANCH   3   4
ENDBRANCH   2   3
TORSDOF 8
ENDMDL
MODEL       57
REMARK 921   NORMALIZED FREE ENERGY PREDICTED BY IDOCK:   -5.40 KCAL/MOL
REMARK 922        TOTAL FREE ENERGY PREDICTED BY IDOCK:  -10.04 KCAL/MOL
REMARK 923 INTER-LIGAND FREE ENERGY PREDICTED BY IDOCK:   -8.26 KCAL/MOL
REMARK 924 INTRA-LIGAND FREE ENERGY PREDICTED BY IDOCK:   -1.79 KCAL/MOL
REMARK 927      BINDING AFFINITY PREDICTED BY RF-SCORE:    0.00 PKD
ROOT
HETATM    1  C   UNL     1     -12.080  13.411  64.377  1.00  0.00    -0.468 C  
HETATM    2  C   UNL     1     -11.060  14.416  64.897  1.00  0.00    -0.404 C  
ENDROOT
BRANCH   2   3
HETATM    3  C   UNL     1      -9.960  13.696  65.678  1.00  0.00    -0.261 C  
BRANCH   3   4
HETATM    4  C   UNL     1      -9.828  12.199  65.421  1.00  0.00    -0.231 C  
BRANCH   4   5
HETATM    5  C   UNL     1      -9.103  11.448  66.493  1.00  0.00    -0.186 A  
HETATM    6  N   UNL     1      -7.805  11.225  66.430  1.00  0.00    -0.142 NA 
HETATM    7  C   UNL     1      -7.472  10.585  67.580  1.00  0.00    -0.093 A  
HETATM    8  C   UNL     1      -8.577  10.388  68.374  1.00  0.00    -0.128 A  
HETATM    9  N   UNL     1      -9.651  10.892  67.647  1.00  0.00    -0.162 NA 
BRANCH   8  10
HETATM   10  C   UNL     1      -8.704   9.872  69.676  1.00  0.00    -0.218 C  
HETATM   11  O   UNL     1      -8.004   7.189  71.910  1.00  0.00    -0.092 OA 
HETATM   12  C   UNL     1      -8.405   8.598  70.004  1.00  0.00    -0.124 C  
HETATM   13  C   UNL     1      -8.629   8.285  71.446  1.00  0.00    -0.149 C  
HETATM   14  O   UNL     1      -9.347   8.961  72.168  1.00  0.00    -0.348 OA 
BRANCH  12  15
HETATM   15  C   UNL     1      -7.941   7.532  69.047  1.00  0.00    -0.122 C  
BRANCH  15  16
HETATM   16  C   UNL     1      -8.999   6.849  68.220  1.00  0.00    -0.124 A  
HETATM   17  C   UNL     1     -11.028   6.169  67.290  1.00  0.00    -0.418 A  
HETATM   18  C   UNL     1     -10.339   7.150  68.060  1.00  0.00    -0.238 A  
HETATM   19  C   UNL     1     -10.181   5.188  66.829  1.00  0.00    -0.253 A  
HETATM   20  S   UNL     1      -8.566   5.452  67.317  1.00  0.00    -0.107 SA 
ENDBRANCH  15  16
ENDBRANCH  12  15
ENDBRANCH   8  10
BRANCH   9  21
HETATM   21  C   UNL     1     -11.080  10.656  67.911  1.00  0.00    -0.308 C  
BRANCH  21  22
HETATM   22  C   UNL     1     -11.705  11.591  68.927  1.00  0.00    -0.403 A  
HETATM   23  C   UNL     1     -12.248  11.113  70.128  1.00  0.00    -0.417 A  
HETATM   24  C   UNL     1     -12.676  11.987  71.130  1.00  0.00    -0.365 A  
HETATM   25  C   UNL     1     -11.790  12.969  68.683  1.00  0.00    -0.353 A  
HETATM   26  O   UNL     1     -12.072  15.346  72.106  1.00  0.00    -0.336 OA 
HETATM   27  C   UNL     1     -12.210  13.855  69.680  1.00  0.00    -0.374 A  
HETATM   28  C   UNL     1     -12.585  13.364  70.932  1.00  0.00    -0.406 A  
HETATM   29  O   UNL     1     -13.727  14.028  72.915  1.00  0.00    -0.677 OA 
HETATM   30  C   UNL     1     -12.885  14.266  72.068  1.00  0.00    -0.347 C  
ENDBRANCH  21  22
ENDBRANCH   9  21
ENDBRANCH   4   5
ENDBRANCH   3   4
ENDBRANCH   2   3
TORSDOF 8
ENDMDL
MODEL       58
REMARK 921   NORMALIZED FREE ENERGY PREDICTED BY IDOCK:   -5.39 KCAL/MOL
REMARK 922        TOTAL FREE ENERGY PREDICTED BY IDOCK:  -10.03 KCAL/MOL
REMARK 923 INTER-LIGAND FREE ENERGY PREDICTED BY IDOCK:   -8.16 KCAL/MOL
REMARK 924 INTRA-LIGAND FREE ENERGY PREDICTED BY IDOCK:   -1.87 KCAL/MOL
REMARK 927      BINDING AFFINITY PREDICTED BY RF-SCORE:    0.00 PKD
ROOT
HETATM    1  C   UNL     1     -10.107  10.552  63.222  1.00  0.00    -0.123 C  
HETATM    2  C   UNL     1     -10.874  11.818  62.862  1.00  0.00     0.077 C  
ENDROOT
BRANCH   2   3
HETATM    3  C   UNL     1     -12.315  11.723  63.365  1.00  0.00    -0.476 C  
BRANCH   3   4
HETATM    4  C   UNL     1     -12.623  12.469  64.659  1.00  0.00    -0.507 C  
BRANCH   4   5
HETATM    5  C   UNL     1     -11.868  13.750  64.829  1.00  0.00    -0.391 A  
HETATM    6  N   UNL     1     -12.333  14.896  64.373  1.00  0.00    -0.565 NA 
HETATM    7  C   UNL     1     -11.440  15.846  64.750  1.00  0.00    -0.234 A  
HETATM    8  C   UNL     1     -10.389  15.291  65.442  1.00  0.00    -0.393 A  
HETATM    9  N   UNL     1     -10.629  13.920  65.443  1.00  0.00    -0.318 NA 
BRANCH   8  10
HETATM   10  C   UNL     1      -9.298  15.881  66.105  1.00  0.00    -0.385 C  
HETATM   11  O   UNL     1      -8.098  17.471  69.056  1.00  0.00    -0.204 OA 
HETATM   12  C   UNL     1      -9.415  16.579  67.254  1.00  0.00    -0.237 C  
HETATM   13  C   UNL     1      -8.117  17.114  67.760  1.00  0.00    -0.193 C  
HETATM   14  O   UNL     1      -7.131  17.246  67.050  1.00  0.00    -0.159 OA 
BRANCH  12  15
HETATM   15  C   UNL     1     -10.704  16.872  67.976  1.00  0.00    -0.364 C  
BRANCH  15  16
HETATM   16  C   UNL     1     -11.213  15.813  68.920  1.00  0.00    -0.332 A  
HETATM   17  C   UNL     1     -12.216  13.916  69.832  1.00  0.00    -0.393 A  
HETATM   18  C   UNL     1     -11.717  14.553  68.659  1.00  0.00    -0.364 A  
HETATM   19  C   UNL     1     -12.015  14.678  70.959  1.00  0.00    -0.339 A  
HETATM   20  S   UNL     1     -11.225  16.150  70.605  1.00  0.00    -0.272 SA 
ENDBRANCH  15  16
ENDBRANCH  12  15
ENDBRANCH   8  10
BRANCH   9  21
HETATM   21  C   UNL     1      -9.667  12.859  65.782  1.00  0.00    -0.146 C  
BRANCH  21  22
HETATM   22  C   UNL     1      -9.967  12.109  67.065  1.00  0.00    -0.213 A  
HETATM   23  C   UNL     1     -11.085  11.272  67.182  1.00  0.00    -0.364 A  
HETATM   24  C   UNL     1     -11.269  10.460  68.304  1.00  0.00    -0.330 A  
HETATM   25  C   UNL     1      -9.148  12.255  68.194  1.00  0.00    -0.196 A  
HETATM   26  O   UNL     1      -9.269   9.058  70.878  1.00  0.00    -0.216 OA 
HETATM   27  C   UNL     1      -9.318  11.444  69.320  1.00  0.00     0.285 A  
HETATM   28  C   UNL     1     -10.340  10.494  69.342  1.00  0.00    -0.258 A  
HETATM   29  O   UNL     1     -11.533   9.093  70.857  1.00  0.00    -0.269 OA 
HETATM   30  C   UNL     1     -10.466   9.507  70.440  1.00  0.00    -0.278 C  
ENDBRANCH  21  22
ENDBRANCH   9  21
ENDBRANCH   4   5
ENDBRANCH   3   4
ENDBRANCH   2   3
TORSDOF 8
ENDMDL
MODEL       59
REMARK 921   NORMALIZED FREE ENERGY PREDICTED BY IDOCK:   -5.39 KCAL/MOL
REMARK 922        TOTAL FREE ENERGY PREDICTED BY IDOCK:  -10.02 KCAL/MOL
REMARK 923 INTER-LIGAND FREE ENERGY PREDICTED BY IDOCK:   -7.63 KCAL/MOL
REMARK 924 INTRA-LIGAND FREE ENERGY PREDICTED BY IDOCK:   -2.40 KCAL/MOL
REMARK 927      BINDING AFFINITY PREDICTED BY RF-SCORE:    0.00 PKD
ROOT
HETATM    1  C   UNL     1     -11.218  15.346  64.543  1.00  0.00    -0.310 C  
HETATM    2  C   UNL     1     -11.790  13.974  64.211  1.00  0.00    -0.435 C  
ENDROOT
BRANCH   2   3
HETATM    3  C   UNL     1     -10.661  12.992  63.894  1.00  0.00    -0.316 C  
BRANCH   3   4
HETATM    4  C   UNL     1     -11.026  11.513  63.955  1.00  0.00    -0.474 C  
BRANCH   4   5
HETATM    5  C   UNL     1     -10.177  10.704  64.885  1.00  0.00    -0.324 A  
HETATM    6  N   UNL     1      -9.395   9.737  64.450  1.00  0.00    -0.256 NA 
HETATM    7  C   UNL     1      -8.732   9.265  65.536  1.00  0.00    -0.175 A  
HETATM    8  C   UNL     1      -9.110   9.935  66.676  1.00  0.00    -0.147 A  
HETATM    9  N   UNL     1     -10.094  10.830  66.271  1.00  0.00    -0.225 NA 
BRANCH   8  10
HETATM   10  C   UNL     1      -8.628   9.866  67.996  1.00  0.00    -0.121 C  
HETATM   11  O   UNL     1      -8.773   8.219  71.149  1.00  0.00    -0.128 OA 
HETATM   12  C   UNL     1      -9.198   9.110  68.957  1.00  0.00    -0.143 C  
HETATM   13  C   UNL     1      -8.510   9.209  70.278  1.00  0.00    -0.191 C  
HETATM   14  O   UNL     1      -7.767  10.135  70.573  1.00  0.00    -0.232 OA 
BRANCH  12  15
HETATM   15  C   UNL     1     -10.437   8.270  68.794  1.00  0.00    -0.200 C  
BRANCH  15  16
HETATM   16  C   UNL     1     -10.293   6.983  68.024  1.00  0.00    -0.193 A  
HETATM   17  C   UNL     1     -10.579   5.228  66.515  1.00  0.00    -0.348 A  
HETATM   18  C   UNL     1     -10.878   6.584  66.837  1.00  0.00    -0.427 A  
HETATM   19  C   UNL     1      -9.722   4.658  67.427  1.00  0.00    -0.178 A  
HETATM   20  S   UNL     1      -9.277   5.752  68.661  1.00  0.00    -0.119 SA 
ENDBRANCH  15  16
ENDBRANCH  12  15
ENDBRANCH   8  10
BRANCH   9  21
HETATM   21  C   UNL     1     -11.031  11.562  67.140  1.00  0.00    -0.286 C  
BRANCH  21  22
HETATM   22  C   UNL     1     -10.582  12.954  67.535  1.00  0.00    -0.234 A  
HETATM   23  C   UNL     1      -9.286  13.414  67.260  1.00  0.00    -0.233 A  
HETATM   24  C   UNL     1      -8.928  14.747  67.478  1.00  0.00    -0.192 A  
HETATM   25  C   UNL     1     -11.444  13.822  68.221  1.00  0.00    -0.348 A  
HETATM   26  O   UNL     1     -10.563  17.881  67.784  1.00  0.00    -0.392 OA 
HETATM   27  C   UNL     1     -11.099  15.159  68.439  1.00  0.00    -0.286 A  
HETATM   28  C   UNL     1      -9.863  15.638  68.000  1.00  0.00    -0.209 A  
HETATM   29  O   UNL     1      -8.389  17.489  68.280  1.00  0.00    -0.247 OA 
HETATM   30  C   UNL     1      -9.514  17.077  68.064  1.00  0.00    -0.256 C  
ENDBRANCH  21  22
ENDBRANCH   9  21
ENDBRANCH   4   5
ENDBRANCH   3   4
ENDBRANCH   2   3
TORSDOF 8
ENDMDL
MODEL       60
REMARK 921   NORMALIZED FREE ENERGY PREDICTED BY IDOCK:   -5.38 KCAL/MOL
REMARK 922        TOTAL FREE ENERGY PREDICTED BY IDOCK:  -10.01 KCAL/MOL
REMARK 923 INTER-LIGAND FREE ENERGY PREDICTED BY IDOCK:   -7.94 KCAL/MOL
REMARK 924 INTRA-LIGAND FREE ENERGY PREDICTED BY IDOCK:   -2.07 KCAL/MOL
REMARK 927      BINDING AFFINITY PREDICTED BY RF-SCORE:    0.00 PKD
ROOT
HETATM    1  C   UNL     1      -7.403   8.794  63.137  1.00  0.00    -0.099 C  
HETATM    2  C   UNL     1      -8.694   9.575  62.931  1.00  0.00    -0.233 C  
ENDROOT
BRANCH   2   3
HETATM    3  C   UNL     1      -9.436   9.730  64.259  1.00  0.00    -0.196 C  
BRANCH   3   4
HETATM    4  C   UNL     1      -8.611   9.485  65.518  1.00  0.00    -0.163 C  
BRANCH   4   5
HETATM    5  C   UNL     1      -8.401  10.700  66.366  1.00  0.00    -0.151 A  
HETATM    6  N   UNL     1      -7.214  11.258  66.500  1.00  0.00    -0.126 NA 
HETATM    7  C   UNL     1      -7.396  12.359  67.273  1.00  0.00    -0.127 A  
HETATM    8  C   UNL     1      -8.713  12.491  67.645  1.00  0.00    -0.177 A  
HETATM    9  N   UNL     1      -9.362  11.382  67.109  1.00  0.00    -0.171 NA 
BRANCH   8  10
HETATM   10  C   UNL     1      -9.383  13.511  68.345  1.00  0.00    -0.171 C  
HETATM   11  O   UNL     1     -11.474  16.386  68.163  1.00  0.00    -0.283 OA 
HETATM   12  C   UNL     1      -9.942  14.582  67.745  1.00  0.00    -0.225 C  
HETATM   13  C   UNL     1     -10.588  15.529  68.700  1.00  0.00    -0.243 C  
HETATM   14  O   UNL     1     -10.325  15.551  69.894  1.00  0.00    -0.288 OA 
BRANCH  12  15
HETATM   15  C   UNL     1      -9.906  14.880  66.269  1.00  0.00    -0.315 C  
BRANCH  15  16
HETATM   16  C   UNL     1     -10.718  13.982  65.372  1.00  0.00    -0.337 A  
HETATM   17  C   UNL     1     -11.440  12.619  63.622  1.00  0.00    -0.563 A  
HETATM   18  C   UNL     1     -10.332  13.227  64.280  1.00  0.00    -0.315 A  
HETATM   19  C   UNL     1     -12.626  12.872  64.270  1.00  0.00    -0.286 A  
HETATM   20  S   UNL     1     -12.404  13.831  65.665  1.00  0.00    -0.497 SA 
ENDBRANCH  15  16
ENDBRANCH  12  15
ENDBRANCH   8  10
BRANCH   9  21
HETATM   21  C   UNL     1     -10.704  10.892  67.465  1.00  0.00    -0.252 C  
BRANCH  21  22
HETATM   22  C   UNL     1     -10.760  10.032  68.712  1.00  0.00    -0.250 A  
HETATM   23  C   UNL     1     -11.126  10.566  69.956  1.00  0.00    -0.376 A  
HETATM   24  C   UNL     1     -11.333   9.742  71.065  1.00  0.00    -0.460 A  
HETATM   25  C   UNL     1     -10.416   8.673  68.667  1.00  0.00    -0.208 A  
HETATM   26  O   UNL     1     -12.099   6.334  71.690  1.00  0.00    -0.306 OA 
HETATM   27  C   UNL     1     -10.626   7.838  69.769  1.00  0.00    -0.241 A  
HETATM   28  C   UNL     1     -11.155   8.365  70.949  1.00  0.00    -0.289 A  
HETATM   29  O   UNL     1     -11.433   7.830  73.254  1.00  0.00    -0.295 OA 
HETATM   30  C   UNL     1     -11.542   7.500  72.087  1.00  0.00    -0.298 C  
ENDBRANCH  21  22
ENDBRANCH   9  21
ENDBRANCH   4   5
ENDBRANCH   3   4
ENDBRANCH   2   3
TORSDOF 8
ENDMDL
MODEL       61
REMARK 921   NORMALIZED FREE ENERGY PREDICTED BY IDOCK:   -5.36 KCAL/MOL
REMARK 922        TOTAL FREE ENERGY PREDICTED BY IDOCK:   -9.99 KCAL/MOL
REMARK 923 INTER-LIGAND FREE ENERGY PREDICTED BY IDOCK:   -8.08 KCAL/MOL
REMARK 924 INTRA-LIGAND FREE ENERGY PREDICTED BY IDOCK:   -1.91 KCAL/MOL
REMARK 927      BINDING AFFINITY PREDICTED BY RF-SCORE:    0.00 PKD
ROOT
HETATM    1  C   UNL     1      -6.177  20.785  67.800  1.00  0.00    -0.357 C  
HETATM    2  C   UNL     1      -6.546  20.939  66.331  1.00  0.00    -0.298 C  
ENDROOT
BRANCH   2   3
HETATM    3  C   UNL     1      -7.734  20.038  65.986  1.00  0.00    -0.318 C  
BRANCH   3   4
HETATM    4  C   UNL     1      -7.446  18.541  65.939  1.00  0.00    -0.210 C  
BRANCH   4   5
HETATM    5  C   UNL     1      -8.000  17.769  67.095  1.00  0.00    -0.212 A  
HETATM    6  N   UNL     1      -7.225  17.299  68.053  1.00  0.00    -0.185 NA 
HETATM    7  C   UNL     1      -8.051  16.715  68.958  1.00  0.00    -0.199 A  
HETATM    8  C   UNL     1      -9.364  16.804  68.560  1.00  0.00    -0.246 A  
HETATM    9  N   UNL     1      -9.333  17.434  67.320  1.00  0.00    -0.236 NA 
BRANCH   8  10
HETATM   10  C   UNL     1     -10.557  16.442  69.210  1.00  0.00    -0.311 C  
HETATM   11  O   UNL     1     -12.335  13.947  71.025  1.00  0.00    -0.346 OA 
HETATM   12  C   UNL     1     -10.832  15.185  69.614  1.00  0.00    -0.297 C  
HETATM   13  C   UNL     1     -12.165  15.049  70.273  1.00  0.00    -0.340 C  
HETATM   14  O   UNL     1     -13.062  15.867  70.132  1.00  0.00    -0.178 OA 
BRANCH  12  15
HETATM   15  C   UNL     1      -9.951  13.982  69.403  1.00  0.00     0.302 C  
BRANCH  15  16
HETATM   16  C   UNL     1     -10.511  12.864  68.562  1.00  0.00    -0.247 A  
HETATM   17  C   UNL     1     -11.910  11.500  67.289  1.00  0.00    -0.061 A  
HETATM   18  C   UNL     1     -11.688  12.795  67.841  1.00  0.00    -0.408 A  
HETATM   19  C   UNL     1     -10.865  10.643  67.546  1.00  0.00    -0.296 A  
HETATM   20  S   UNL     1      -9.623  11.398  68.443  1.00  0.00    -0.197 SA 
ENDBRANCH  15  16
ENDBRANCH  12  15
ENDBRANCH   8  10
BRANCH   9  21
HETATM   21  C   UNL     1     -10.429  17.497  66.338  1.00  0.00    -0.277 C  
BRANCH  21  22
HETATM   22  C   UNL     1     -10.648  16.227  65.542  1.00  0.00    -0.369 A  
HETATM   23  C   UNL     1      -9.741  15.159  65.597  1.00  0.00    -0.351 A  
HETATM   24  C   UNL     1     -10.026  13.933  64.992  1.00  0.00    -0.213 A  
HETATM   25  C   UNL     1     -11.756  16.089  64.693  1.00  0.00    -0.073 A  
HETATM   26  O   UNL     1     -12.899  12.148  63.918  1.00  0.00    -0.687 OA 
HETATM   27  C   UNL     1     -12.055  14.865  64.088  1.00  0.00    -0.289 A  
HETATM   28  C   UNL     1     -11.223  13.764  64.299  1.00  0.00    -0.321 A  
HETATM   29  O   UNL     1     -10.759  11.599  63.420  1.00  0.00    -0.386 OA 
HETATM   30  C   UNL     1     -11.578  12.411  63.811  1.00  0.00    -0.473 C  
ENDBRANCH  21  22
ENDBRANCH   9  21
ENDBRANCH   4   5
ENDBRANCH   3   4
ENDBRANCH   2   3
TORSDOF 8
ENDMDL
MODEL       62
REMARK 921   NORMALIZED FREE ENERGY PREDICTED BY IDOCK:   -5.34 KCAL/MOL
REMARK 922        TOTAL FREE ENERGY PREDICTED BY IDOCK:   -9.96 KCAL/MOL
REMARK 923 INTER-LIGAND FREE ENERGY PREDICTED BY IDOCK:   -8.92 KCAL/MOL
REMARK 924 INTRA-LIGAND FREE ENERGY PREDICTED BY IDOCK:   -1.03 KCAL/MOL
REMARK 927      BINDING AFFINITY PREDICTED BY RF-SCORE:    0.00 PKD
ROOT
HETATM    1  C   UNL     1     -12.722  11.953  63.345  1.00  0.00    -0.496 C  
HETATM    2  C   UNL     1     -11.232  12.074  63.639  1.00  0.00    -0.528 C  
ENDROOT
BRANCH   2   3
HETATM    3  C   UNL     1     -10.917  13.456  64.212  1.00  0.00    -0.391 C  
BRANCH   3   4
HETATM    4  C   UNL     1     -11.603  13.806  65.529  1.00  0.00    -0.335 C  
BRANCH   4   5
HETATM    5  C   UNL     1     -11.251  12.904  66.669  1.00  0.00    -0.304 A  
HETATM    6  N   UNL     1     -12.153  12.144  67.258  1.00  0.00    -0.525 NA 
HETATM    7  C   UNL     1     -11.487  11.418  68.192  1.00  0.00    -0.305 A  
HETATM    8  C   UNL     1     -10.149  11.734  68.204  1.00  0.00    -0.192 A  
HETATM    9  N   UNL     1      -9.999  12.743  67.258  1.00  0.00    -0.217 NA 
BRANCH   8  10
HETATM   10  C   UNL     1      -9.070  11.178  68.915  1.00  0.00    -0.098 C  
HETATM   11  O   UNL     1      -7.482   8.226  70.114  1.00  0.00    -0.058 OA 
HETATM   12  C   UNL     1      -9.018   9.886  69.297  1.00  0.00    -0.184 C  
HETATM   13  C   UNL     1      -7.775   9.537  70.046  1.00  0.00    -0.142 C  
HETATM   14  O   UNL     1      -7.067  10.375  70.586  1.00  0.00    -0.300 OA 
BRANCH  12  15
HETATM   15  C   UNL     1     -10.096   8.859  69.072  1.00  0.00    -0.205 C  
BRANCH  15  16
HETATM   16  C   UNL     1     -10.887   8.423  70.278  1.00  0.00    -0.239 A  
HETATM   17  C   UNL     1     -11.892   8.309  72.379  1.00  0.00    -0.461 A  
HETATM   18  C   UNL     1     -11.260   9.133  71.404  1.00  0.00    -0.419 A  
HETATM   19  C   UNL     1     -12.044   7.015  71.941  1.00  0.00    -0.323 A  
HETATM   20  S   UNL     1     -11.433   6.796  70.361  1.00  0.00    -0.368 SA 
ENDBRANCH  15  16
ENDBRANCH  12  15
ENDBRANCH   8  10
BRANCH   9  21
HETATM   21  C   UNL     1      -8.836  13.632  67.097  1.00  0.00    -0.230 C  
BRANCH  21  22
HETATM   22  C   UNL     1      -9.098  15.091  67.413  1.00  0.00    -0.194 A  
HETATM   23  C   UNL     1      -9.613  15.493  68.653  1.00  0.00    -0.203 A  
HETATM   24  C   UNL     1      -9.701  16.844  68.999  1.00  0.00    -0.231 A  
HETATM   25  C   UNL     1      -8.861  16.089  66.457  1.00  0.00    -0.340 A  
HETATM   26  O   UNL     1      -8.179  19.899  68.026  1.00  0.00    -0.298 OA 
HETATM   27  C   UNL     1      -8.939  17.444  66.793  1.00  0.00    -0.272 A  
HETATM   28  C   UNL     1      -9.291  17.819  68.091  1.00  0.00    -0.281 A  
HETATM   29  O   UNL     1     -10.015  19.715  69.338  1.00  0.00    -0.401 OA 
HETATM   30  C   UNL     1      -9.235  19.229  68.540  1.00  0.00    -0.382 C  
ENDBRANCH  21  22
ENDBRANCH   9  21
ENDBRANCH   4   5
ENDBRANCH   3   4
ENDBRANCH   2   3
TORSDOF 8
ENDMDL
MODEL       63
REMARK 921   NORMALIZED FREE ENERGY PREDICTED BY IDOCK:   -5.32 KCAL/MOL
REMARK 922        TOTAL FREE ENERGY PREDICTED BY IDOCK:   -9.93 KCAL/MOL
REMARK 923 INTER-LIGAND FREE ENERGY PREDICTED BY IDOCK:   -8.82 KCAL/MOL
REMARK 924 INTRA-LIGAND FREE ENERGY PREDICTED BY IDOCK:   -1.11 KCAL/MOL
REMARK 927      BINDING AFFINITY PREDICTED BY RF-SCORE:    0.00 PKD
ROOT
HETATM    1  C   UNL     1     -12.364  11.836  63.126  1.00  0.00    -0.282 C  
HETATM    2  C   UNL     1     -11.757  12.970  63.943  1.00  0.00    -0.531 C  
ENDROOT
BRANCH   2   3
HETATM    3  C   UNL     1     -12.465  13.086  65.293  1.00  0.00    -0.555 C  
BRANCH   3   4
HETATM    4  C   UNL     1     -12.445  14.466  65.942  1.00  0.00    -0.319 C  
BRANCH   4   5
HETATM    5  C   UNL     1     -11.077  15.042  66.128  1.00  0.00    -0.329 A  
HETATM    6  N   UNL     1     -10.495  15.768  65.194  1.00  0.00    -0.483 NA 
HETATM    7  C   UNL     1      -9.309  16.176  65.712  1.00  0.00    -0.185 A  
HETATM    8  C   UNL     1      -9.132  15.690  66.986  1.00  0.00    -0.219 A  
HETATM    9  N   UNL     1     -10.249  14.901  67.240  1.00  0.00    -0.240 NA 
BRANCH   8  10
HETATM   10  C   UNL     1      -8.124  15.927  67.938  1.00  0.00    -0.149 C  
HETATM   11  O   UNL     1      -6.470  18.300  70.013  1.00  0.00    -0.071 OA 
HETATM   12  C   UNL     1      -7.727  17.161  68.310  1.00  0.00    -0.220 C  
HETATM   13  C   UNL     1      -6.638  17.154  69.330  1.00  0.00    -0.220 C  
HETATM   14  O   UNL     1      -5.922  16.184  69.531  1.00  0.00    -0.142 OA 
BRANCH  12  15
HETATM   15  C   UNL     1      -8.252  18.458  67.751  1.00  0.00    -0.265 C  
BRANCH  15  16
HETATM   16  C   UNL     1      -7.248  19.378  67.106  1.00  0.00    -0.211 A  
HETATM   17  C   UNL     1      -5.998  21.242  66.472  1.00  0.00    -0.357 A  
HETATM   18  C   UNL     1      -6.904  20.680  67.417  1.00  0.00    -0.389 A  
HETATM   19  C   UNL     1      -5.627  20.332  65.510  1.00  0.00    -0.179 A  
HETATM   20  S   UNL     1      -6.361  18.809  65.749  1.00  0.00    -0.263 SA 
ENDBRANCH  15  16
ENDBRANCH  12  15
ENDBRANCH   8  10
BRANCH   9  21
HETATM   21  C   UNL     1     -10.406  13.922  68.328  1.00  0.00    -0.249 C  
BRANCH  21  22
HETATM   22  C   UNL     1     -11.183  14.421  69.530  1.00  0.00    -0.294 A  
HETATM   23  C   UNL     1     -12.156  13.629  70.156  1.00  0.00    -0.431 A  
HETATM   24  C   UNL     1     -12.752  14.025  71.355  1.00  0.00    -0.442 A  
HETATM   25  C   UNL     1     -10.975  15.711  70.039  1.00  0.00    -0.336 A  
HETATM   26  O   UNL     1     -12.008  16.205  74.055  1.00  0.00    -0.363 OA 
HETATM   27  C   UNL     1     -11.561  16.117  71.241  1.00  0.00    -0.470 A  
HETATM   28  C   UNL     1     -12.397  15.241  71.937  1.00  0.00    -0.427 A  
HETATM   29  O   UNL     1     -14.014  15.222  73.687  1.00  0.00     0.336 OA 
HETATM   30  C   UNL     1     -12.915  15.561  73.287  1.00  0.00    -0.538 C  
ENDBRANCH  21  22
ENDBRANCH   9  21
ENDBRANCH   4   5
ENDBRANCH   3   4
ENDBRANCH   2   3
TORSDOF 8
ENDMDL
MODEL       64
REMARK 921   NORMALIZED FREE ENERGY PREDICTED BY IDOCK:   -5.29 KCAL/MOL
REMARK 922        TOTAL FREE ENERGY PREDICTED BY IDOCK:   -9.88 KCAL/MOL
REMARK 923 INTER-LIGAND FREE ENERGY PREDICTED BY IDOCK:   -8.44 KCAL/MOL
REMARK 924 INTRA-LIGAND FREE ENERGY PREDICTED BY IDOCK:   -1.44 KCAL/MOL
REMARK 927      BINDING AFFINITY PREDICTED BY RF-SCORE:    0.00 PKD
ROOT
HETATM    1  C   UNL     1     -14.142   8.651  71.870  1.00  0.00    -0.512 C  
HETATM    2  C   UNL     1     -12.807   9.357  72.064  1.00  0.00    -0.496 C  
ENDROOT
BRANCH   2   3
HETATM    3  C   UNL     1     -12.828  10.725  71.381  1.00  0.00    -0.557 C  
BRANCH   3   4
HETATM    4  C   UNL     1     -11.741  10.970  70.340  1.00  0.00    -0.437 C  
BRANCH   4   5
HETATM    5  C   UNL     1     -11.786  12.324  69.705  1.00  0.00    -0.324 A  
HETATM    6  N   UNL     1     -12.053  13.410  70.402  1.00  0.00    -0.349 NA 
HETATM    7  C   UNL     1     -11.951  14.452  69.537  1.00  0.00    -0.330 A  
HETATM    8  C   UNL     1     -11.628  14.017  68.274  1.00  0.00    -0.329 A  
HETATM    9  N   UNL     1     -11.580  12.629  68.361  1.00  0.00    -0.306 NA 
BRANCH   8  10
HETATM   10  C   UNL     1     -11.321  14.725  67.098  1.00  0.00    -0.363 C  
HETATM   11  O   UNL     1      -9.416  17.324  65.584  1.00  0.00    -0.515 OA 
HETATM   12  C   UNL     1     -10.603  15.866  67.083  1.00  0.00    -0.316 C  
HETATM   13  C   UNL     1     -10.416  16.435  65.716  1.00  0.00    -0.354 C  
HETATM   14  O   UNL     1     -11.131  16.137  64.769  1.00  0.00    -0.532 OA 
BRANCH  12  15
HETATM   15  C   UNL     1     -10.060  16.578  68.294  1.00  0.00    -0.259 C  
BRANCH  15  16
HETATM   16  C   UNL     1      -8.689  16.171  68.768  1.00  0.00    -0.240 A  
HETATM   17  C   UNL     1      -6.876  14.992  69.641  1.00  0.00    -0.183 A  
HETATM   18  C   UNL     1      -8.198  14.926  69.113  1.00  0.00    -0.151 A  
HETATM   19  C   UNL     1      -6.375  16.272  69.618  1.00  0.00    -0.198 A  
HETATM   20  S   UNL     1      -7.489  17.386  68.960  1.00  0.00    -0.125 SA 
ENDBRANCH  15  16
ENDBRANCH  12  15
ENDBRANCH   8  10
BRANCH   9  21
HETATM   21  C   UNL     1     -11.576  11.677  67.238  1.00  0.00    -0.238 C  
BRANCH  21  22
HETATM   22  C   UNL     1     -10.240  11.015  66.966  1.00  0.00    -0.250 A  
HETATM   23  C   UNL     1      -9.040  11.739  67.002  1.00  0.00    -0.187 A  
HETATM   24  C   UNL     1      -7.802  11.098  66.912  1.00  0.00    -0.152 A  
HETATM   25  C   UNL     1     -10.163   9.654  66.638  1.00  0.00    -0.302 A  
HETATM   26  O   UNL     1      -6.490   7.848  67.470  1.00  0.00    -0.053 OA 
HETATM   27  C   UNL     1      -8.931   8.999  66.551  1.00  0.00    -0.177 A  
HETATM   28  C   UNL     1      -7.749   9.714  66.761  1.00  0.00    -0.098 A  
HETATM   29  O   UNL     1      -5.396   9.537  66.432  1.00  0.00    -0.043 OA 
HETATM   30  C   UNL     1      -6.432   9.041  66.837  1.00  0.00    -0.064 C  
ENDBRANCH  21  22
ENDBRANCH   9  21
ENDBRANCH   4   5
ENDBRANCH   3   4
ENDBRANCH   2   3
TORSDOF 8
ENDMDL
MODEL       65
REMARK 921   NORMALIZED FREE ENERGY PREDICTED BY IDOCK:   -5.29 KCAL/MOL
REMARK 922        TOTAL FREE ENERGY PREDICTED BY IDOCK:   -9.88 KCAL/MOL
REMARK 923 INTER-LIGAND FREE ENERGY PREDICTED BY IDOCK:   -7.61 KCAL/MOL
REMARK 924 INTRA-LIGAND FREE ENERGY PREDICTED BY IDOCK:   -2.27 KCAL/MOL
REMARK 927      BINDING AFFINITY PREDICTED BY RF-SCORE:    0.00 PKD
ROOT
HETATM    1  C   UNL     1      -6.349   8.863  69.852  1.00  0.00    -0.038 C  
HETATM    2  C   UNL     1      -6.066   7.790  68.809  1.00  0.00    -0.039 C  
ENDROOT
BRANCH   2   3
HETATM    3  C   UNL     1      -7.371   7.131  68.361  1.00  0.00    -0.100 C  
BRANCH   3   4
HETATM    4  C   UNL     1      -7.709   7.257  66.879  1.00  0.00    -0.110 C  
BRANCH   4   5
HETATM    5  C   UNL     1      -8.160   8.621  66.461  1.00  0.00    -0.103 A  
HETATM    6  N   UNL     1      -7.303   9.559  66.111  1.00  0.00    -0.092 NA 
HETATM    7  C   UNL     1      -8.045  10.632  65.735  1.00  0.00    -0.158 A  
HETATM    8  C   UNL     1      -9.390  10.372  65.862  1.00  0.00    -0.182 A  
HETATM    9  N   UNL     1      -9.471   9.088  66.392  1.00  0.00    -0.206 NA 
BRANCH   8  10
HETATM   10  C   UNL     1     -10.519  11.130  65.503  1.00  0.00    -0.317 C  
HETATM   11  O   UNL     1     -12.192  14.268  65.670  1.00  0.00    -0.400 OA 
HETATM   12  C   UNL     1     -10.802  12.340  66.027  1.00  0.00    -0.310 C  
HETATM   13  C   UNL     1     -12.058  12.942  65.493  1.00  0.00    -0.458 C  
HETATM   14  O   UNL     1     -12.930  12.283  64.945  1.00  0.00    -0.662 OA 
BRANCH  12  15
HETATM   15  C   UNL     1     -10.000  13.044  67.090  1.00  0.00    -0.235 C  
BRANCH  15  16
HETATM   16  C   UNL     1     -10.741  13.478  68.328  1.00  0.00    -0.258 A  
HETATM   17  C   UNL     1     -12.204  13.597  70.141  1.00  0.00    -0.413 A  
HETATM   18  C   UNL     1     -11.610  12.774  69.140  1.00  0.00    -0.373 A  
HETATM   19  C   UNL     1     -11.717  14.883  70.107  1.00  0.00    -0.294 A  
HETATM   20  S   UNL     1     -10.550  15.095  68.879  1.00  0.00    -0.251 SA 
ENDBRANCH  15  16
ENDBRANCH  12  15
ENDBRANCH   8  10
BRANCH   9  21
HETATM   21  C   UNL     1     -10.657   8.459  66.995  1.00  0.00    -0.246 C  
BRANCH  21  22
HETATM   22  C   UNL     1     -10.641   8.383  68.509  1.00  0.00    -0.149 A  
HETATM   23  C   UNL     1     -11.014   7.216  69.190  1.00  0.00    -0.142 A  
HETATM   24  C   UNL     1     -10.844   7.096  70.571  1.00  0.00    -0.269 A  
HETATM   25  C   UNL     1     -10.281   9.496  69.283  1.00  0.00    -0.212 A  
HETATM   26  O   UNL     1      -8.858   8.592  73.104  1.00  0.00    -0.343 OA 
HETATM   27  C   UNL     1     -10.101   9.387  70.665  1.00  0.00    -0.356 A  
HETATM   28  C   UNL     1     -10.315   8.161  71.298  1.00  0.00    -0.243 A  
HETATM   29  O   UNL     1     -10.629   7.229  73.468  1.00  0.00    -0.368 OA 
HETATM   30  C   UNL     1      -9.988   7.952  72.728  1.00  0.00    -0.283 C  
ENDBRANCH  21  22
ENDBRANCH   9  21
ENDBRANCH   4   5
ENDBRANCH   3   4
ENDBRANCH   2   3
TORSDOF 8
ENDMDL
MODEL       66
REMARK 921   NORMALIZED FREE ENERGY PREDICTED BY IDOCK:   -5.27 KCAL/MOL
REMARK 922        TOTAL FREE ENERGY PREDICTED BY IDOCK:   -9.85 KCAL/MOL
REMARK 923 INTER-LIGAND FREE ENERGY PREDICTED BY IDOCK:   -8.77 KCAL/MOL
REMARK 924 INTRA-LIGAND FREE ENERGY PREDICTED BY IDOCK:   -1.08 KCAL/MOL
REMARK 927      BINDING AFFINITY PREDICTED BY RF-SCORE:    0.00 PKD
ROOT
HETATM    1  C   UNL     1     -13.521   8.980  72.398  1.00  0.00    -0.524 C  
HETATM    2  C   UNL     1     -13.153  10.328  71.791  1.00  0.00    -0.570 C  
ENDROOT
BRANCH   2   3
HETATM    3  C   UNL     1     -11.893  10.196  70.935  1.00  0.00    -0.468 C  
BRANCH   3   4
HETATM    4  C   UNL     1     -11.599  11.359  69.993  1.00  0.00    -0.382 C  
BRANCH   4   5
HETATM    5  C   UNL     1     -10.561  11.068  68.956  1.00  0.00    -0.225 A  
HETATM    6  N   UNL     1      -9.363  10.620  69.277  1.00  0.00    -0.162 NA 
HETATM    7  C   UNL     1      -8.710  10.406  68.107  1.00  0.00    -0.125 A  
HETATM    8  C   UNL     1      -9.500  10.737  67.031  1.00  0.00    -0.164 A  
HETATM    9  N   UNL     1     -10.683  11.226  67.577  1.00  0.00    -0.217 NA 
BRANCH   8  10
HETATM   10  C   UNL     1      -9.294  10.590  65.648  1.00  0.00    -0.242 C  
HETATM   11  O   UNL     1      -8.418   8.414  62.970  1.00  0.00    -0.145 OA 
HETATM   12  C   UNL     1      -8.725   9.501  65.092  1.00  0.00    -0.200 C  
HETATM   13  C   UNL     1      -8.608   9.583  63.606  1.00  0.00    -0.212 C  
HETATM   14  O   UNL     1      -8.659  10.640  62.993  1.00  0.00    -0.176 OA 
BRANCH  12  15
HETATM   15  C   UNL     1      -8.189   8.311  65.843  1.00  0.00    -0.119 C  
BRANCH  15  16
HETATM   16  C   UNL     1      -9.185   7.254  66.246  1.00  0.00    -0.130 A  
HETATM   17  C   UNL     1     -10.955   6.099  67.233  1.00  0.00    -0.418 A  
HETATM   18  C   UNL     1     -10.374   7.367  66.941  1.00  0.00    -0.367 A  
HETATM   19  C   UNL     1     -10.229   5.063  66.693  1.00  0.00    -0.263 A  
HETATM   20  S   UNL     1      -8.860   5.617  65.836  1.00  0.00    -0.150 SA 
ENDBRANCH  15  16
ENDBRANCH  12  15
ENDBRANCH   8  10
BRANCH   9  21
HETATM   21  C   UNL     1     -11.727  11.988  66.873  1.00  0.00    -0.266 C  
BRANCH  21  22
HETATM   22  C   UNL     1     -11.417  13.456  66.664  1.00  0.00    -0.376 A  
HETATM   23  C   UNL     1     -11.691  14.412  67.653  1.00  0.00    -0.421 A  
HETATM   24  C   UNL     1     -11.257  15.734  67.523  1.00  0.00    -0.218 A  
HETATM   25  C   UNL     1     -10.872  13.914  65.456  1.00  0.00    -0.306 A  
HETATM   26  O   UNL     1      -8.761  17.507  65.728  1.00  0.00    -0.514 OA 
HETATM   27  C   UNL     1     -10.429  15.232  65.317  1.00  0.00    -0.436 A  
HETATM   28  C   UNL     1     -10.558  16.125  66.383  1.00  0.00    -0.269 A  
HETATM   29  O   UNL     1     -10.474  18.456  66.866  1.00  0.00    -0.379 OA 
HETATM   30  C   UNL     1      -9.965  17.482  66.343  1.00  0.00    -0.325 C  
ENDBRANCH  21  22
ENDBRANCH   9  21
ENDBRANCH   4   5
ENDBRANCH   3   4
ENDBRANCH   2   3
TORSDOF 8
ENDMDL
MODEL       67
REMARK 921   NORMALIZED FREE ENERGY PREDICTED BY IDOCK:   -5.27 KCAL/MOL
REMARK 922        TOTAL FREE ENERGY PREDICTED BY IDOCK:   -9.85 KCAL/MOL
REMARK 923 INTER-LIGAND FREE ENERGY PREDICTED BY IDOCK:   -7.49 KCAL/MOL
REMARK 924 INTRA-LIGAND FREE ENERGY PREDICTED BY IDOCK:   -2.36 KCAL/MOL
REMARK 927      BINDING AFFINITY PREDICTED BY RF-SCORE:    0.00 PKD
ROOT
HETATM    1  C   UNL     1      -9.524   6.115  70.510  1.00  0.00    -0.182 C  
HETATM    2  C   UNL     1      -8.305   6.441  69.657  1.00  0.00    -0.126 C  
ENDROOT
BRANCH   2   3
HETATM    3  C   UNL     1      -7.923   7.913  69.821  1.00  0.00    -0.114 C  
BRANCH   3   4
HETATM    4  C   UNL     1      -9.084   8.897  69.922  1.00  0.00    -0.166 C  
BRANCH   4   5
HETATM    5  C   UNL     1      -9.091   9.956  68.864  1.00  0.00    -0.156 A  
HETATM    6  N   UNL     1      -8.464  11.104  69.026  1.00  0.00    -0.093 NA 
HETATM    7  C   UNL     1      -8.621  11.790  67.865  1.00  0.00    -0.156 A  
HETATM    8  C   UNL     1      -9.370  11.072  66.963  1.00  0.00    -0.172 A  
HETATM    9  N   UNL     1      -9.731   9.905  67.628  1.00  0.00    -0.152 NA 
BRANCH   8  10
HETATM   10  C   UNL     1      -9.700  11.327  65.620  1.00  0.00    -0.267 C  
HETATM   11  O   UNL     1     -11.880  12.975  63.337  1.00  0.00    -0.524 OA 
HETATM   12  C   UNL     1     -10.850  11.919  65.235  1.00  0.00    -0.347 C  
HETATM   13  C   UNL     1     -10.974  12.073  63.756  1.00  0.00    -0.426 C  
HETATM   14  O   UNL     1     -10.317  11.416  62.962  1.00  0.00    -0.306 OA 
BRANCH  12  15
HETATM   15  C   UNL     1     -11.962  12.354  66.152  1.00  0.00    -0.397 C  
BRANCH  15  16
HETATM   16  C   UNL     1     -11.695  13.549  67.030  1.00  0.00    -0.383 A  
HETATM   17  C   UNL     1     -11.659  15.072  68.796  1.00  0.00    -0.357 A  
HETATM   18  C   UNL     1     -11.940  13.740  68.377  1.00  0.00    -0.395 A  
HETATM   19  C   UNL     1     -11.143  15.836  67.775  1.00  0.00    -0.313 A  
HETATM   20  S   UNL     1     -10.995  14.950  66.323  1.00  0.00    -0.340 SA 
ENDBRANCH  15  16
ENDBRANCH  12  15
ENDBRANCH   8  10
BRANCH   9  21
HETATM   21  C   UNL     1     -10.773   8.948  67.221  1.00  0.00    -0.149 C  
BRANCH  21  22
HETATM   22  C   UNL     1     -10.261   7.583  66.805  1.00  0.00    -0.324 A  
HETATM   23  C   UNL     1     -10.983   6.413  67.079  1.00  0.00    -0.463 A  
HETATM   24  C   UNL     1     -10.591   5.179  66.555  1.00  0.00    -0.320 A  
HETATM   25  C   UNL     1      -9.026   7.443  66.157  1.00  0.00    -0.182 A  
HETATM   26  O   UNL     1      -8.636   3.989  63.843  1.00  0.00    -0.096 OA 
HETATM   27  C   UNL     1      -8.625   6.215  65.622  1.00  0.00    -0.148 A  
HETATM   28  C   UNL     1      -9.448   5.096  65.762  1.00  0.00    -0.153 A  
HETATM   29  O   UNL     1      -9.394   2.722  65.560  1.00  0.00    -0.140 OA 
HETATM   30  C   UNL     1      -9.147   3.814  65.082  1.00  0.00    -0.142 C  
ENDBRANCH  21  22
ENDBRANCH   9  21
ENDBRANCH   4   5
ENDBRANCH   3   4
ENDBRANCH   2   3
TORSDOF 8
ENDMDL
MODEL       68
REMARK 921   NORMALIZED FREE ENERGY PREDICTED BY IDOCK:   -5.26 KCAL/MOL
REMARK 922        TOTAL FREE ENERGY PREDICTED BY IDOCK:   -9.84 KCAL/MOL
REMARK 923 INTER-LIGAND FREE ENERGY PREDICTED BY IDOCK:   -8.04 KCAL/MOL
REMARK 924 INTRA-LIGAND FREE ENERGY PREDICTED BY IDOCK:   -1.80 KCAL/MOL
REMARK 927      BINDING AFFINITY PREDICTED BY RF-SCORE:    0.00 PKD
ROOT
HETATM    1  C   UNL     1     -14.019  13.950  72.310  1.00  0.00    -0.663 C  
HETATM    2  C   UNL     1     -12.893  13.160  71.654  1.00  0.00    -0.388 C  
ENDROOT
BRANCH   2   3
HETATM    3  C   UNL     1     -13.095  11.662  71.885  1.00  0.00    -0.490 C  
BRANCH   3   4
HETATM    4  C   UNL     1     -13.036  10.781  70.641  1.00  0.00    -0.313 C  
BRANCH   4   5
HETATM    5  C   UNL     1     -11.651  10.417  70.207  1.00  0.00    -0.327 A  
HETATM    6  N   UNL     1     -10.829   9.748  70.991  1.00  0.00    -0.334 NA 
HETATM    7  C   UNL     1      -9.700   9.536  70.268  1.00  0.00    -0.263 A  
HETATM    8  C   UNL     1      -9.804  10.092  69.014  1.00  0.00    -0.199 A  
HETATM    9  N   UNL     1     -11.045  10.719  68.989  1.00  0.00    -0.233 NA 
BRANCH   8  10
HETATM   10  C   UNL     1      -8.944  10.040  67.902  1.00  0.00    -0.131 C  
HETATM   11  O   UNL     1      -8.326   8.705  64.660  1.00  0.00    -0.159 OA 
HETATM   12  C   UNL     1      -9.074   9.144  66.902  1.00  0.00    -0.163 C  
HETATM   13  C   UNL     1      -8.037   9.285  65.838  1.00  0.00    -0.111 C  
HETATM   14  O   UNL     1      -6.978   9.870  66.016  1.00  0.00    -0.094 OA 
BRANCH  12  15
HETATM   15  C   UNL     1     -10.107   8.050  66.833  1.00  0.00    -0.362 C  
BRANCH  15  16
HETATM   16  C   UNL     1      -9.666   6.669  67.244  1.00  0.00    -0.134 A  
HETATM   17  C   UNL     1      -8.464   4.855  68.082  1.00  0.00    -0.102 A  
HETATM   18  C   UNL     1      -8.620   6.271  68.055  1.00  0.00    -0.116 A  
HETATM   19  C   UNL     1      -9.435   4.215  67.349  1.00  0.00    -0.187 A  
HETATM   20  S   UNL     1     -10.531   5.314  66.637  1.00  0.00    -0.262 SA 
ENDBRANCH  15  16
ENDBRANCH  12  15
ENDBRANCH   8  10
BRANCH   9  21
HETATM   21  C   UNL     1     -11.512  11.706  68.001  1.00  0.00    -0.315 C  
BRANCH  21  22
HETATM   22  C   UNL     1     -11.078  13.133  68.268  1.00  0.00    -0.295 A  
HETATM   23  C   UNL     1      -9.726  13.504  68.254  1.00  0.00    -0.224 A  
HETATM   24  C   UNL     1      -9.340  14.844  68.339  1.00  0.00    -0.197 A  
HETATM   25  C   UNL     1     -12.018  14.128  68.573  1.00  0.00    -0.367 A  
HETATM   26  O   UNL     1     -10.784  18.028  67.728  1.00  0.00    -0.410 OA 
HETATM   27  C   UNL     1     -11.645  15.473  68.654  1.00  0.00    -0.379 A  
HETATM   28  C   UNL     1     -10.311  15.837  68.465  1.00  0.00    -0.229 A  
HETATM   29  O   UNL     1      -8.825  17.668  68.804  1.00  0.00    -0.278 OA 
HETATM   30  C   UNL     1      -9.890  17.255  68.385  1.00  0.00    -0.309 C  
ENDBRANCH  21  22
ENDBRANCH   9  21
ENDBRANCH   4   5
ENDBRANCH   3   4
ENDBRANCH   2   3
TORSDOF 8
ENDMDL
MODEL       69
REMARK 921   NORMALIZED FREE ENERGY PREDICTED BY IDOCK:   -5.23 KCAL/MOL
REMARK 922        TOTAL FREE ENERGY PREDICTED BY IDOCK:   -9.79 KCAL/MOL
REMARK 923 INTER-LIGAND FREE ENERGY PREDICTED BY IDOCK:   -8.53 KCAL/MOL
REMARK 924 INTRA-LIGAND FREE ENERGY PREDICTED BY IDOCK:   -1.26 KCAL/MOL
REMARK 927      BINDING AFFINITY PREDICTED BY RF-SCORE:    0.00 PKD
ROOT
HETATM    1  C   UNL     1      -8.423   9.247  63.130  1.00  0.00    -0.212 C  
HETATM    2  C   UNL     1      -8.429  10.611  63.807  1.00  0.00    -0.068 C  
ENDROOT
BRANCH   2   3
HETATM    3  C   UNL     1      -9.635  11.428  63.341  1.00  0.00    -0.344 C  
BRANCH   3   4
HETATM    4  C   UNL     1     -10.965  11.099  64.013  1.00  0.00    -0.269 C  
BRANCH   4   5
HETATM    5  C   UNL     1     -11.464  12.157  64.946  1.00  0.00    -0.325 A  
HETATM    6  N   UNL     1     -12.266  13.121  64.540  1.00  0.00    -0.437 NA 
HETATM    7  C   UNL     1     -12.569  13.854  65.641  1.00  0.00    -0.517 A  
HETATM    8  C   UNL     1     -11.938  13.356  66.756  1.00  0.00    -0.394 A  
HETATM    9  N   UNL     1     -11.169  12.289  66.301  1.00  0.00    -0.306 NA 
BRANCH   8  10
HETATM   10  C   UNL     1     -12.029  13.715  68.113  1.00  0.00    -0.390 C  
HETATM   11  O   UNL     1     -11.769  16.303  70.544  1.00  0.00    -0.303 OA 
HETATM   12  C   UNL     1     -11.606  14.900  68.599  1.00  0.00    -0.342 C  
HETATM   13  C   UNL     1     -11.803  15.045  70.071  1.00  0.00    -0.319 C  
HETATM   14  O   UNL     1     -11.966  14.090  70.816  1.00  0.00    -0.324 OA 
BRANCH  12  15
HETATM   15  C   UNL     1     -10.942  15.990  67.799  1.00  0.00    -0.307 C  
BRANCH  15  16
HETATM   16  C   UNL     1      -9.452  15.885  67.608  1.00  0.00    -0.219 A  
HETATM   17  C   UNL     1      -7.191  15.364  67.848  1.00  0.00    -0.160 A  
HETATM   18  C   UNL     1      -8.532  15.050  68.213  1.00  0.00    -0.147 A  
HETATM   19  C   UNL     1      -7.133  16.381  66.924  1.00  0.00    -0.221 A  
HETATM   20  S   UNL     1      -8.686  16.950  66.497  1.00  0.00    -0.287 SA 
ENDBRANCH  15  16
ENDBRANCH  12  15
ENDBRANCH   8  10
BRANCH   9  21
HETATM   21  C   UNL     1     -10.082  11.614  67.030  1.00  0.00    -0.209 C  
BRANCH  21  22
HETATM   22  C   UNL     1     -10.537  10.593  68.054  1.00  0.00    -0.248 A  
HETATM   23  C   UNL     1     -10.410   9.216  67.824  1.00  0.00    -0.302 A  
HETATM   24  C   UNL     1     -10.678   8.285  68.831  1.00  0.00    -0.089 A  
HETATM   25  C   UNL     1     -11.132  10.995  69.258  1.00  0.00    -0.312 A  
HETATM   26  O   UNL     1     -10.830   8.232  72.376  1.00  0.00    -0.306 OA 
HETATM   27  C   UNL     1     -11.398  10.074  70.275  1.00  0.00    -0.376 A  
HETATM   28  C   UNL     1     -11.102   8.723  70.084  1.00  0.00    -0.214 A  
HETATM   29  O   UNL     1     -11.559   6.577  71.013  1.00  0.00    -0.318 OA 
HETATM   30  C   UNL     1     -11.217   7.734  71.180  1.00  0.00    -0.264 C  
ENDBRANCH  21  22
ENDBRANCH   9  21
ENDBRANCH   4   5
ENDBRANCH   3   4
ENDBRANCH   2   3
TORSDOF 8
ENDMDL
MODEL       70
REMARK 921   NORMALIZED FREE ENERGY PREDICTED BY IDOCK:   -5.23 KCAL/MOL
REMARK 922        TOTAL FREE ENERGY PREDICTED BY IDOCK:   -9.79 KCAL/MOL
REMARK 923 INTER-LIGAND FREE ENERGY PREDICTED BY IDOCK:   -7.94 KCAL/MOL
REMARK 924 INTRA-LIGAND FREE ENERGY PREDICTED BY IDOCK:   -1.84 KCAL/MOL
REMARK 927      BINDING AFFINITY PREDICTED BY RF-SCORE:    0.00 PKD
ROOT
HETATM    1  C   UNL     1     -12.547  13.453  70.809  1.00  0.00    -0.369 C  
HETATM    2  C   UNL     1     -13.242  12.827  72.011  1.00  0.00    -0.538 C  
ENDROOT
BRANCH   2   3
HETATM    3  C   UNL     1     -13.151  11.302  71.940  1.00  0.00    -0.510 C  
BRANCH   3   4
HETATM    4  C   UNL     1     -12.603  10.726  70.639  1.00  0.00    -0.446 C  
BRANCH   4   5
HETATM    5  C   UNL     1     -11.296  10.011  70.782  1.00  0.00    -0.360 A  
HETATM    6  N   UNL     1     -11.137   9.016  71.632  1.00  0.00    -0.339 NA 
HETATM    7  C   UNL     1      -9.869   8.565  71.458  1.00  0.00    -0.239 A  
HETATM    8  C   UNL     1      -9.212   9.293  70.494  1.00  0.00    -0.261 A  
HETATM    9  N   UNL     1     -10.114  10.275  70.093  1.00  0.00    -0.142 NA 
BRANCH   8  10
HETATM   10  C   UNL     1      -7.943   9.131  69.911  1.00  0.00    -0.104 C  
HETATM   11  O   UNL     1      -5.765   7.042  68.021  1.00  0.00    -0.019 OA 
HETATM   12  C   UNL     1      -7.496   7.958  69.416  1.00  0.00    -0.091 C  
HETATM   13  C   UNL     1      -6.114   8.036  68.857  1.00  0.00    -0.039 C  
HETATM   14  O   UNL     1      -5.330   8.929  69.145  1.00  0.00    -0.035 OA 
BRANCH  12  15
HETATM   15  C   UNL     1      -8.245   6.652  69.443  1.00  0.00    -0.124 C  
BRANCH  15  16
HETATM   16  C   UNL     1      -9.197   6.388  68.305  1.00  0.00    -0.112 A  
HETATM   17  C   UNL     1     -11.018   6.430  66.849  1.00  0.00    -0.413 A  
HETATM   18  C   UNL     1     -10.311   7.094  67.892  1.00  0.00    -0.248 A  
HETATM   19  C   UNL     1     -10.386   5.275  66.451  1.00  0.00    -0.268 A  
HETATM   20  S   UNL     1      -8.946   4.997  67.327  1.00  0.00    -0.114 SA 
ENDBRANCH  15  16
ENDBRANCH  12  15
ENDBRANCH   8  10
BRANCH   9  21
HETATM   21  C   UNL     1      -9.807  11.485  69.314  1.00  0.00     0.236 C  
BRANCH  21  22
HETATM   22  C   UNL     1     -10.387  11.508  67.914  1.00  0.00    -0.203 A  
HETATM   23  C   UNL     1     -11.444  12.362  67.570  1.00  0.00    -0.410 A  
HETATM   24  C   UNL     1     -11.866  12.498  66.245  1.00  0.00    -0.453 A  
HETATM   25  C   UNL     1      -9.902  10.647  66.918  1.00  0.00    -0.228 A  
HETATM   26  O   UNL     1     -10.529  11.957  63.003  1.00  0.00    -0.329 OA 
HETATM   27  C   UNL     1     -10.313  10.777  65.588  1.00  0.00    -0.297 A  
HETATM   28  C   UNL     1     -11.246  11.756  65.242  1.00  0.00    -0.315 A  
HETATM   29  O   UNL     1     -12.706  12.375  63.464  1.00  0.00    -0.727 OA 
HETATM   30  C   UNL     1     -11.595  12.039  63.830  1.00  0.00    -0.449 C  
ENDBRANCH  21  22
ENDBRANCH   9  21
ENDBRANCH   4   5
ENDBRANCH   3   4
ENDBRANCH   2   3
TORSDOF 8
ENDMDL
MODEL       71
REMARK 921   NORMALIZED FREE ENERGY PREDICTED BY IDOCK:   -5.19 KCAL/MOL
REMARK 922        TOTAL FREE ENERGY PREDICTED BY IDOCK:   -9.73 KCAL/MOL
REMARK 923 INTER-LIGAND FREE ENERGY PREDICTED BY IDOCK:   -8.06 KCAL/MOL
REMARK 924 INTRA-LIGAND FREE ENERGY PREDICTED BY IDOCK:   -1.67 KCAL/MOL
REMARK 927      BINDING AFFINITY PREDICTED BY RF-SCORE:    0.00 PKD
ROOT
HETATM    1  C   UNL     1     -14.398   8.698  71.977  1.00  0.00    -0.512 C  
HETATM    2  C   UNL     1     -13.263   9.687  72.210  1.00  0.00    -0.492 C  
ENDROOT
BRANCH   2   3
HETATM    3  C   UNL     1     -12.571  10.019  70.887  1.00  0.00    -0.424 C  
BRANCH   3   4
HETATM    4  C   UNL     1     -11.117   9.576  70.764  1.00  0.00    -0.390 C  
BRANCH   4   5
HETATM    5  C   UNL     1     -10.925   8.278  70.045  1.00  0.00    -0.197 A  
HETATM    6  N   UNL     1     -11.465   7.156  70.478  1.00  0.00    -0.296 NA 
HETATM    7  C   UNL     1     -11.146   6.202  69.567  1.00  0.00    -0.420 A  
HETATM    8  C   UNL     1     -10.382   6.725  68.550  1.00  0.00    -0.190 A  
HETATM    9  N   UNL     1     -10.182   8.060  68.886  1.00  0.00    -0.206 NA 
BRANCH   8  10
HETATM   10  C   UNL     1      -9.911   6.153  67.354  1.00  0.00    -0.166 C  
HETATM   11  O   UNL     1      -7.647   3.876  65.817  1.00  0.00    -0.082 OA 
HETATM   12  C   UNL     1      -8.793   5.404  67.278  1.00  0.00    -0.105 C  
HETATM   13  C   UNL     1      -8.497   4.915  65.899  1.00  0.00    -0.119 C  
HETATM   14  O   UNL     1      -8.972   5.428  64.896  1.00  0.00    -0.111 OA 
BRANCH  12  15
HETATM   15  C   UNL     1      -7.861   5.099  68.421  1.00  0.00    -0.087 C  
BRANCH  15  16
HETATM   16  C   UNL     1      -8.331   4.087  69.433  1.00  0.00    -0.061 A  
HETATM   17  C   UNL     1      -9.387   2.296  70.491  1.00  0.00    -0.198 A  
HETATM   18  C   UNL     1      -9.010   2.896  69.255  1.00  0.00    -0.175 A  
HETATM   19  C   UNL     1      -8.925   3.009  71.572  1.00  0.00    -0.093 A  
HETATM   20  S   UNL     1      -8.039   4.390  71.099  1.00  0.00    -0.083 SA 
ENDBRANCH  15  16
ENDBRANCH  12  15
ENDBRANCH   8  10
BRANCH   9  21
HETATM   21  C   UNL     1      -9.193   8.977  68.296  1.00  0.00    -0.136 C  
BRANCH  21  22
HETATM   22  C   UNL     1      -9.754   9.964  67.293  1.00  0.00    -0.213 A  
HETATM   23  C   UNL     1      -9.584   9.785  65.912  1.00  0.00    -0.313 A  
HETATM   24  C   UNL     1     -10.238  10.604  64.989  1.00  0.00    -0.380 A  
HETATM   25  C   UNL     1     -10.437  11.113  67.716  1.00  0.00    -0.225 A  
HETATM   26  O   UNL     1     -13.095  12.708  64.917  1.00  0.00    -0.850 OA 
HETATM   27  C   UNL     1     -11.101  11.937  66.802  1.00  0.00    -0.359 A  
HETATM   28  C   UNL     1     -11.058  11.637  65.439  1.00  0.00    -0.299 A  
HETATM   29  O   UNL     1     -11.499  12.618  63.313  1.00  0.00    -0.483 OA 
HETATM   30  C   UNL     1     -11.869  12.383  64.448  1.00  0.00    -0.389 C  
ENDBRANCH  21  22
ENDBRANCH   9  21
ENDBRANCH   4   5
ENDBRANCH   3   4
ENDBRANCH   2   3
TORSDOF 8
ENDMDL
MODEL       72
REMARK 921   NORMALIZED FREE ENERGY PREDICTED BY IDOCK:   -5.18 KCAL/MOL
REMARK 922        TOTAL FREE ENERGY PREDICTED BY IDOCK:   -9.71 KCAL/MOL
REMARK 923 INTER-LIGAND FREE ENERGY PREDICTED BY IDOCK:   -7.66 KCAL/MOL
REMARK 924 INTRA-LIGAND FREE ENERGY PREDICTED BY IDOCK:   -2.06 KCAL/MOL
REMARK 927      BINDING AFFINITY PREDICTED BY RF-SCORE:    0.00 PKD
ROOT
HETATM    1  C   UNL     1      -8.494   7.372  72.095  1.00  0.00    -0.124 C  
HETATM    2  C   UNL     1      -9.276   8.073  73.198  1.00  0.00    -0.347 C  
ENDROOT
BRANCH   2   3
HETATM    3  C   UNL     1     -10.772   8.049  72.883  1.00  0.00    -0.403 C  
BRANCH   3   4
HETATM    4  C   UNL     1     -11.143   8.032  71.403  1.00  0.00    -0.278 C  
BRANCH   4   5
HETATM    5  C   UNL     1     -11.525   9.367  70.846  1.00  0.00    -0.316 A  
HETATM    6  N   UNL     1     -12.754   9.833  70.939  1.00  0.00    -0.282 NA 
HETATM    7  C   UNL     1     -12.732  11.077  70.395  1.00  0.00    -0.218 A  
HETATM    8  C   UNL     1     -11.474  11.396  69.940  1.00  0.00    -0.273 A  
HETATM    9  N   UNL     1     -10.698  10.265  70.174  1.00  0.00    -0.289 NA 
BRANCH   8  10
HETATM   10  C   UNL     1     -10.955  12.589  69.407  1.00  0.00    -0.055 C  
HETATM   11  O   UNL     1     -10.969  14.914  66.711  1.00  0.00    -0.314 OA 
HETATM   12  C   UNL     1     -11.160  12.986  68.134  1.00  0.00    -0.285 C  
HETATM   13  C   UNL     1     -10.501  14.284  67.802  1.00  0.00    -0.245 C  
HETATM   14  O   UNL     1      -9.580  14.748  68.458  1.00  0.00    -0.205 OA 
BRANCH  12  15
HETATM   15  C   UNL     1     -11.921  12.218  67.087  1.00  0.00    -0.207 C  
BRANCH  15  16
HETATM   16  C   UNL     1     -11.176  11.858  65.828  1.00  0.00    -0.312 A  
HETATM   17  C   UNL     1      -9.555  11.162  64.302  1.00  0.00    -0.288 A  
HETATM   18  C   UNL     1      -9.987  11.173  65.660  1.00  0.00    -0.297 A  
HETATM   19  C   UNL     1     -10.459  11.776  63.468  1.00  0.00    -0.449 A  
HETATM   20  S   UNL     1     -11.822  12.358  64.316  1.00  0.00    -0.424 SA 
ENDBRANCH  15  16
ENDBRANCH  12  15
ENDBRANCH   8  10
BRANCH   9  21
HETATM   21  C   UNL     1      -9.372   9.975  69.604  1.00  0.00    -0.220 C  
BRANCH  21  22
HETATM   22  C   UNL     1      -9.352   8.880  68.557  1.00  0.00    -0.141 A  
HETATM   23  C   UNL     1      -8.214   8.090  68.342  1.00  0.00    -0.123 A  
HETATM   24  C   UNL     1      -8.251   6.981  67.494  1.00  0.00    -0.116 A  
HETATM   25  C   UNL     1     -10.467   8.642  67.741  1.00  0.00    -0.287 A  
HETATM   26  O   UNL     1     -10.698   4.783  66.161  1.00  0.00    -0.308 OA 
HETATM   27  C   UNL     1     -10.518   7.532  66.892  1.00  0.00    -0.385 A  
HETATM   28  C   UNL     1      -9.431   6.659  66.825  1.00  0.00    -0.194 A  
HETATM   29  O   UNL     1      -8.544   4.908  65.476  1.00  0.00    -0.125 OA 
HETATM   30  C   UNL     1      -9.494   5.389  66.066  1.00  0.00    -0.146 C  
ENDBRANCH  21  22
ENDBRANCH   9  21
ENDBRANCH   4   5
ENDBRANCH   3   4
ENDBRANCH   2   3
TORSDOF 8
ENDMDL
MODEL       73
REMARK 921   NORMALIZED FREE ENERGY PREDICTED BY IDOCK:   -5.18 KCAL/MOL
REMARK 922        TOTAL FREE ENERGY PREDICTED BY IDOCK:   -9.71 KCAL/MOL
REMARK 923 INTER-LIGAND FREE ENERGY PREDICTED BY IDOCK:   -8.20 KCAL/MOL
REMARK 924 INTRA-LIGAND FREE ENERGY PREDICTED BY IDOCK:   -1.52 KCAL/MOL
REMARK 927      BINDING AFFINITY PREDICTED BY RF-SCORE:    0.00 PKD
ROOT
HETATM    1  C   UNL     1      -6.205  14.971  67.999  1.00  0.00    -0.161 C  
HETATM    2  C   UNL     1      -6.602  13.577  68.467  1.00  0.00    -0.089 C  
ENDROOT
BRANCH   2   3
HETATM    3  C   UNL     1      -8.062  13.296  68.112  1.00  0.00    -0.159 C  
BRANCH   3   4
HETATM    4  C   UNL     1      -8.371  11.886  67.618  1.00  0.00    -0.152 C  
BRANCH   4   5
HETATM    5  C   UNL     1      -8.465  10.858  68.701  1.00  0.00    -0.152 A  
HETATM    6  N   UNL     1      -7.399  10.236  69.164  1.00  0.00    -0.086 NA 
HETATM    7  C   UNL     1      -7.833   9.431  70.168  1.00  0.00    -0.142 A  
HETATM    8  C   UNL     1      -9.194   9.536  70.332  1.00  0.00    -0.253 A  
HETATM    9  N   UNL     1      -9.621  10.415  69.342  1.00  0.00    -0.214 NA 
BRANCH   8  10
HETATM   10  C   UNL     1     -10.058   8.982  71.294  1.00  0.00    -0.384 C  
HETATM   11  O   UNL     1     -11.079   6.074  73.076  1.00  0.00    -0.260 OA 
HETATM   12  C   UNL     1     -10.195   7.656  71.496  1.00  0.00    -0.212 C  
HETATM   13  C   UNL     1     -11.177   7.315  72.567  1.00  0.00    -0.301 C  
HETATM   14  O   UNL     1     -12.035   8.095  72.955  1.00  0.00    -0.313 OA 
BRANCH  12  15
HETATM   15  C   UNL     1      -9.498   6.573  70.716  1.00  0.00    -0.180 C  
BRANCH  15  16
HETATM   16  C   UNL     1      -9.827   6.469  69.249  1.00  0.00    -0.148 A  
HETATM   17  C   UNL     1     -10.928   6.193  67.212  1.00  0.00    -0.418 A  
HETATM   18  C   UNL     1     -11.053   6.433  68.611  1.00  0.00    -0.393 A  
HETATM   19  C   UNL     1      -9.613   6.122  66.816  1.00  0.00    -0.148 A  
HETATM   20  S   UNL     1      -8.536   6.348  68.122  1.00  0.00    -0.116 SA 
ENDBRANCH  15  16
ENDBRANCH  12  15
ENDBRANCH   8  10
BRANCH   9  21
HETATM   21  C   UNL     1     -11.006  10.629  68.893  1.00  0.00    -0.249 C  
BRANCH  21  22
HETATM   22  C   UNL     1     -11.713  11.804  69.539  1.00  0.00    -0.408 A  
HETATM   23  C   UNL     1     -12.505  11.645  70.685  1.00  0.00    -0.386 A  
HETATM   24  C   UNL     1     -13.020  12.748  71.370  1.00  0.00    -0.359 A  
HETATM   25  C   UNL     1     -11.624  13.091  68.989  1.00  0.00    -0.367 A  
HETATM   26  O   UNL     1     -12.290  16.206  71.690  1.00  0.00    -0.442 OA 
HETATM   27  C   UNL     1     -12.130  14.203  69.668  1.00  0.00    -0.400 A  
HETATM   28  C   UNL     1     -12.768  14.035  70.899  1.00  0.00    -0.420 A  
HETATM   29  O   UNL     1     -14.179  15.197  72.427  1.00  0.00    -0.492 OA 
HETATM   30  C   UNL     1     -13.180  15.189  71.730  1.00  0.00    -0.395 C  
ENDBRANCH  21  22
ENDBRANCH   9  21
ENDBRANCH   4   5
ENDBRANCH   3   4
ENDBRANCH   2   3
TORSDOF 8
ENDMDL
MODEL       74
REMARK 921   NORMALIZED FREE ENERGY PREDICTED BY IDOCK:   -5.15 KCAL/MOL
REMARK 922        TOTAL FREE ENERGY PREDICTED BY IDOCK:   -9.67 KCAL/MOL
REMARK 923 INTER-LIGAND FREE ENERGY PREDICTED BY IDOCK:   -8.71 KCAL/MOL
REMARK 924 INTRA-LIGAND FREE ENERGY PREDICTED BY IDOCK:   -0.96 KCAL/MOL
REMARK 927      BINDING AFFINITY PREDICTED BY RF-SCORE:    0.00 PKD
ROOT
HETATM    1  C   UNL     1     -13.713   7.654  71.488  1.00  0.00    -0.440 C  
HETATM    2  C   UNL     1     -13.749   9.146  71.793  1.00  0.00    -0.465 C  
ENDROOT
BRANCH   2   3
HETATM    3  C   UNL     1     -12.362   9.760  71.595  1.00  0.00    -0.495 C  
BRANCH   3   4
HETATM    4  C   UNL     1     -12.298  10.992  70.697  1.00  0.00    -0.480 C  
BRANCH   4   5
HETATM    5  C   UNL     1     -11.683  10.747  69.355  1.00  0.00    -0.306 A  
HETATM    6  N   UNL     1     -11.030   9.635  69.082  1.00  0.00    -0.192 NA 
HETATM    7  C   UNL     1     -10.668   9.717  67.776  1.00  0.00    -0.272 A  
HETATM    8  C   UNL     1     -11.086  10.904  67.220  1.00  0.00    -0.283 A  
HETATM    9  N   UNL     1     -11.693  11.605  68.258  1.00  0.00    -0.442 NA 
BRANCH   8  10
HETATM   10  C   UNL     1     -11.032  11.379  65.898  1.00  0.00    -0.268 C  
HETATM   11  O   UNL     1      -9.955  10.801  62.554  1.00  0.00    -0.143 OA 
HETATM   12  C   UNL     1     -10.265  10.823  64.938  1.00  0.00    -0.388 C  
HETATM   13  C   UNL     1     -10.372  11.510  63.617  1.00  0.00    -0.417 C  
HETATM   14  O   UNL     1     -10.791  12.652  63.495  1.00  0.00    -0.429 OA 
BRANCH  12  15
HETATM   15  C   UNL     1      -9.330   9.658  65.127  1.00  0.00    -0.322 C  
BRANCH  15  16
HETATM   16  C   UNL     1      -7.873   9.980  65.337  1.00  0.00    -0.136 A  
HETATM   17  C   UNL     1      -5.865  10.910  66.073  1.00  0.00    -0.143 A  
HETATM   18  C   UNL     1      -7.260  10.747  66.310  1.00  0.00    -0.137 A  
HETATM   19  C   UNL     1      -5.443  10.208  64.968  1.00  0.00    -0.097 A  
HETATM   20  S   UNL     1      -6.722   9.353  64.225  1.00  0.00    -0.099 SA 
ENDBRANCH  15  16
ENDBRANCH  12  15
ENDBRANCH   8  10
BRANCH   9  21
HETATM   21  C   UNL     1     -12.034  13.037  68.270  1.00  0.00    -0.267 C  
BRANCH  21  22
HETATM   22  C   UNL     1     -10.930  13.961  67.796  1.00  0.00    -0.271 A  
HETATM   23  C   UNL     1     -11.091  14.781  66.670  1.00  0.00    -0.333 A  
HETATM   24  C   UNL     1     -10.138  15.746  66.333  1.00  0.00    -0.305 A  
HETATM   25  C   UNL     1      -9.693  14.003  68.455  1.00  0.00    -0.223 A  
HETATM   26  O   UNL     1      -7.559  17.559  67.962  1.00  0.00    -0.207 OA 
HETATM   27  C   UNL     1      -8.734  14.968  68.131  1.00  0.00    -0.165 A  
HETATM   28  C   UNL     1      -8.992  15.888  67.112  1.00  0.00    -0.226 A  
HETATM   29  O   UNL     1      -7.878  17.470  65.722  1.00  0.00    -0.544 OA 
HETATM   30  C   UNL     1      -8.081  17.024  66.836  1.00  0.00    -0.219 C  
ENDBRANCH  21  22
ENDBRANCH   9  21
ENDBRANCH   4   5
ENDBRANCH   3   4
ENDBRANCH   2   3
TORSDOF 8
ENDMDL
MODEL       75
REMARK 921   NORMALIZED FREE ENERGY PREDICTED BY IDOCK:   -5.15 KCAL/MOL
REMARK 922        TOTAL FREE ENERGY PREDICTED BY IDOCK:   -9.67 KCAL/MOL
REMARK 923 INTER-LIGAND FREE ENERGY PREDICTED BY IDOCK:   -8.20 KCAL/MOL
REMARK 924 INTRA-LIGAND FREE ENERGY PREDICTED BY IDOCK:   -1.47 KCAL/MOL
REMARK 927      BINDING AFFINITY PREDICTED BY RF-SCORE:    0.00 PKD
ROOT
HETATM    1  C   UNL     1     -12.595  11.930  63.399  1.00  0.00    -0.555 C  
HETATM    2  C   UNL     1     -12.484  12.746  64.680  1.00  0.00    -0.525 C  
ENDROOT
BRANCH   2   3
HETATM    3  C   UNL     1     -11.017  13.034  64.999  1.00  0.00    -0.320 C  
BRANCH   3   4
HETATM    4  C   UNL     1     -10.114  11.814  65.151  1.00  0.00    -0.298 C  
BRANCH   4   5
HETATM    5  C   UNL     1      -9.682  11.536  66.556  1.00  0.00    -0.203 A  
HETATM    6  N   UNL     1      -8.739  12.243  67.147  1.00  0.00    -0.186 NA 
HETATM    7  C   UNL     1      -8.646  11.771  68.416  1.00  0.00    -0.156 A  
HETATM    8  C   UNL     1      -9.534  10.742  68.627  1.00  0.00    -0.188 A  
HETATM    9  N   UNL     1     -10.167  10.543  67.404  1.00  0.00    -0.200 NA 
BRANCH   8  10
HETATM   10  C   UNL     1      -9.865  10.025  69.791  1.00  0.00    -0.270 C  
HETATM   11  O   UNL     1     -12.435   8.918  71.991  1.00  0.00    -0.342 OA 
HETATM   12  C   UNL     1     -11.083  10.066  70.368  1.00  0.00    -0.393 C  
HETATM   13  C   UNL     1     -11.187   9.226  71.598  1.00  0.00    -0.379 C  
HETATM   14  O   UNL     1     -10.210   8.852  72.231  1.00  0.00    -0.296 OA 
BRANCH  12  15
HETATM   15  C   UNL     1     -12.248  10.897  69.901  1.00  0.00    -0.408 C  
BRANCH  15  16
HETATM   16  C   UNL     1     -12.504  12.188  70.635  1.00  0.00    -0.242 A  
HETATM   17  C   UNL     1     -13.291  13.807  72.118  1.00  0.00    -0.569 A  
HETATM   18  C   UNL     1     -13.142  12.418  71.840  1.00  0.00    -0.471 A  
HETATM   19  C   UNL     1     -12.701  14.592  71.155  1.00  0.00    -0.339 A  
HETATM   20  S   UNL     1     -11.970  13.659  69.926  1.00  0.00    -0.340 SA 
ENDBRANCH  15  16
ENDBRANCH  12  15
ENDBRANCH   8  10
BRANCH   9  21
HETATM   21  C   UNL     1     -10.975   9.376  67.012  1.00  0.00     0.126 C  
BRANCH  21  22
HETATM   22  C   UNL     1     -10.207   8.074  66.900  1.00  0.00    -0.385 A  
HETATM   23  C   UNL     1     -10.564   6.945  67.651  1.00  0.00    -0.328 A  
HETATM   24  C   UNL     1      -9.959   5.705  67.428  1.00  0.00    -0.180 A  
HETATM   25  C   UNL     1      -9.089   7.966  66.061  1.00  0.00    -0.181 A  
HETATM   26  O   UNL     1      -8.203   4.083  64.805  1.00  0.00    -0.095 OA 
HETATM   27  C   UNL     1      -8.480   6.730  65.825  1.00  0.00    -0.150 A  
HETATM   28  C   UNL     1      -8.966   5.584  66.458  1.00  0.00    -0.123 A  
HETATM   29  O   UNL     1      -8.352   3.333  66.936  1.00  0.00    -0.093 OA 
HETATM   30  C   UNL     1      -8.460   4.233  66.123  1.00  0.00    -0.112 C  
ENDBRANCH  21  22
ENDBRANCH   9  21
ENDBRANCH   4   5
ENDBRANCH   3   4
ENDBRANCH   2   3
TORSDOF 8
ENDMDL
MODEL       76
REMARK 921   NORMALIZED FREE ENERGY PREDICTED BY IDOCK:   -5.15 KCAL/MOL
REMARK 922        TOTAL FREE ENERGY PREDICTED BY IDOCK:   -9.67 KCAL/MOL
REMARK 923 INTER-LIGAND FREE ENERGY PREDICTED BY IDOCK:   -7.77 KCAL/MOL
REMARK 924 INTRA-LIGAND FREE ENERGY PREDICTED BY IDOCK:   -1.90 KCAL/MOL
REMARK 927      BINDING AFFINITY PREDICTED BY RF-SCORE:    0.00 PKD
ROOT
HETATM    1  C   UNL     1      -6.590  19.412  69.435  1.00  0.00    -0.364 C  
HETATM    2  C   UNL     1      -6.378  17.952  69.054  1.00  0.00    -0.232 C  
ENDROOT
BRANCH   2   3
HETATM    3  C   UNL     1      -7.667  17.364  68.477  1.00  0.00    -0.267 C  
BRANCH   3   4
HETATM    4  C   UNL     1      -8.206  16.120  69.176  1.00  0.00    -0.230 C  
BRANCH   4   5
HETATM    5  C   UNL     1      -7.988  14.845  68.425  1.00  0.00    -0.134 A  
HETATM    6  N   UNL     1      -6.784  14.336  68.252  1.00  0.00    -0.095 NA 
HETATM    7  C   UNL     1      -6.958  13.162  67.594  1.00  0.00    -0.154 A  
HETATM    8  C   UNL     1      -8.288  12.932  67.335  1.00  0.00    -0.190 A  
HETATM    9  N   UNL     1      -8.959  14.051  67.818  1.00  0.00    -0.177 NA 
BRANCH   8  10
HETATM   10  C   UNL     1      -8.947  11.820  66.778  1.00  0.00    -0.196 C  
HETATM   11  O   UNL     1     -10.767   8.818  67.370  1.00  0.00    -0.267 OA 
HETATM   12  C   UNL     1      -9.348  10.755  67.501  1.00  0.00    -0.158 C  
HETATM   13  C   UNL     1     -10.018   9.700  66.685  1.00  0.00    -0.236 C  
HETATM   14  O   UNL     1      -9.887   9.616  65.472  1.00  0.00    -0.302 OA 
BRANCH  12  15
HETATM   15  C   UNL     1      -9.124  10.561  68.978  1.00  0.00    -0.188 C  
BRANCH  15  16
HETATM   16  C   UNL     1      -8.141   9.494  69.385  1.00  0.00    -0.116 A  
HETATM   17  C   UNL     1      -6.462   7.876  69.390  1.00  0.00    -0.035 A  
HETATM   18  C   UNL     1      -7.058   8.973  68.703  1.00  0.00    -0.071 A  
HETATM   19  C   UNL     1      -7.063   7.639  70.604  1.00  0.00    -0.054 A  
HETATM   20  S   UNL     1      -8.335   8.736  70.914  1.00  0.00    -0.180 SA 
ENDBRANCH  15  16
ENDBRANCH  12  15
ENDBRANCH   8  10
BRANCH   9  21
HETATM   21  C   UNL     1     -10.347  14.440  67.521  1.00  0.00    -0.251 C  
BRANCH  21  22
HETATM   22  C   UNL     1     -11.304  14.338  68.692  1.00  0.00    -0.302 A  
HETATM   23  C   UNL     1     -11.673  13.098  69.232  1.00  0.00    -0.376 A  
HETATM   24  C   UNL     1     -12.423  13.013  70.408  1.00  0.00    -0.266 A  
HETATM   25  C   UNL     1     -11.879  15.486  69.256  1.00  0.00    -0.372 A  
HETATM   26  O   UNL     1     -13.123  15.061  73.221  1.00  0.00    -0.488 OA 
HETATM   27  C   UNL     1     -12.626  15.414  70.436  1.00  0.00    -0.433 A  
HETATM   28  C   UNL     1     -12.836  14.178  71.051  1.00  0.00    -0.421 A  
HETATM   29  O   UNL     1     -14.206  13.141  72.702  1.00  0.00    -0.677 OA 
HETATM   30  C   UNL     1     -13.482  14.066  72.379  1.00  0.00    -0.539 C  
ENDBRANCH  21  22
ENDBRANCH   9  21
ENDBRANCH   4   5
ENDBRANCH   3   4
ENDBRANCH   2   3
TORSDOF 8
ENDMDL
MODEL       77
REMARK 921   NORMALIZED FREE ENERGY PREDICTED BY IDOCK:   -5.14 KCAL/MOL
REMARK 922        TOTAL FREE ENERGY PREDICTED BY IDOCK:   -9.66 KCAL/MOL
REMARK 923 INTER-LIGAND FREE ENERGY PREDICTED BY IDOCK:   -8.15 KCAL/MOL
REMARK 924 INTRA-LIGAND FREE ENERGY PREDICTED BY IDOCK:   -1.51 KCAL/MOL
REMARK 927      BINDING AFFINITY PREDICTED BY RF-SCORE:    0.00 PKD
ROOT
HETATM    1  C   UNL     1      -6.635  10.125  69.597  1.00  0.00    -0.069 C  
HETATM    2  C   UNL     1      -6.704   9.289  68.326  1.00  0.00    -0.060 C  
ENDROOT
BRANCH   2   3
HETATM    3  C   UNL     1      -6.543  10.183  67.096  1.00  0.00    -0.069 C  
BRANCH   3   4
HETATM    4  C   UNL     1      -7.835  10.616  66.410  1.00  0.00    -0.144 C  
BRANCH   4   5
HETATM    5  C   UNL     1      -9.083  10.186  67.114  1.00  0.00    -0.135 A  
HETATM    6  N   UNL     1      -9.705   9.065  66.806  1.00  0.00    -0.196 NA 
HETATM    7  C   UNL     1     -10.745   8.956  67.671  1.00  0.00    -0.151 A  
HETATM    8  C   UNL     1     -10.790  10.030  68.529  1.00  0.00    -0.231 A  
HETATM    9  N   UNL     1      -9.749  10.864  68.133  1.00  0.00    -0.161 NA 
BRANCH   8  10
HETATM   10  C   UNL     1     -11.611  10.298  69.639  1.00  0.00    -0.267 C  
HETATM   11  O   UNL     1     -12.795   9.208  72.815  1.00  0.00    -0.311 OA 
HETATM   12  C   UNL     1     -11.890   9.388  70.595  1.00  0.00    -0.268 C  
HETATM   13  C   UNL     1     -12.791   9.907  71.666  1.00  0.00    -0.436 C  
HETATM   14  O   UNL     1     -13.500  10.891  71.518  1.00  0.00    -0.243 OA 
BRANCH  12  15
HETATM   15  C   UNL     1     -11.417   7.958  70.610  1.00  0.00    -0.247 C  
BRANCH  15  16
HETATM   16  C   UNL     1     -10.064   7.694  71.219  1.00  0.00    -0.186 A  
HETATM   17  C   UNL     1      -8.144   7.778  72.540  1.00  0.00    -0.156 A  
HETATM   18  C   UNL     1      -9.508   8.163  72.394  1.00  0.00    -0.319 A  
HETATM   19  C   UNL     1      -7.723   6.971  71.509  1.00  0.00    -0.090 A  
HETATM   20  S   UNL     1      -8.966   6.676  70.376  1.00  0.00    -0.152 SA 
ENDBRANCH  15  16
ENDBRANCH  12  15
ENDBRANCH   8  10
BRANCH   9  21
HETATM   21  C   UNL     1      -9.552  12.270  68.523  1.00  0.00    -0.125 C  
BRANCH  21  22
HETATM   22  C   UNL     1     -10.148  13.287  67.570  1.00  0.00    -0.223 A  
HETATM   23  C   UNL     1      -9.351  14.242  66.923  1.00  0.00    -0.268 A  
HETATM   24  C   UNL     1      -9.876  15.069  65.927  1.00  0.00    -0.369 A  
HETATM   25  C   UNL     1     -11.529  13.326  67.329  1.00  0.00    -0.378 A  
HETATM   26  O   UNL     1     -12.628  15.047  63.686  1.00  0.00    -0.680 OA 
HETATM   27  C   UNL     1     -12.064  14.145  66.330  1.00  0.00    -0.475 A  
HETATM   28  C   UNL     1     -11.221  14.966  65.579  1.00  0.00    -0.348 A  
HETATM   29  O   UNL     1     -11.292  16.829  64.096  1.00  0.00    -1.194 OA 
HETATM   30  C   UNL     1     -11.714  15.731  64.410  1.00  0.00    -0.201 C  
ENDBRANCH  21  22
ENDBRANCH   9  21
ENDBRANCH   4   5
ENDBRANCH   3   4
ENDBRANCH   2   3
TORSDOF 8
ENDMDL
MODEL       78
REMARK 921   NORMALIZED FREE ENERGY PREDICTED BY IDOCK:   -5.14 KCAL/MOL
REMARK 922        TOTAL FREE ENERGY PREDICTED BY IDOCK:   -9.66 KCAL/MOL
REMARK 923 INTER-LIGAND FREE ENERGY PREDICTED BY IDOCK:   -7.27 KCAL/MOL
REMARK 924 INTRA-LIGAND FREE ENERGY PREDICTED BY IDOCK:   -2.39 KCAL/MOL
REMARK 927      BINDING AFFINITY PREDICTED BY RF-SCORE:    0.00 PKD
ROOT
HETATM    1  C   UNL     1     -14.328   7.854  71.521  1.00  0.00    -0.563 C  
HETATM    2  C   UNL     1     -13.517   8.862  72.326  1.00  0.00    -0.503 C  
ENDROOT
BRANCH   2   3
HETATM    3  C   UNL     1     -12.316   9.345  71.512  1.00  0.00    -0.452 C  
BRANCH   3   4
HETATM    4  C   UNL     1     -11.369   8.261  71.009  1.00  0.00    -0.299 C  
BRANCH   4   5
HETATM    5  C   UNL     1     -10.036   8.766  70.554  1.00  0.00    -0.195 A  
HETATM    6  N   UNL     1      -9.156   9.264  71.399  1.00  0.00    -0.303 NA 
HETATM    7  C   UNL     1      -8.052   9.561  70.669  1.00  0.00    -0.113 A  
HETATM    8  C   UNL     1      -8.241   9.259  69.340  1.00  0.00    -0.114 A  
HETATM    9  N   UNL     1      -9.551   8.799  69.248  1.00  0.00    -0.161 NA 
BRANCH   8  10
HETATM   10  C   UNL     1      -7.359   9.297  68.245  1.00  0.00    -0.078 C  
HETATM   11  O   UNL     1      -5.524  11.310  65.952  1.00  0.00    -0.190 OA 
HETATM   12  C   UNL     1      -7.085  10.419  67.549  1.00  0.00    -0.086 C  
HETATM   13  C   UNL     1      -6.126  10.205  66.426  1.00  0.00    -0.070 C  
HETATM   14  O   UNL     1      -5.904   9.103  65.944  1.00  0.00    -0.049 OA 
BRANCH  12  15
HETATM   15  C   UNL     1      -7.695  11.775  67.794  1.00  0.00    -0.133 C  
BRANCH  15  16
HETATM   16  C   UNL     1      -6.994  12.670  68.782  1.00  0.00    -0.096 A  
HETATM   17  C   UNL     1      -5.713  13.488  70.552  1.00  0.00    -0.170 A  
HETATM   18  C   UNL     1      -6.015  12.376  69.714  1.00  0.00    -0.136 A  
HETATM   19  C   UNL     1      -6.418  14.612  70.191  1.00  0.00    -0.166 A  
HETATM   20  S   UNL     1      -7.433  14.330  68.847  1.00  0.00    -0.102 SA 
ENDBRANCH  15  16
ENDBRANCH  12  15
ENDBRANCH   8  10
BRANCH   9  21
HETATM   21  C   UNL     1     -10.340   8.634  68.017  1.00  0.00    -0.223 C  
BRANCH  21  22
HETATM   22  C   UNL     1     -10.727   9.927  67.327  1.00  0.00    -0.304 A  
HETATM   23  C   UNL     1     -11.446  10.928  67.994  1.00  0.00    -0.356 A  
HETATM   24  C   UNL     1     -11.660  12.179  67.410  1.00  0.00    -0.410 A  
HETATM   25  C   UNL     1     -10.404  10.151  65.981  1.00  0.00    -0.234 A  
HETATM   26  O   UNL     1     -10.179  14.171  64.873  1.00  0.00    -0.412 OA 
HETATM   27  C   UNL     1     -10.606  11.400  65.388  1.00  0.00    -0.333 A  
HETATM   28  C   UNL     1     -11.171  12.439  66.131  1.00  0.00    -0.364 A  
HETATM   29  O   UNL     1     -12.181  14.579  65.852  1.00  0.00    -0.349 OA 
HETATM   30  C   UNL     1     -11.262  13.819  65.602  1.00  0.00    -0.302 C  
ENDBRANCH  21  22
ENDBRANCH   9  21
ENDBRANCH   4   5
ENDBRANCH   3   4
ENDBRANCH   2   3
TORSDOF 8
ENDMDL
MODEL       79
REMARK 921   NORMALIZED FREE ENERGY PREDICTED BY IDOCK:   -5.13 KCAL/MOL
REMARK 922        TOTAL FREE ENERGY PREDICTED BY IDOCK:   -9.64 KCAL/MOL
REMARK 923 INTER-LIGAND FREE ENERGY PREDICTED BY IDOCK:   -7.74 KCAL/MOL
REMARK 924 INTRA-LIGAND FREE ENERGY PREDICTED BY IDOCK:   -1.90 KCAL/MOL
REMARK 927      BINDING AFFINITY PREDICTED BY RF-SCORE:    0.00 PKD
ROOT
HETATM    1  C   UNL     1      -7.279  14.160  67.813  1.00  0.00    -0.187 C  
HETATM    2  C   UNL     1      -7.036  13.067  68.845  1.00  0.00    -0.088 C  
ENDROOT
BRANCH   2   3
HETATM    3  C   UNL     1      -6.896  11.710  68.155  1.00  0.00    -0.068 C  
BRANCH   3   4
HETATM    4  C   UNL     1      -8.200  11.003  67.799  1.00  0.00    -0.117 C  
BRANCH   4   5
HETATM    5  C   UNL     1      -8.858  10.305  68.947  1.00  0.00    -0.157 A  
HETATM    6  N   UNL     1      -8.167   9.596  69.818  1.00  0.00    -0.143 NA 
HETATM    7  C   UNL     1      -9.056   9.163  70.747  1.00  0.00    -0.255 A  
HETATM    8  C   UNL     1     -10.329   9.593  70.453  1.00  0.00    -0.291 A  
HETATM    9  N   UNL     1     -10.217  10.284  69.251  1.00  0.00    -0.214 NA 
BRANCH   8  10
HETATM   10  C   UNL     1     -11.535   9.481  71.168  1.00  0.00    -0.430 C  
HETATM   11  O   UNL     1     -14.203   7.372  72.221  1.00  0.00    -0.131 OA 
HETATM   12  C   UNL     1     -12.344   8.404  71.099  1.00  0.00    -0.219 C  
HETATM   13  C   UNL     1     -13.569   8.525  71.943  1.00  0.00    -0.396 C  
HETATM   14  O   UNL     1     -13.994   9.597  72.347  1.00  0.00    -0.327 OA 
BRANCH  12  15
HETATM   15  C   UNL     1     -12.120   7.192  70.234  1.00  0.00    -0.061 C  
BRANCH  15  16
HETATM   16  C   UNL     1     -11.149   6.160  70.745  1.00  0.00    -0.309 A  
HETATM   17  C   UNL     1      -9.638   4.390  70.914  1.00  0.00    -0.255 A  
HETATM   18  C   UNL     1     -10.298   5.317  70.056  1.00  0.00    -0.365 A  
HETATM   19  C   UNL     1      -9.953   4.600  72.237  1.00  0.00    -0.177 A  
HETATM   20  S   UNL     1     -11.032   5.907  72.441  1.00  0.00    -0.278 SA 
ENDBRANCH  15  16
ENDBRANCH  12  15
ENDBRANCH   8  10
BRANCH   9  21
HETATM   21  C   UNL     1     -11.319  10.679  68.358  1.00  0.00    -0.283 C  
BRANCH  21  22
HETATM   22  C   UNL     1     -11.298  12.130  67.919  1.00  0.00    -0.361 A  
HETATM   23  C   UNL     1     -11.077  13.170  68.833  1.00  0.00    -0.310 A  
HETATM   24  C   UNL     1     -10.897  14.487  68.403  1.00  0.00    -0.250 A  
HETATM   25  C   UNL     1     -11.532  12.483  66.582  1.00  0.00    -0.417 A  
HETATM   26  O   UNL     1      -9.925  16.161  65.428  1.00  0.00    -0.482 OA 
HETATM   27  C   UNL     1     -11.349  13.796  66.139  1.00  0.00    -0.320 A  
HETATM   28  C   UNL     1     -10.959  14.786  67.043  1.00  0.00    -0.324 A  
HETATM   29  O   UNL     1     -10.829  17.156  67.250  1.00  0.00    -0.251 OA 
HETATM   30  C   UNL     1     -10.600  16.153  66.599  1.00  0.00    -0.274 C  
ENDBRANCH  21  22
ENDBRANCH   9  21
ENDBRANCH   4   5
ENDBRANCH   3   4
ENDBRANCH   2   3
TORSDOF 8
ENDMDL
MODEL       80
REMARK 921   NORMALIZED FREE ENERGY PREDICTED BY IDOCK:   -5.12 KCAL/MOL
REMARK 922        TOTAL FREE ENERGY PREDICTED BY IDOCK:   -9.63 KCAL/MOL
REMARK 923 INTER-LIGAND FREE ENERGY PREDICTED BY IDOCK:   -7.84 KCAL/MOL
REMARK 924 INTRA-LIGAND FREE ENERGY PREDICTED BY IDOCK:   -1.79 KCAL/MOL
REMARK 927      BINDING AFFINITY PREDICTED BY RF-SCORE:    0.00 PKD
ROOT
HETATM    1  C   UNL     1     -13.499   9.688  71.855  1.00  0.00    -0.496 C  
HETATM    2  C   UNL     1     -12.659   9.912  70.604  1.00  0.00    -0.250 C  
ENDROOT
BRANCH   2   3
HETATM    3  C   UNL     1     -12.164  11.358  70.551  1.00  0.00    -0.478 C  
BRANCH   3   4
HETATM    4  C   UNL     1     -12.133  12.003  69.169  1.00  0.00    -0.241 C  
BRANCH   4   5
HETATM    5  C   UNL     1     -11.175  13.146  69.042  1.00  0.00    -0.258 A  
HETATM    6  N   UNL     1     -11.417  14.320  69.591  1.00  0.00    -0.274 NA 
HETATM    7  C   UNL     1     -10.329  15.090  69.336  1.00  0.00    -0.235 A  
HETATM    8  C   UNL     1      -9.392  14.398  68.605  1.00  0.00    -0.188 A  
HETATM    9  N   UNL     1      -9.962  13.154  68.356  1.00  0.00    -0.237 NA 
BRANCH   8  10
HETATM   10  C   UNL     1      -8.090  14.743  68.201  1.00  0.00    -0.134 C  
HETATM   11  O   UNL     1      -6.017  17.017  66.410  1.00  0.00    -0.266 OA 
HETATM   12  C   UNL     1      -7.822  15.685  67.274  1.00  0.00    -0.230 C  
HETATM   13  C   UNL     1      -6.364  15.865  67.011  1.00  0.00     0.108 C  
HETATM   14  O   UNL     1      -5.528  15.021  67.300  1.00  0.00    -0.314 OA 
BRANCH  12  15
HETATM   15  C   UNL     1      -8.848  16.473  66.503  1.00  0.00    -0.317 C  
BRANCH  15  16
HETATM   16  C   UNL     1      -9.239  17.816  67.064  1.00  0.00    -0.255 A  
HETATM   17  C   UNL     1      -9.624  19.630  68.478  1.00  0.00    -0.467 A  
HETATM   18  C   UNL     1      -8.945  18.393  68.285  1.00  0.00    -0.330 A  
HETATM   19  C   UNL     1     -10.359  19.993  67.373  1.00  0.00    -0.393 A  
HETATM   20  S   UNL     1     -10.226  18.851  66.111  1.00  0.00    -0.403 SA 
ENDBRANCH  15  16
ENDBRANCH  12  15
ENDBRANCH   8  10
BRANCH   9  21
HETATM   21  C   UNL     1      -9.508  12.159  67.371  1.00  0.00    -0.179 C  
BRANCH  21  22
HETATM   22  C   UNL     1      -9.554  10.721  67.845  1.00  0.00    -0.171 A  
HETATM   23  C   UNL     1      -8.931  10.319  69.035  1.00  0.00    -0.175 A  
HETATM   24  C   UNL     1      -9.112   9.034  69.551  1.00  0.00    -0.151 A  
HETATM   25  C   UNL     1     -10.199   9.732  67.088  1.00  0.00    -0.288 A  
HETATM   26  O   UNL     1     -11.483   6.408  69.267  1.00  0.00    -0.381 OA 
HETATM   27  C   UNL     1     -10.392   8.444  67.597  1.00  0.00    -0.317 A  
HETATM   28  C   UNL     1      -9.907   8.118  68.865  1.00  0.00    -0.178 A  
HETATM   29  O   UNL     1      -9.446   6.229  70.241  1.00  0.00    -0.159 OA 
HETATM   30  C   UNL     1     -10.220   6.823  69.512  1.00  0.00    -0.184 C  
ENDBRANCH  21  22
ENDBRANCH   9  21
ENDBRANCH   4   5
ENDBRANCH   3   4
ENDBRANCH   2   3
TORSDOF 8
ENDMDL
MODEL       81
REMARK 921   NORMALIZED FREE ENERGY PREDICTED BY IDOCK:   -5.11 KCAL/MOL
REMARK 922        TOTAL FREE ENERGY PREDICTED BY IDOCK:   -9.62 KCAL/MOL
REMARK 923 INTER-LIGAND FREE ENERGY PREDICTED BY IDOCK:   -7.81 KCAL/MOL
REMARK 924 INTRA-LIGAND FREE ENERGY PREDICTED BY IDOCK:   -1.81 KCAL/MOL
REMARK 927      BINDING AFFINITY PREDICTED BY RF-SCORE:    0.00 PKD
ROOT
HETATM    1  C   UNL     1     -12.658  12.828  71.017  1.00  0.00    -0.362 C  
HETATM    2  C   UNL     1     -13.038  11.687  71.953  1.00  0.00    -0.490 C  
ENDROOT
BRANCH   2   3
HETATM    3  C   UNL     1     -13.011  10.356  71.201  1.00  0.00    -0.506 C  
BRANCH   3   4
HETATM    4  C   UNL     1     -12.105   9.277  71.785  1.00  0.00    -0.457 C  
BRANCH   4   5
HETATM    5  C   UNL     1     -11.572   8.306  70.780  1.00  0.00    -0.236 A  
HETATM    6  N   UNL     1     -11.860   7.021  70.833  1.00  0.00    -0.342 NA 
HETATM    7  C   UNL     1     -11.273   6.453  69.749  1.00  0.00    -0.419 A  
HETATM    8  C   UNL     1     -10.592   7.390  69.008  1.00  0.00    -0.192 A  
HETATM    9  N   UNL     1     -10.730   8.586  69.705  1.00  0.00    -0.228 NA 
BRANCH   8  10
HETATM   10  C   UNL     1      -9.928   7.292  67.772  1.00  0.00    -0.205 C  
HETATM   11  O   UNL     1      -7.171   5.962  65.955  1.00  0.00    -0.072 OA 
HETATM   12  C   UNL     1      -8.690   6.777  67.630  1.00  0.00    -0.119 C  
HETATM   13  C   UNL     1      -8.198   6.787  66.221  1.00  0.00    -0.120 C  
HETATM   14  O   UNL     1      -8.674   7.509  65.357  1.00  0.00    -0.100 OA 
BRANCH  12  15
HETATM   15  C   UNL     1      -7.815   6.275  68.749  1.00  0.00    -0.101 C  
BRANCH  15  16
HETATM   16  C   UNL     1      -7.294   7.301  69.721  1.00  0.00    -0.084 A  
HETATM   17  C   UNL     1      -6.978   8.669  71.584  1.00  0.00    -0.093 A  
HETATM   18  C   UNL     1      -7.589   7.494  71.057  1.00  0.00    -0.084 A  
HETATM   19  C   UNL     1      -6.182   9.296  70.654  1.00  0.00    -0.060 A  
HETATM   20  S   UNL     1      -6.168   8.472  69.159  1.00  0.00    -0.043 SA 
ENDBRANCH  15  16
ENDBRANCH  12  15
ENDBRANCH   8  10
BRANCH   9  21
HETATM   21  C   UNL     1      -9.947   9.816  69.504  1.00  0.00    -0.214 C  
BRANCH  21  22
HETATM   22  C   UNL     1     -10.308  10.608  68.263  1.00  0.00    -0.201 A  
HETATM   23  C   UNL     1      -9.572  10.488  67.076  1.00  0.00    -0.202 A  
HETATM   24  C   UNL     1     -10.002  11.092  65.892  1.00  0.00    -0.289 A  
HETATM   25  C   UNL     1     -11.377  11.516  68.272  1.00  0.00    -0.352 A  
HETATM   26  O   UNL     1     -13.045  12.303  64.525  1.00  0.00    -0.791 OA 
HETATM   27  C   UNL     1     -11.820  12.121  67.092  1.00  0.00    -0.292 A  
HETATM   28  C   UNL     1     -11.172  11.850  65.886  1.00  0.00    -0.373 A  
HETATM   29  O   UNL     1     -10.986  12.672  63.658  1.00  0.00    -0.426 OA 
HETATM   30  C   UNL     1     -11.695  12.339  64.590  1.00  0.00    -0.356 C  
ENDBRANCH  21  22
ENDBRANCH   9  21
ENDBRANCH   4   5
ENDBRANCH   3   4
ENDBRANCH   2   3
TORSDOF 8
ENDMDL
MODEL       82
REMARK 921   NORMALIZED FREE ENERGY PREDICTED BY IDOCK:   -5.10 KCAL/MOL
REMARK 922        TOTAL FREE ENERGY PREDICTED BY IDOCK:   -9.60 KCAL/MOL
REMARK 923 INTER-LIGAND FREE ENERGY PREDICTED BY IDOCK:   -6.76 KCAL/MOL
REMARK 924 INTRA-LIGAND FREE ENERGY PREDICTED BY IDOCK:   -2.84 KCAL/MOL
REMARK 927      BINDING AFFINITY PREDICTED BY RF-SCORE:    0.00 PKD
ROOT
HETATM    1  C   UNL     1     -12.361  12.559  70.428  1.00  0.00    -0.311 C  
HETATM    2  C   UNL     1     -12.981  12.270  71.789  1.00  0.00    -0.431 C  
ENDROOT
BRANCH   2   3
HETATM    3  C   UNL     1     -13.284  10.777  71.925  1.00  0.00    -0.524 C  
BRANCH   3   4
HETATM    4  C   UNL     1     -12.686   9.873  70.852  1.00  0.00    -0.376 C  
BRANCH   4   5
HETATM    5  C   UNL     1     -12.054   8.623  71.379  1.00  0.00    -0.303 A  
HETATM    6  N   UNL     1     -12.767   7.661  71.929  1.00  0.00    -0.310 NA 
HETATM    7  C   UNL     1     -11.896   6.666  72.232  1.00  0.00    -0.252 A  
HETATM    8  C   UNL     1     -10.611   7.008  71.880  1.00  0.00    -0.214 A  
HETATM    9  N   UNL     1     -10.697   8.304  71.381  1.00  0.00    -0.220 NA 
BRANCH   8  10
HETATM   10  C   UNL     1      -9.414   6.271  71.906  1.00  0.00    -0.160 C  
HETATM   11  O   UNL     1      -7.384   3.809  70.326  1.00  0.00    -0.041 OA 
HETATM   12  C   UNL     1      -9.174   5.214  71.103  1.00  0.00    -0.183 C  
HETATM   13  C   UNL     1      -7.835   4.592  71.322  1.00  0.00    -0.086 C  
HETATM   14  O   UNL     1      -7.185   4.757  72.345  1.00  0.00    -0.075 OA 
BRANCH  12  15
HETATM   15  C   UNL     1     -10.139   4.634  70.103  1.00  0.00    -0.283 C  
BRANCH  15  16
HETATM   16  C   UNL     1     -10.264   5.349  68.782  1.00  0.00    -0.182 A  
HETATM   17  C   UNL     1     -11.001   6.676  67.011  1.00  0.00    -0.463 A  
HETATM   18  C   UNL     1     -11.112   6.371  68.398  1.00  0.00    -0.374 A  
HETATM   19  C   UNL     1     -10.025   5.927  66.395  1.00  0.00    -0.116 A  
HETATM   20  S   UNL     1      -9.245   4.868  67.485  1.00  0.00    -0.129 SA 
ENDBRANCH  15  16
ENDBRANCH  12  15
ENDBRANCH   8  10
BRANCH   9  21
HETATM   21  C   UNL     1      -9.580   9.235  71.153  1.00  0.00    -0.234 C  
BRANCH  21  22
HETATM   22  C   UNL     1      -9.195   9.428  69.700  1.00  0.00    -0.195 A  
HETATM   23  C   UNL     1      -8.265   8.590  69.068  1.00  0.00    -0.116 A  
HETATM   24  C   UNL     1      -8.035   8.668  67.693  1.00  0.00    -0.107 A  
HETATM   25  C   UNL     1      -9.736  10.478  68.944  1.00  0.00    -0.206 A  
HETATM   26  O   UNL     1      -9.744   9.849  64.815  1.00  0.00    -0.309 OA 
HETATM   27  C   UNL     1      -9.518  10.563  67.566  1.00  0.00    -0.166 A  
HETATM   28  C   UNL     1      -8.722   9.610  66.928  1.00  0.00    -0.139 A  
HETATM   29  O   UNL     1      -7.565   9.234  64.879  1.00  0.00    -0.103 OA 
HETATM   30  C   UNL     1      -8.588   9.562  65.454  1.00  0.00    -0.155 C  
ENDBRANCH  21  22
ENDBRANCH   9  21
ENDBRANCH   4   5
ENDBRANCH   3   4
ENDBRANCH   2   3
TORSDOF 8
ENDMDL
MODEL       83
REMARK 921   NORMALIZED FREE ENERGY PREDICTED BY IDOCK:   -5.10 KCAL/MOL
REMARK 922        TOTAL FREE ENERGY PREDICTED BY IDOCK:   -9.59 KCAL/MOL
REMARK 923 INTER-LIGAND FREE ENERGY PREDICTED BY IDOCK:   -8.01 KCAL/MOL
REMARK 924 INTRA-LIGAND FREE ENERGY PREDICTED BY IDOCK:   -1.59 KCAL/MOL
REMARK 927      BINDING AFFINITY PREDICTED BY RF-SCORE:    0.00 PKD
ROOT
HETATM    1  C   UNL     1     -14.077   8.378  71.549  1.00  0.00    -0.440 C  
HETATM    2  C   UNL     1     -13.382   9.626  72.078  1.00  0.00    -0.547 C  
ENDROOT
BRANCH   2   3
HETATM    3  C   UNL     1     -12.769  10.419  70.924  1.00  0.00    -0.477 C  
BRANCH   3   4
HETATM    4  C   UNL     1     -11.270  10.235  70.708  1.00  0.00    -0.373 C  
BRANCH   4   5
HETATM    5  C   UNL     1     -10.905   9.625  69.392  1.00  0.00    -0.217 A  
HETATM    6  N   UNL     1     -11.002   8.328  69.176  1.00  0.00    -0.005 NA 
HETATM    7  C   UNL     1     -10.658   8.131  67.877  1.00  0.00    -0.147 A  
HETATM    8  C   UNL     1     -10.326   9.318  67.268  1.00  0.00    -0.265 A  
HETATM    9  N   UNL     1     -10.425  10.286  68.263  1.00  0.00    -0.187 NA 
BRANCH   8  10
HETATM   10  C   UNL     1     -10.011   9.619  65.931  1.00  0.00    -0.351 C  
HETATM   11  O   UNL     1      -7.585   9.489  63.328  1.00  0.00    -0.109 OA 
HETATM   12  C   UNL     1      -8.765   9.534  65.422  1.00  0.00    -0.190 C  
HETATM   13  C   UNL     1      -8.682   9.911  63.981  1.00  0.00    -0.212 C  
HETATM   14  O   UNL     1      -9.539  10.578  63.419  1.00  0.00    -0.288 OA 
BRANCH  12  15
HETATM   15  C   UNL     1      -7.527   9.156  66.192  1.00  0.00    -0.095 C  
BRANCH  15  16
HETATM   16  C   UNL     1      -7.232   7.684  66.331  1.00  0.00    -0.078 A  
HETATM   17  C   UNL     1      -7.415   5.363  66.458  1.00  0.00    -0.087 A  
HETATM   18  C   UNL     1      -8.028   6.586  66.062  1.00  0.00    -0.112 A  
HETATM   19  C   UNL     1      -6.145   5.557  66.950  1.00  0.00    -0.030 A  
HETATM   20  S   UNL     1      -5.695   7.205  66.931  1.00  0.00    -0.023 SA 
ENDBRANCH  15  16
ENDBRANCH  12  15
ENDBRANCH   8  10
BRANCH   9  21
HETATM   21  C   UNL     1      -9.889  11.656  68.214  1.00  0.00    -0.199 C  
BRANCH  21  22
HETATM   22  C   UNL     1     -10.453  12.523  67.106  1.00  0.00    -0.237 A  
HETATM   23  C   UNL     1     -11.831  12.741  66.973  1.00  0.00    -0.428 A  
HETATM   24  C   UNL     1     -12.334  13.666  66.054  1.00  0.00    -0.493 A  
HETATM   25  C   UNL     1      -9.610  13.114  66.153  1.00  0.00    -0.209 A  
HETATM   26  O   UNL     1     -11.161  16.524  64.308  1.00  0.00    -0.992 OA 
HETATM   27  C   UNL     1     -10.101  14.046  65.233  1.00  0.00    -0.345 A  
HETATM   28  C   UNL     1     -11.458  14.375  65.235  1.00  0.00    -0.350 A  
HETATM   29  O   UNL     1     -13.105  15.442  63.885  1.00  0.00    -0.295 OA 
HETATM   30  C   UNL     1     -11.998  15.466  64.392  1.00  0.00    -0.228 C  
ENDBRANCH  21  22
ENDBRANCH   9  21
ENDBRANCH   4   5
ENDBRANCH   3   4
ENDBRANCH   2   3
TORSDOF 8
ENDMDL
MODEL       84
REMARK 921   NORMALIZED FREE ENERGY PREDICTED BY IDOCK:   -5.08 KCAL/MOL
REMARK 922        TOTAL FREE ENERGY PREDICTED BY IDOCK:   -9.57 KCAL/MOL
REMARK 923 INTER-LIGAND FREE ENERGY PREDICTED BY IDOCK:   -7.40 KCAL/MOL
REMARK 924 INTRA-LIGAND FREE ENERGY PREDICTED BY IDOCK:   -2.18 KCAL/MOL
REMARK 927      BINDING AFFINITY PREDICTED BY RF-SCORE:    0.00 PKD
ROOT
HETATM    1  C   UNL     1     -11.565  16.082  64.473  1.00  0.00    -0.205 C  
HETATM    2  C   UNL     1     -12.247  14.747  64.205  1.00  0.00    -0.402 C  
ENDROOT
BRANCH   2   3
HETATM    3  C   UNL     1     -12.546  14.032  65.524  1.00  0.00    -0.543 C  
BRANCH   3   4
HETATM    4  C   UNL     1     -12.181  12.552  65.579  1.00  0.00    -0.442 C  
BRANCH   4   5
HETATM    5  C   UNL     1     -11.503  12.129  66.844  1.00  0.00    -0.351 A  
HETATM    6  N   UNL     1     -12.155  11.515  67.811  1.00  0.00    -0.587 NA 
HETATM    7  C   UNL     1     -11.235  11.224  68.766  1.00  0.00    -0.250 A  
HETATM    8  C   UNL     1      -9.987  11.672  68.403  1.00  0.00    -0.201 A  
HETATM    9  N   UNL     1     -10.165  12.316  67.183  1.00  0.00    -0.210 NA 
BRANCH   8  10
HETATM   10  C   UNL     1      -8.729  11.512  69.013  1.00  0.00     0.134 C  
HETATM   11  O   UNL     1      -5.656   9.717  69.103  1.00  0.00    -0.036 OA 
HETATM   12  C   UNL     1      -7.923  10.455  68.788  1.00  0.00    -0.122 C  
HETATM   13  C   UNL     1      -6.644  10.507  69.557  1.00  0.00    -0.080 C  
HETATM   14  O   UNL     1      -6.495  11.204  70.551  1.00  0.00    -0.306 OA 
BRANCH  12  15
HETATM   15  C   UNL     1      -8.243   9.279  67.904  1.00  0.00    -0.115 C  
BRANCH  15  16
HETATM   16  C   UNL     1      -8.285   9.532  66.420  1.00  0.00    -0.115 A  
HETATM   17  C   UNL     1      -8.869   9.543  64.161  1.00  0.00    -0.243 A  
HETATM   18  C   UNL     1      -9.281   9.271  65.498  1.00  0.00    -0.292 A  
HETATM   19  C   UNL     1      -7.598  10.067  64.111  1.00  0.00    -0.140 A  
HETATM   20  S   UNL     1      -6.910  10.234  65.665  1.00  0.00    -0.135 SA 
ENDBRANCH  15  16
ENDBRANCH  12  15
ENDBRANCH   8  10
BRANCH   9  21
HETATM   21  C   UNL     1      -9.213  13.224  66.520  1.00  0.00    -0.172 C  
BRANCH  21  22
HETATM   22  C   UNL     1      -9.339  14.682  66.915  1.00  0.00    -0.258 A  
HETATM   23  C   UNL     1     -10.242  15.100  67.903  1.00  0.00    -0.232 A  
HETATM   24  C   UNL     1     -10.240  16.413  68.378  1.00  0.00    -0.259 A  
HETATM   25  C   UNL     1      -8.574  15.670  66.279  1.00  0.00    -0.265 A  
HETATM   26  O   UNL     1      -7.979  19.145  68.518  1.00  0.00    -0.324 OA 
HETATM   27  C   UNL     1      -8.559  16.986  66.749  1.00  0.00    -0.266 A  
HETATM   28  C   UNL     1      -9.343  17.340  67.849  1.00  0.00    -0.258 A  
HETATM   29  O   UNL     1     -10.193  19.259  68.977  1.00  0.00    -0.373 OA 
HETATM   30  C   UNL     1      -9.246  18.675  68.482  1.00  0.00    -0.347 C  
ENDBRANCH  21  22
ENDBRANCH   9  21
ENDBRANCH   4   5
ENDBRANCH   3   4
ENDBRANCH   2   3
TORSDOF 8
ENDMDL
MODEL       85
REMARK 921   NORMALIZED FREE ENERGY PREDICTED BY IDOCK:   -5.08 KCAL/MOL
REMARK 922        TOTAL FREE ENERGY PREDICTED BY IDOCK:   -9.57 KCAL/MOL
REMARK 923 INTER-LIGAND FREE ENERGY PREDICTED BY IDOCK:   -7.91 KCAL/MOL
REMARK 924 INTRA-LIGAND FREE ENERGY PREDICTED BY IDOCK:   -1.65 KCAL/MOL
REMARK 927      BINDING AFFINITY PREDICTED BY RF-SCORE:    0.00 PKD
ROOT
HETATM    1  C   UNL     1      -5.703  16.715  69.950  1.00  0.00    -0.213 C  
HETATM    2  C   UNL     1      -6.236  17.691  68.908  1.00  0.00    -0.207 C  
ENDROOT
BRANCH   2   3
HETATM    3  C   UNL     1      -7.592  17.217  68.384  1.00  0.00    -0.231 C  
BRANCH   3   4
HETATM    4  C   UNL     1      -7.556  16.333  67.141  1.00  0.00    -0.230 C  
BRANCH   4   5
HETATM    5  C   UNL     1      -7.494  14.866  67.427  1.00  0.00    -0.199 A  
HETATM    6  N   UNL     1      -6.353  14.208  67.441  1.00  0.00    -0.308 NA 
HETATM    7  C   UNL     1      -6.653  12.931  67.792  1.00  0.00    -0.140 A  
HETATM    8  C   UNL     1      -8.005  12.778  67.990  1.00  0.00    -0.160 A  
HETATM    9  N   UNL     1      -8.566  14.016  67.694  1.00  0.00    -0.175 NA 
BRANCH   8  10
HETATM   10  C   UNL     1      -8.757  11.684  68.454  1.00  0.00    -0.158 C  
HETATM   11  O   UNL     1      -9.772   8.312  67.926  1.00  0.00    -0.152 OA 
HETATM   12  C   UNL     1      -8.994  10.578  67.720  1.00  0.00    -0.132 C  
HETATM   13  C   UNL     1      -9.823   9.558  68.428  1.00  0.00    -0.158 C  
HETATM   14  O   UNL     1     -10.525   9.827  69.392  1.00  0.00    -0.199 OA 
BRANCH  12  15
HETATM   15  C   UNL     1      -8.543  10.353  66.301  1.00  0.00    -0.147 C  
BRANCH  15  16
HETATM   16  C   UNL     1      -9.421  10.908  65.209  1.00  0.00    -0.217 A  
HETATM   17  C   UNL     1     -10.218  11.798  63.206  1.00  0.00    -0.452 A  
HETATM   18  C   UNL     1      -9.150  11.132  63.873  1.00  0.00    -0.069 A  
HETATM   19  C   UNL     1     -11.297  12.000  64.035  1.00  0.00    -0.403 A  
HETATM   20  S   UNL     1     -11.024  11.384  65.605  1.00  0.00    -0.132 SA 
ENDBRANCH  15  16
ENDBRANCH  12  15
ENDBRANCH   8  10
BRANCH   9  21
HETATM   21  C   UNL     1      -9.990  14.303  67.456  1.00  0.00    -0.235 C  
BRANCH  21  22
HETATM   22  C   UNL     1     -10.827  14.469  68.709  1.00  0.00    -0.256 A  
HETATM   23  C   UNL     1     -11.633  13.430  69.196  1.00  0.00    -0.365 A  
HETATM   24  C   UNL     1     -12.274  13.529  70.434  1.00  0.00    -0.426 A  
HETATM   25  C   UNL     1     -10.847  15.685  69.407  1.00  0.00    -0.264 A  
HETATM   26  O   UNL     1     -11.894  15.380  73.438  1.00  0.00    -0.448 OA 
HETATM   27  C   UNL     1     -11.480  15.794  70.649  1.00  0.00    -0.415 A  
HETATM   28  C   UNL     1     -12.134  14.688  71.195  1.00  0.00    -0.403 A  
HETATM   29  O   UNL     1     -13.696  14.118  72.901  1.00  0.00    -0.658 OA 
HETATM   30  C   UNL     1     -12.681  14.705  72.571  1.00  0.00    -0.363 C  
ENDBRANCH  21  22
ENDBRANCH   9  21
ENDBRANCH   4   5
ENDBRANCH   3   4
ENDBRANCH   2   3
TORSDOF 8
ENDMDL
MODEL       86
REMARK 921   NORMALIZED FREE ENERGY PREDICTED BY IDOCK:   -5.04 KCAL/MOL
REMARK 922        TOTAL FREE ENERGY PREDICTED BY IDOCK:   -9.51 KCAL/MOL
REMARK 923 INTER-LIGAND FREE ENERGY PREDICTED BY IDOCK:   -8.34 KCAL/MOL
REMARK 924 INTRA-LIGAND FREE ENERGY PREDICTED BY IDOCK:   -1.17 KCAL/MOL
REMARK 927      BINDING AFFINITY PREDICTED BY RF-SCORE:    0.00 PKD
ROOT
HETATM    1  C   UNL     1      -5.886  13.100  69.549  1.00  0.00    -0.102 C  
HETATM    2  C   UNL     1      -5.864  11.581  69.436  1.00  0.00    -0.065 C  
ENDROOT
BRANCH   2   3
HETATM    3  C   UNL     1      -6.809  11.119  68.326  1.00  0.00    -0.068 C  
BRANCH   3   4
HETATM    4  C   UNL     1      -8.291  11.404  68.548  1.00  0.00    -0.153 C  
BRANCH   4   5
HETATM    5  C   UNL     1      -8.969  10.457  69.487  1.00  0.00    -0.106 A  
HETATM    6  N   UNL     1      -8.310   9.493  70.097  1.00  0.00    -0.177 NA 
HETATM    7  C   UNL     1      -9.204   8.875  70.910  1.00  0.00    -0.231 A  
HETATM    8  C   UNL     1     -10.450   9.449  70.801  1.00  0.00    -0.304 A  
HETATM    9  N   UNL     1     -10.318  10.438  69.832  1.00  0.00    -0.224 NA 
BRANCH   8  10
HETATM   10  C   UNL     1     -11.643   9.218  71.510  1.00  0.00    -0.452 C  
HETATM   11  O   UNL     1     -14.258   6.936  72.300  1.00  0.00    -0.109 OA 
HETATM   12  C   UNL     1     -12.435   8.146  71.305  1.00  0.00    -0.269 C  
HETATM   13  C   UNL     1     -13.648   8.128  72.174  1.00  0.00    -0.224 C  
HETATM   14  O   UNL     1     -14.085   9.127  72.726  1.00  0.00    -0.518 OA 
BRANCH  12  15
HETATM   15  C   UNL     1     -12.203   7.067  70.280  1.00  0.00    -0.052 C  
BRANCH  15  16
HETATM   16  C   UNL     1     -11.180   6.014  70.617  1.00  0.00    -0.277 A  
HETATM   17  C   UNL     1      -9.638   4.268  70.505  1.00  0.00    -0.267 A  
HETATM   18  C   UNL     1     -10.378   5.252  69.788  1.00  0.00    -0.369 A  
HETATM   19  C   UNL     1      -9.844   4.355  71.862  1.00  0.00    -0.180 A  
HETATM   20  S   UNL     1     -10.919   5.617  72.269  1.00  0.00    -0.254 SA 
ENDBRANCH  15  16
ENDBRANCH  12  15
ENDBRANCH   8  10
BRANCH   9  21
HETATM   21  C   UNL     1     -11.411  11.133  69.132  1.00  0.00    -0.273 C  
BRANCH  21  22
HETATM   22  C   UNL     1     -11.939  12.367  69.836  1.00  0.00    -0.369 A  
HETATM   23  C   UNL     1     -12.836  12.273  70.909  1.00  0.00    -0.179 A  
HETATM   24  C   UNL     1     -13.193  13.397  71.657  1.00  0.00    -0.449 A  
HETATM   25  C   UNL     1     -11.569  13.652  69.413  1.00  0.00    -0.368 A  
HETATM   26  O   UNL     1     -11.866  16.617  72.340  1.00  0.00    -0.491 OA 
HETATM   27  C   UNL     1     -11.915  14.785  70.157  1.00  0.00    -0.367 A  
HETATM   28  C   UNL     1     -12.670  14.645  71.324  1.00  0.00    -0.402 A  
HETATM   29  O   UNL     1     -13.961  15.932  72.857  1.00  0.00    -0.592 OA 
HETATM   30  C   UNL     1     -12.928  15.789  72.229  1.00  0.00    -0.447 C  
ENDBRANCH  21  22
ENDBRANCH   9  21
ENDBRANCH   4   5
ENDBRANCH   3   4
ENDBRANCH   2   3
TORSDOF 8
ENDMDL
MODEL       87
REMARK 921   NORMALIZED FREE ENERGY PREDICTED BY IDOCK:   -5.03 KCAL/MOL
REMARK 922        TOTAL FREE ENERGY PREDICTED BY IDOCK:   -9.50 KCAL/MOL
REMARK 923 INTER-LIGAND FREE ENERGY PREDICTED BY IDOCK:   -6.83 KCAL/MOL
REMARK 924 INTRA-LIGAND FREE ENERGY PREDICTED BY IDOCK:   -2.67 KCAL/MOL
REMARK 927      BINDING AFFINITY PREDICTED BY RF-SCORE:    0.00 PKD
ROOT
HETATM    1  C   UNL     1     -12.706  14.009  65.495  1.00  0.00    -0.517 C  
HETATM    2  C   UNL     1     -12.071  12.636  65.676  1.00  0.00    -0.502 C  
ENDROOT
BRANCH   2   3
HETATM    3  C   UNL     1     -11.759  12.389  67.152  1.00  0.00    -0.415 C  
BRANCH   3   4
HETATM    4  C   UNL     1     -10.933  11.144  67.461  1.00  0.00    -0.331 C  
BRANCH   4   5
HETATM    5  C   UNL     1     -11.133  10.595  68.838  1.00  0.00    -0.261 A  
HETATM    6  N   UNL     1     -12.310  10.620  69.432  1.00  0.00    -0.270 NA 
HETATM    7  C   UNL     1     -12.148   9.991  70.624  1.00  0.00    -0.292 A  
HETATM    8  C   UNL     1     -10.848   9.576  70.792  1.00  0.00    -0.318 A  
HETATM    9  N   UNL     1     -10.169  10.019  69.662  1.00  0.00    -0.225 NA 
BRANCH   8  10
HETATM   10  C   UNL     1     -10.243   8.807  71.803  1.00  0.00    -0.408 C  
HETATM   11  O   UNL     1      -9.636   5.561  73.132  1.00  0.00    -0.149 OA 
HETATM   12  C   UNL     1     -10.493   7.495  71.990  1.00  0.00    -0.245 C  
HETATM   13  C   UNL     1      -9.734   6.902  73.131  1.00  0.00    -0.174 C  
HETATM   14  O   UNL     1      -9.245   7.576  74.025  1.00  0.00    -0.254 OA 
BRANCH  12  15
HETATM   15  C   UNL     1     -11.469   6.666  71.199  1.00  0.00    -0.370 C  
BRANCH  15  16
HETATM   16  C   UNL     1     -10.994   6.134  69.872  1.00  0.00    -0.389 A  
HETATM   17  C   UNL     1     -10.698   5.726  67.594  1.00  0.00    -0.313 A  
HETATM   18  C   UNL     1     -11.220   6.601  68.591  1.00  0.00    -0.239 A  
HETATM   19  C   UNL     1     -10.030   4.657  68.145  1.00  0.00    -0.060 A  
HETATM   20  S   UNL     1     -10.030   4.711  69.852  1.00  0.00    -0.178 SA 
ENDBRANCH  15  16
ENDBRANCH  12  15
ENDBRANCH   8  10
BRANCH   9  21
HETATM   21  C   UNL     1      -8.709  10.100  69.489  1.00  0.00    -0.174 C  
BRANCH  21  22
HETATM   22  C   UNL     1      -8.096   8.967  68.692  1.00  0.00    -0.111 A  
HETATM   23  C   UNL     1      -7.553   7.836  69.319  1.00  0.00    -0.098 A  
HETATM   24  C   UNL     1      -7.138   6.726  68.581  1.00  0.00    -0.082 A  
HETATM   25  C   UNL     1      -8.022   9.027  67.293  1.00  0.00    -0.099 A  
HETATM   26  O   UNL     1      -7.773   5.320  65.385  1.00  0.00    -0.084 OA 
HETATM   27  C   UNL     1      -7.614   7.920  66.542  1.00  0.00    -0.092 A  
HETATM   28  C   UNL     1      -7.239   6.741  67.191  1.00  0.00    -0.085 A  
HETATM   29  O   UNL     1      -6.111   4.683  66.784  1.00  0.00    -0.029 OA 
HETATM   30  C   UNL     1      -6.952   5.495  66.444  1.00  0.00    -0.064 C  
ENDBRANCH  21  22
ENDBRANCH   9  21
ENDBRANCH   4   5
ENDBRANCH   3   4
ENDBRANCH   2   3
TORSDOF 8
ENDMDL
MODEL       88
REMARK 921   NORMALIZED FREE ENERGY PREDICTED BY IDOCK:   -5.01 KCAL/MOL
REMARK 922        TOTAL FREE ENERGY PREDICTED BY IDOCK:   -9.47 KCAL/MOL
REMARK 923 INTER-LIGAND FREE ENERGY PREDICTED BY IDOCK:   -7.43 KCAL/MOL
REMARK 924 INTRA-LIGAND FREE ENERGY PREDICTED BY IDOCK:   -2.04 KCAL/MOL
REMARK 927      BINDING AFFINITY PREDICTED BY RF-SCORE:    0.00 PKD
ROOT
HETATM    1  C   UNL     1      -7.917  19.989  67.534  1.00  0.00    -0.342 C  
HETATM    2  C   UNL     1      -9.399  20.338  67.488  1.00  0.00    -0.513 C  
ENDROOT
BRANCH   2   3
HETATM    3  C   UNL     1     -10.213  19.285  68.240  1.00  0.00    -0.513 C  
BRANCH   3   4
HETATM    4  C   UNL     1     -10.513  18.000  67.474  1.00  0.00    -0.408 C  
BRANCH   4   5
HETATM    5  C   UNL     1     -10.244  16.745  68.244  1.00  0.00    -0.295 A  
HETATM    6  N   UNL     1      -9.207  16.631  69.049  1.00  0.00    -0.252 NA 
HETATM    7  C   UNL     1      -9.303  15.406  69.625  1.00  0.00    -0.205 A  
HETATM    8  C   UNL     1     -10.410  14.730  69.167  1.00  0.00    -0.233 A  
HETATM    9  N   UNL     1     -10.993  15.570  68.223  1.00  0.00    -0.291 NA 
BRANCH   8  10
HETATM   10  C   UNL     1     -10.966  13.495  69.547  1.00  0.00    -0.028 C  
HETATM   11  O   UNL     1     -10.712   9.946  69.453  1.00  0.00    -0.211 OA 
HETATM   12  C   UNL     1     -10.558  12.311  69.049  1.00  0.00    -0.104 C  
HETATM   13  C   UNL     1     -11.306  11.143  69.601  1.00  0.00    -0.294 C  
HETATM   14  O   UNL     1     -12.399  11.248  70.139  1.00  0.00    -0.296 OA 
BRANCH  12  15
HETATM   15  C   UNL     1      -9.497  12.119  67.998  1.00  0.00    -0.201 C  
BRANCH  15  16
HETATM   16  C   UNL     1      -8.063  12.229  68.448  1.00  0.00    -0.151 A  
HETATM   17  C   UNL     1      -5.831  12.860  68.692  1.00  0.00    -0.069 A  
HETATM   18  C   UNL     1      -7.116  13.201  68.181  1.00  0.00    -0.109 A  
HETATM   19  C   UNL     1      -5.851  11.676  69.391  1.00  0.00    -0.071 A  
HETATM   20  S   UNL     1      -7.411  10.982  69.434  1.00  0.00    -0.047 SA 
ENDBRANCH  15  16
ENDBRANCH  12  15
ENDBRANCH   8  10
BRANCH   9  21
HETATM   21  C   UNL     1     -12.015  15.201  67.230  1.00  0.00     0.072 C  
BRANCH  21  22
HETATM   22  C   UNL     1     -11.553  14.219  66.172  1.00  0.00    -0.374 A  
HETATM   23  C   UNL     1     -10.448  14.489  65.352  1.00  0.00    -0.399 A  
HETATM   24  C   UNL     1      -9.929  13.517  64.492  1.00  0.00    -0.018 A  
HETATM   25  C   UNL     1     -12.240  13.016  65.955  1.00  0.00    -0.463 A  
HETATM   26  O   UNL     1      -9.961   9.980  64.214  1.00  0.00    -0.235 OA 
HETATM   27  C   UNL     1     -11.727  12.034  65.103  1.00  0.00    -0.315 A  
HETATM   28  C   UNL     1     -10.527  12.261  64.425  1.00  0.00    -0.355 A  
HETATM   29  O   UNL     1      -9.234  11.408  62.615  1.00  0.00    -0.361 OA 
HETATM   30  C   UNL     1      -9.861  11.198  63.637  1.00  0.00    -0.345 C  
ENDBRANCH  21  22
ENDBRANCH   9  21
ENDBRANCH   4   5
ENDBRANCH   3   4
ENDBRANCH   2   3
TORSDOF 8
ENDMDL
MODEL       89
REMARK 921   NORMALIZED FREE ENERGY PREDICTED BY IDOCK:   -5.00 KCAL/MOL
REMARK 922        TOTAL FREE ENERGY PREDICTED BY IDOCK:   -9.46 KCAL/MOL
REMARK 923 INTER-LIGAND FREE ENERGY PREDICTED BY IDOCK:   -7.56 KCAL/MOL
REMARK 924 INTRA-LIGAND FREE ENERGY PREDICTED BY IDOCK:   -1.90 KCAL/MOL
REMARK 927      BINDING AFFINITY PREDICTED BY RF-SCORE:    0.00 PKD
ROOT
HETATM    1  C   UNL     1     -13.588   8.733  72.116  1.00  0.00    -0.480 C  
HETATM    2  C   UNL     1     -13.276  10.172  71.724  1.00  0.00    -0.542 C  
ENDROOT
BRANCH   2   3
HETATM    3  C   UNL     1     -11.822  10.291  71.266  1.00  0.00    -0.425 C  
BRANCH   3   4
HETATM    4  C   UNL     1     -11.054   8.980  71.128  1.00  0.00    -0.371 C  
BRANCH   4   5
HETATM    5  C   UNL     1      -9.723   9.110  70.459  1.00  0.00    -0.236 A  
HETATM    6  N   UNL     1      -8.641   9.463  71.124  1.00  0.00    -0.286 NA 
HETATM    7  C   UNL     1      -7.616   9.420  70.236  1.00  0.00    -0.138 A  
HETATM    8  C   UNL     1      -8.058   9.047  68.988  1.00  0.00    -0.107 A  
HETATM    9  N   UNL     1      -9.436   8.904  69.111  1.00  0.00    -0.156 NA 
BRANCH   8  10
HETATM   10  C   UNL     1      -7.358   8.772  67.799  1.00  0.00    -0.088 C  
HETATM   11  O   UNL     1      -5.689   6.339  65.807  1.00  0.00    -0.020 OA 
HETATM   12  C   UNL     1      -6.696   7.619  67.576  1.00  0.00    -0.068 C  
HETATM   13  C   UNL     1      -6.025   7.566  66.243  1.00  0.00    -0.037 C  
HETATM   14  O   UNL     1      -5.773   8.566  65.587  1.00  0.00    -0.042 OA 
BRANCH  12  15
HETATM   15  C   UNL     1      -6.561   6.481  68.553  1.00  0.00    -0.051 C  
BRANCH  15  16
HETATM   16  C   UNL     1      -7.740   5.552  68.684  1.00  0.00    -0.088 A  
HETATM   17  C   UNL     1      -9.530   4.122  68.244  1.00  0.00    -0.213 A  
HETATM   18  C   UNL     1      -8.354   4.750  67.741  1.00  0.00    -0.103 A  
HETATM   19  C   UNL     1      -9.739   4.408  69.573  1.00  0.00    -0.210 A  
HETATM   20  S   UNL     1      -8.522   5.423  70.210  1.00  0.00    -0.121 SA 
ENDBRANCH  15  16
ENDBRANCH  12  15
ENDBRANCH   8  10
BRANCH   9  21
HETATM   21  C   UNL     1     -10.413   8.815  68.012  1.00  0.00    -0.204 C  
BRANCH  21  22
HETATM   22  C   UNL     1     -10.676  10.118  67.284  1.00  0.00    -0.316 A  
HETATM   23  C   UNL     1     -10.202  10.341  65.984  1.00  0.00    -0.298 A  
HETATM   24  C   UNL     1     -10.582  11.472  65.257  1.00  0.00    -0.339 A  
HETATM   25  C   UNL     1     -11.379  11.162  67.904  1.00  0.00    -0.378 A  
HETATM   26  O   UNL     1     -13.234  13.831  65.282  1.00  0.00    -0.755 OA 
HETATM   27  C   UNL     1     -11.770  12.295  67.186  1.00  0.00    -0.396 A  
HETATM   28  C   UNL     1     -11.430  12.415  65.837  1.00  0.00    -0.422 A  
HETATM   29  O   UNL     1     -11.318  14.033  64.092  1.00  0.00    -0.300 OA 
HETATM   30  C   UNL     1     -11.952  13.515  64.993  1.00  0.00    -0.372 C  
ENDBRANCH  21  22
ENDBRANCH   9  21
ENDBRANCH   4   5
ENDBRANCH   3   4
ENDBRANCH   2   3
TORSDOF 8
ENDMDL
MODEL       90
REMARK 921   NORMALIZED FREE ENERGY PREDICTED BY IDOCK:   -5.00 KCAL/MOL
REMARK 922        TOTAL FREE ENERGY PREDICTED BY IDOCK:   -9.45 KCAL/MOL
REMARK 923 INTER-LIGAND FREE ENERGY PREDICTED BY IDOCK:   -7.48 KCAL/MOL
REMARK 924 INTRA-LIGAND FREE ENERGY PREDICTED BY IDOCK:   -1.96 KCAL/MOL
REMARK 927      BINDING AFFINITY PREDICTED BY RF-SCORE:    0.00 PKD
ROOT
HETATM    1  C   UNL     1     -10.700   5.830  73.626  1.00  0.00    -0.281 C  
HETATM    2  C   UNL     1     -10.359   7.301  73.430  1.00  0.00    -0.410 C  
ENDROOT
BRANCH   2   3
HETATM    3  C   UNL     1     -11.426   7.982  72.572  1.00  0.00    -0.471 C  
BRANCH   3   4
HETATM    4  C   UNL     1     -10.922   9.027  71.582  1.00  0.00    -0.435 C  
BRANCH   4   5
HETATM    5  C   UNL     1     -10.716   8.512  70.192  1.00  0.00    -0.235 A  
HETATM    6  N   UNL     1     -11.022   7.275  69.856  1.00  0.00    -0.257 NA 
HETATM    7  C   UNL     1     -10.772   7.169  68.526  1.00  0.00    -0.152 A  
HETATM    8  C   UNL     1     -10.288   8.351  68.017  1.00  0.00    -0.215 A  
HETATM    9  N   UNL     1     -10.191   9.211  69.107  1.00  0.00    -0.201 NA 
BRANCH   8  10
HETATM   10  C   UNL     1      -9.992   8.742  66.699  1.00  0.00    -0.355 C  
HETATM   11  O   UNL     1      -7.831   8.394  63.891  1.00  0.00    -0.135 OA 
HETATM   12  C   UNL     1      -8.836   8.437  66.075  1.00  0.00    -0.202 C  
HETATM   13  C   UNL     1      -8.752   8.970  64.683  1.00  0.00    -0.135 C  
HETATM   14  O   UNL     1      -9.455   9.884  64.279  1.00  0.00    -0.284 OA 
BRANCH  12  15
HETATM   15  C   UNL     1      -7.681   7.685  66.683  1.00  0.00    -0.098 C  
BRANCH  15  16
HETATM   16  C   UNL     1      -6.824   8.434  67.671  1.00  0.00    -0.067 A  
HETATM   17  C   UNL     1      -5.818   9.223  69.621  1.00  0.00    -0.033 A  
HETATM   18  C   UNL     1      -6.592   8.194  69.012  1.00  0.00    -0.048 A  
HETATM   19  C   UNL     1      -5.425  10.179  68.714  1.00  0.00    -0.038 A  
HETATM   20  S   UNL     1      -5.983   9.834  67.137  1.00  0.00    -0.052 SA 
ENDBRANCH  15  16
ENDBRANCH  12  15
ENDBRANCH   8  10
BRANCH   9  21
HETATM   21  C   UNL     1      -9.453  10.484  69.160  1.00  0.00    -0.191 C  
BRANCH  21  22
HETATM   22  C   UNL     1     -10.029  11.593  68.303  1.00  0.00    -0.201 A  
HETATM   23  C   UNL     1      -9.289  12.182  67.269  1.00  0.00    -0.183 A  
HETATM   24  C   UNL     1      -9.876  13.087  66.381  1.00  0.00    -0.270 A  
HETATM   25  C   UNL     1     -11.319  12.091  68.539  1.00  0.00    -0.323 A  
HETATM   26  O   UNL     1     -13.138  13.895  65.241  1.00  0.00    -0.777 OA 
HETATM   27  C   UNL     1     -11.919  12.991  67.654  1.00  0.00    -0.353 A  
HETATM   28  C   UNL     1     -11.217  13.434  66.531  1.00  0.00    -0.327 A  
HETATM   29  O   UNL     1     -11.278  15.130  64.859  1.00  0.00    -0.391 OA 
HETATM   30  C   UNL     1     -11.859  14.260  65.483  1.00  0.00    -0.363 C  
ENDBRANCH  21  22
ENDBRANCH   9  21
ENDBRANCH   4   5
ENDBRANCH   3   4
ENDBRANCH   2   3
TORSDOF 8
ENDMDL
MODEL       91
REMARK 921   NORMALIZED FREE ENERGY PREDICTED BY IDOCK:   -4.99 KCAL/MOL
REMARK 922        TOTAL FREE ENERGY PREDICTED BY IDOCK:   -9.44 KCAL/MOL
REMARK 923 INTER-LIGAND FREE ENERGY PREDICTED BY IDOCK:   -7.39 KCAL/MOL
REMARK 924 INTRA-LIGAND FREE ENERGY PREDICTED BY IDOCK:   -2.05 KCAL/MOL
REMARK 927      BINDING AFFINITY PREDICTED BY RF-SCORE:    0.00 PKD
ROOT
HETATM    1  C   UNL     1     -10.423   5.491  70.678  1.00  0.00    -0.342 C  
HETATM    2  C   UNL     1     -11.368   6.633  70.326  1.00  0.00    -0.431 C  
ENDROOT
BRANCH   2   3
HETATM    3  C   UNL     1     -10.718   7.978  70.655  1.00  0.00    -0.235 C  
BRANCH   3   4
HETATM    4  C   UNL     1      -9.348   8.229  70.031  1.00  0.00    -0.162 C  
BRANCH   4   5
HETATM    5  C   UNL     1      -9.317   9.347  69.038  1.00  0.00    -0.153 A  
HETATM    6  N   UNL     1      -8.819  10.530  69.339  1.00  0.00    -0.123 NA 
HETATM    7  C   UNL     1      -8.890  11.273  68.204  1.00  0.00    -0.159 A  
HETATM    8  C   UNL     1      -9.453  10.553  67.176  1.00  0.00    -0.159 A  
HETATM    9  N   UNL     1      -9.789   9.321  67.727  1.00  0.00    -0.164 NA 
BRANCH   8  10
HETATM   10  C   UNL     1      -9.633  10.864  65.816  1.00  0.00    -0.259 C  
HETATM   11  O   UNL     1     -11.373  12.816  63.400  1.00  0.00    -0.472 OA 
HETATM   12  C   UNL     1     -10.656  11.611  65.353  1.00  0.00    -0.331 C  
HETATM   13  C   UNL     1     -10.635  11.795  63.872  1.00  0.00    -0.393 C  
HETATM   14  O   UNL     1     -10.010  11.062  63.120  1.00  0.00    -0.324 OA 
BRANCH  12  15
HETATM   15  C   UNL     1     -11.771  12.185  66.186  1.00  0.00    -0.384 C  
BRANCH  15  16
HETATM   16  C   UNL     1     -11.512  13.512  66.851  1.00  0.00    -0.344 A  
HETATM   17  C   UNL     1     -10.782  15.673  67.336  1.00  0.00    -0.309 A  
HETATM   18  C   UNL     1     -10.989  14.682  66.334  1.00  0.00    -0.325 A  
HETATM   19  C   UNL     1     -11.216  15.256  68.572  1.00  0.00    -0.303 A  
HETATM   20  S   UNL     1     -11.874  13.680  68.523  1.00  0.00    -0.370 SA 
ENDBRANCH  15  16
ENDBRANCH  12  15
ENDBRANCH   8  10
BRANCH   9  21
HETATM   21  C   UNL     1     -10.683   8.309  67.140  1.00  0.00    -0.170 C  
BRANCH  21  22
HETATM   22  C   UNL     1     -10.004   7.017  66.730  1.00  0.00    -0.266 A  
HETATM   23  C   UNL     1      -8.704   7.005  66.205  1.00  0.00    -0.155 A  
HETATM   24  C   UNL     1      -8.024   5.805  65.982  1.00  0.00    -0.103 A  
HETATM   25  C   UNL     1     -10.671   5.788  66.835  1.00  0.00    -0.381 A  
HETATM   26  O   UNL     1      -8.173   2.455  67.142  1.00  0.00    -0.077 OA 
HETATM   27  C   UNL     1      -9.998   4.581  66.621  1.00  0.00    -0.253 A  
HETATM   28  C   UNL     1      -8.649   4.592  66.262  1.00  0.00    -0.113 A  
HETATM   29  O   UNL     1      -6.959   3.170  65.369  1.00  0.00    -0.047 OA 
HETATM   30  C   UNL     1      -7.852   3.346  66.177  1.00  0.00    -0.085 C  
ENDBRANCH  21  22
ENDBRANCH   9  21
ENDBRANCH   4   5
ENDBRANCH   3   4
ENDBRANCH   2   3
TORSDOF 8
ENDMDL
MODEL       92
REMARK 921   NORMALIZED FREE ENERGY PREDICTED BY IDOCK:   -4.98 KCAL/MOL
REMARK 922        TOTAL FREE ENERGY PREDICTED BY IDOCK:   -9.42 KCAL/MOL
REMARK 923 INTER-LIGAND FREE ENERGY PREDICTED BY IDOCK:   -7.88 KCAL/MOL
REMARK 924 INTRA-LIGAND FREE ENERGY PREDICTED BY IDOCK:   -1.54 KCAL/MOL
REMARK 927      BINDING AFFINITY PREDICTED BY RF-SCORE:    0.00 PKD
ROOT
HETATM    1  C   UNL     1     -13.018  14.196  65.364  1.00  0.00    -0.300 C  
HETATM    2  C   UNL     1     -12.007  14.139  64.226  1.00  0.00    -0.460 C  
ENDROOT
BRANCH   2   3
HETATM    3  C   UNL     1     -10.590  14.335  64.767  1.00  0.00    -0.434 C  
BRANCH   3   4
HETATM    4  C   UNL     1      -9.692  13.102  64.753  1.00  0.00     0.116 C  
BRANCH   4   5
HETATM    5  C   UNL     1      -9.947  12.139  65.870  1.00  0.00    -0.245 A  
HETATM    6  N   UNL     1     -10.983  11.325  65.863  1.00  0.00    -0.209 NA 
HETATM    7  C   UNL     1     -10.873  10.559  66.978  1.00  0.00    -0.225 A  
HETATM    8  C   UNL     1      -9.759  10.903  67.707  1.00  0.00    -0.168 A  
HETATM    9  N   UNL     1      -9.185  11.972  67.025  1.00  0.00    -0.189 NA 
BRANCH   8  10
HETATM   10  C   UNL     1      -9.189  10.330  68.858  1.00  0.00    -0.176 C  
HETATM   11  O   UNL     1      -9.713   8.449  71.835  1.00  0.00    -0.208 OA 
HETATM   12  C   UNL     1      -9.916   9.833  69.880  1.00  0.00    -0.282 C  
HETATM   13  C   UNL     1      -9.084   9.285  70.992  1.00  0.00    -0.183 C  
HETATM   14  O   UNL     1      -7.909   9.583  71.151  1.00  0.00    -0.326 OA 
BRANCH  12  15
HETATM   15  C   UNL     1     -11.418   9.849  69.977  1.00  0.00    -0.274 C  
BRANCH  15  16
HETATM   16  C   UNL     1     -12.053  11.098  70.532  1.00  0.00    -0.381 A  
HETATM   17  C   UNL     1     -12.556  13.313  71.063  1.00  0.00    -0.408 A  
HETATM   18  C   UNL     1     -11.848  12.425  70.203  1.00  0.00    -0.341 A  
HETATM   19  C   UNL     1     -13.332  12.637  71.976  1.00  0.00    -0.454 A  
HETATM   20  S   UNL     1     -13.211  10.944  71.792  1.00  0.00    -0.323 SA 
ENDBRANCH  15  16
ENDBRANCH  12  15
ENDBRANCH   8  10
BRANCH   9  21
HETATM   21  C   UNL     1      -8.159  12.894  67.538  1.00  0.00    -0.181 C  
BRANCH  21  22
HETATM   22  C   UNL     1      -8.587  14.346  67.618  1.00  0.00    -0.189 A  
HETATM   23  C   UNL     1      -9.770  14.729  68.265  1.00  0.00    -0.218 A  
HETATM   24  C   UNL     1     -10.079  16.075  68.477  1.00  0.00    -0.233 A  
HETATM   25  C   UNL     1      -7.824  15.357  67.015  1.00  0.00    -0.244 A  
HETATM   26  O   UNL     1      -8.338  19.162  68.656  1.00  0.00    -0.353 OA 
HETATM   27  C   UNL     1      -8.119  16.707  67.225  1.00  0.00    -0.193 A  
HETATM   28  C   UNL     1      -9.210  17.064  68.020  1.00  0.00    -0.241 A  
HETATM   29  O   UNL     1     -10.589  18.937  68.538  1.00  0.00    -0.217 OA 
HETATM   30  C   UNL     1      -9.472  18.471  68.402  1.00  0.00    -0.341 C  
ENDBRANCH  21  22
ENDBRANCH   9  21
ENDBRANCH   4   5
ENDBRANCH   3   4
ENDBRANCH   2   3
TORSDOF 8
ENDMDL
MODEL       93
REMARK 921   NORMALIZED FREE ENERGY PREDICTED BY IDOCK:   -4.97 KCAL/MOL
REMARK 922        TOTAL FREE ENERGY PREDICTED BY IDOCK:   -9.41 KCAL/MOL
REMARK 923 INTER-LIGAND FREE ENERGY PREDICTED BY IDOCK:   -6.00 KCAL/MOL
REMARK 924 INTRA-LIGAND FREE ENERGY PREDICTED BY IDOCK:   -3.41 KCAL/MOL
REMARK 927      BINDING AFFINITY PREDICTED BY RF-SCORE:    0.00 PKD
ROOT
HETATM    1  C   UNL     1     -11.241   4.085  73.647  1.00  0.00    -0.305 C  
HETATM    2  C   UNL     1      -9.912   3.944  74.377  1.00  0.00    -0.197 C  
ENDROOT
BRANCH   2   3
HETATM    3  C   UNL     1      -8.751   4.064  73.389  1.00  0.00    -0.091 C  
BRANCH   3   4
HETATM    4  C   UNL     1      -7.614   4.994  73.802  1.00  0.00    -0.091 C  
BRANCH   4   5
HETATM    5  C   UNL     1      -6.910   5.655  72.660  1.00  0.00    -0.078 A  
HETATM    6  N   UNL     1      -5.983   5.032  71.960  1.00  0.00    -0.023 NA 
HETATM    7  C   UNL     1      -5.607   5.889  70.977  1.00  0.00    -0.017 A  
HETATM    8  C   UNL     1      -6.296   7.076  71.066  1.00  0.00    -0.040 A  
HETATM    9  N   UNL     1      -7.100   6.955  72.195  1.00  0.00    -0.073 NA 
BRANCH   8  10
HETATM   10  C   UNL     1      -6.318   8.202  70.223  1.00  0.00    -0.036 C  
HETATM   11  O   UNL     1      -7.658   9.718  67.293  1.00  0.00    -0.088 OA 
HETATM   12  C   UNL     1      -6.906   8.211  69.009  1.00  0.00    -0.060 C  
HETATM   13  C   UNL     1      -6.790   9.520  68.301  1.00  0.00    -0.062 C  
HETATM   14  O   UNL     1      -5.952  10.361  68.593  1.00  0.00    -0.041 OA 
BRANCH  12  15
HETATM   15  C   UNL     1      -7.581   7.036  68.352  1.00  0.00    -0.111 C  
BRANCH  15  16
HETATM   16  C   UNL     1      -8.951   6.666  68.858  1.00  0.00    -0.130 A  
HETATM   17  C   UNL     1     -10.741   5.614  69.921  1.00  0.00    -0.399 A  
HETATM   18  C   UNL     1      -9.327   5.768  69.839  1.00  0.00    -0.177 A  
HETATM   19  C   UNL     1     -11.402   6.448  69.050  1.00  0.00    -0.255 A  
HETATM   20  S   UNL     1     -10.323   7.414  68.143  1.00  0.00    -0.187 SA 
ENDBRANCH  15  16
ENDBRANCH  12  15
ENDBRANCH   8  10
BRANCH   9  21
HETATM   21  C   UNL     1      -7.798   8.043  72.899  1.00  0.00    -0.142 C  
BRANCH  21  22
HETATM   22  C   UNL     1      -9.241   8.249  72.486  1.00  0.00    -0.339 A  
HETATM   23  C   UNL     1     -10.287   7.534  73.087  1.00  0.00    -0.402 A  
HETATM   24  C   UNL     1     -11.623   7.842  72.820  1.00  0.00    -0.368 A  
HETATM   25  C   UNL     1      -9.577   9.145  71.460  1.00  0.00    -0.278 A  
HETATM   26  O   UNL     1     -13.482  10.616  71.620  1.00  0.00    -0.300 OA 
HETATM   27  C   UNL     1     -10.910   9.466  71.188  1.00  0.00    -0.427 A  
HETATM   28  C   UNL     1     -11.933   8.863  71.923  1.00  0.00    -0.441 A  
HETATM   29  O   UNL     1     -14.290   8.516  71.876  1.00  0.00    -0.433 OA 
HETATM   30  C   UNL     1     -13.347   9.281  71.784  1.00  0.00    -0.409 C  
ENDBRANCH  21  22
ENDBRANCH   9  21
ENDBRANCH   4   5
ENDBRANCH   3   4
ENDBRANCH   2   3
TORSDOF 8
ENDMDL
MODEL       94
REMARK 921   NORMALIZED FREE ENERGY PREDICTED BY IDOCK:   -4.94 KCAL/MOL
REMARK 922        TOTAL FREE ENERGY PREDICTED BY IDOCK:   -9.36 KCAL/MOL
REMARK 923 INTER-LIGAND FREE ENERGY PREDICTED BY IDOCK:   -7.85 KCAL/MOL
REMARK 924 INTRA-LIGAND FREE ENERGY PREDICTED BY IDOCK:   -1.51 KCAL/MOL
REMARK 927      BINDING AFFINITY PREDICTED BY RF-SCORE:    0.00 PKD
ROOT
HETATM    1  C   UNL     1     -13.391  13.863  72.455  1.00  0.00    -0.629 C  
HETATM    2  C   UNL     1     -12.811  13.327  71.152  1.00  0.00    -0.363 C  
ENDROOT
BRANCH   2   3
HETATM    3  C   UNL     1     -12.717  11.802  71.203  1.00  0.00    -0.405 C  
BRANCH   3   4
HETATM    4  C   UNL     1     -12.498  11.100  69.867  1.00  0.00    -0.257 C  
BRANCH   4   5
HETATM    5  C   UNL     1     -11.272  10.244  69.811  1.00  0.00    -0.282 A  
HETATM    6  N   UNL     1     -10.572   9.961  70.891  1.00  0.00    -0.270 NA 
HETATM    7  C   UNL     1      -9.580   9.124  70.494  1.00  0.00    -0.243 A  
HETATM    8  C   UNL     1      -9.647   8.885  69.141  1.00  0.00    -0.162 A  
HETATM    9  N   UNL     1     -10.707   9.659  68.680  1.00  0.00    -0.218 NA 
BRANCH   8  10
HETATM   10  C   UNL     1      -8.909   8.019  68.314  1.00  0.00    -0.133 C  
HETATM   11  O   UNL     1      -8.801   4.913  66.577  1.00  0.00    -0.112 OA 
HETATM   12  C   UNL     1      -9.267   6.743  68.065  1.00  0.00    -0.117 C  
HETATM   13  C   UNL     1      -8.320   6.023  67.164  1.00  0.00    -0.105 C  
HETATM   14  O   UNL     1      -7.170   6.395  66.975  1.00  0.00    -0.071 OA 
BRANCH  12  15
HETATM   15  C   UNL     1     -10.462   6.037  68.651  1.00  0.00    -0.297 C  
BRANCH  15  16
HETATM   16  C   UNL     1     -10.291   5.425  70.017  1.00  0.00    -0.296 A  
HETATM   17  C   UNL     1     -10.234   5.061  72.320  1.00  0.00    -0.257 A  
HETATM   18  C   UNL     1     -10.722   5.869  71.253  1.00  0.00    -0.325 A  
HETATM   19  C   UNL     1      -9.506   3.987  71.863  1.00  0.00    -0.138 A  
HETATM   20  S   UNL     1      -9.415   3.953  70.158  1.00  0.00    -0.198 SA 
ENDBRANCH  15  16
ENDBRANCH  12  15
ENDBRANCH   8  10
BRANCH   9  21
HETATM   21  C   UNL     1     -11.005   9.997  67.278  1.00  0.00    -0.156 C  
BRANCH  21  22
HETATM   22  C   UNL     1     -10.657  11.415  66.875  1.00  0.00    -0.292 A  
HETATM   23  C   UNL     1     -11.452  12.139  65.976  1.00  0.00    -0.427 A  
HETATM   24  C   UNL     1     -11.221  13.495  65.732  1.00  0.00    -0.308 A  
HETATM   25  C   UNL     1      -9.503  12.043  67.366  1.00  0.00    -0.177 A  
HETATM   26  O   UNL     1      -9.636  16.217  67.367  1.00  0.00    -0.226 OA 
HETATM   27  C   UNL     1      -9.264  13.400  67.134  1.00  0.00    -0.240 A  
HETATM   28  C   UNL     1     -10.167  14.144  66.373  1.00  0.00    -0.292 A  
HETATM   29  O   UNL     1     -10.345  16.220  65.217  1.00  0.00    -0.552 OA 
HETATM   30  C   UNL     1     -10.045  15.613  66.229  1.00  0.00    -0.299 C  
ENDBRANCH  21  22
ENDBRANCH   9  21
ENDBRANCH   4   5
ENDBRANCH   3   4
ENDBRANCH   2   3
TORSDOF 8
ENDMDL
MODEL       95
REMARK 921   NORMALIZED FREE ENERGY PREDICTED BY IDOCK:   -4.91 KCAL/MOL
REMARK 922        TOTAL FREE ENERGY PREDICTED BY IDOCK:   -9.33 KCAL/MOL
REMARK 923 INTER-LIGAND FREE ENERGY PREDICTED BY IDOCK:   -7.35 KCAL/MOL
REMARK 924 INTRA-LIGAND FREE ENERGY PREDICTED BY IDOCK:   -1.98 KCAL/MOL
REMARK 927      BINDING AFFINITY PREDICTED BY RF-SCORE:    0.00 PKD
ROOT
HETATM    1  C   UNL     1      -6.942  15.631  69.088  1.00  0.00    -0.166 C  
HETATM    2  C   UNL     1      -6.656  14.147  69.282  1.00  0.00    -0.120 C  
ENDROOT
BRANCH   2   3
HETATM    3  C   UNL     1      -7.119  13.355  68.058  1.00  0.00    -0.125 C  
BRANCH   3   4
HETATM    4  C   UNL     1      -6.110  12.369  67.480  1.00  0.00    -0.148 C  
BRANCH   4   5
HETATM    5  C   UNL     1      -6.428  10.931  67.745  1.00  0.00    -0.063 A  
HETATM    6  N   UNL     1      -5.991  10.309  68.821  1.00  0.00    -0.041 NA 
HETATM    7  C   UNL     1      -6.512   9.057  68.776  1.00  0.00    -0.053 A  
HETATM    8  C   UNL     1      -7.278   8.880  67.647  1.00  0.00    -0.080 A  
HETATM    9  N   UNL     1      -7.178  10.074  66.941  1.00  0.00    -0.090 NA 
BRANCH   8  10
HETATM   10  C   UNL     1      -8.083   7.805  67.231  1.00  0.00    -0.119 C  
HETATM   11  O   UNL     1     -11.378   6.513  66.841  1.00  0.00    -0.330 OA 
HETATM   12  C   UNL     1      -9.403   7.719  67.494  1.00  0.00    -0.161 C  
HETATM   13  C   UNL     1     -10.038   6.480  66.955  1.00  0.00    -0.192 C  
HETATM   14  O   UNL     1      -9.398   5.484  66.650  1.00  0.00    -0.132 OA 
BRANCH  12  15
HETATM   15  C   UNL     1     -10.205   8.711  68.294  1.00  0.00    -0.237 C  
BRANCH  15  16
HETATM   16  C   UNL     1     -10.209   8.537  69.791  1.00  0.00    -0.206 A  
HETATM   17  C   UNL     1      -9.704   8.662  72.064  1.00  0.00    -0.391 A  
HETATM   18  C   UNL     1      -9.525   9.232  70.771  1.00  0.00    -0.336 A  
HETATM   19  C   UNL     1     -10.573   7.596  72.043  1.00  0.00    -0.220 A  
HETATM   20  S   UNL     1     -11.171   7.287  70.473  1.00  0.00    -0.279 SA 
ENDBRANCH  15  16
ENDBRANCH  12  15
ENDBRANCH   8  10
BRANCH   9  21
HETATM   21  C   UNL     1      -7.556  10.300  65.536  1.00  0.00    -0.149 C  
BRANCH  21  22
HETATM   22  C   UNL     1      -8.911  10.949  65.335  1.00  0.00    -0.192 A  
HETATM   23  C   UNL     1      -9.438  11.852  66.268  1.00  0.00    -0.238 A  
HETATM   24  C   UNL     1     -10.608  12.569  66.003  1.00  0.00    -0.289 A  
HETATM   25  C   UNL     1      -9.699  10.640  64.217  1.00  0.00    -0.372 A  
HETATM   26  O   UNL     1     -12.471  13.578  63.156  1.00  0.00    -0.759 OA 
HETATM   27  C   UNL     1     -10.868  11.355  63.938  1.00  0.00    -0.463 A  
HETATM   28  C   UNL     1     -11.282  12.372  64.799  1.00  0.00    -0.353 A  
HETATM   29  O   UNL     1     -13.187  13.712  65.300  1.00  0.00    -0.724 OA 
HETATM   30  C   UNL     1     -12.420  13.261  64.469  1.00  0.00    -0.319 C  
ENDBRANCH  21  22
ENDBRANCH   9  21
ENDBRANCH   4   5
ENDBRANCH   3   4
ENDBRANCH   2   3
TORSDOF 8
ENDMDL
MODEL       96
REMARK 921   NORMALIZED FREE ENERGY PREDICTED BY IDOCK:   -4.87 KCAL/MOL
REMARK 922        TOTAL FREE ENERGY PREDICTED BY IDOCK:   -9.26 KCAL/MOL
REMARK 923 INTER-LIGAND FREE ENERGY PREDICTED BY IDOCK:   -7.60 KCAL/MOL
REMARK 924 INTRA-LIGAND FREE ENERGY PREDICTED BY IDOCK:   -1.66 KCAL/MOL
REMARK 927      BINDING AFFINITY PREDICTED BY RF-SCORE:    0.00 PKD
ROOT
HETATM    1  C   UNL     1     -11.203   6.333  71.973  1.00  0.00    -0.327 C  
HETATM    2  C   UNL     1     -11.063   7.680  72.671  1.00  0.00    -0.412 C  
ENDROOT
BRANCH   2   3
HETATM    3  C   UNL     1     -10.816   8.785  71.644  1.00  0.00    -0.399 C  
BRANCH   3   4
HETATM    4  C   UNL     1      -9.618   8.584  70.721  1.00  0.00    -0.217 C  
BRANCH   4   5
HETATM    5  C   UNL     1      -9.954   8.579  69.264  1.00  0.00    -0.195 A  
HETATM    6  N   UNL     1     -10.197   7.460  68.610  1.00  0.00    -0.187 NA 
HETATM    7  C   UNL     1     -10.526   7.822  67.344  1.00  0.00    -0.292 A  
HETATM    8  C   UNL     1     -10.477   9.188  67.191  1.00  0.00    -0.255 A  
HETATM    9  N   UNL     1     -10.046   9.683  68.418  1.00  0.00    -0.169 NA 
BRANCH   8  10
HETATM   10  C   UNL     1     -10.829  10.014  66.109  1.00  0.00     0.150 C  
HETATM   11  O   UNL     1      -9.792  11.593  63.091  1.00  0.00    -0.393 OA 
HETATM   12  C   UNL     1      -9.933  10.525  65.240  1.00  0.00    -0.364 C  
HETATM   13  C   UNL     1     -10.549  11.378  64.181  1.00  0.00    -0.369 C  
HETATM   14  O   UNL     1     -11.661  11.873  64.291  1.00  0.00    -0.348 OA 
BRANCH  12  15
HETATM   15  C   UNL     1      -8.440  10.338  65.308  1.00  0.00    -0.168 C  
BRANCH  15  16
HETATM   16  C   UNL     1      -7.904   8.982  64.928  1.00  0.00    -0.119 A  
HETATM   17  C   UNL     1      -7.538   6.925  63.892  1.00  0.00    -0.109 A  
HETATM   18  C   UNL     1      -8.137   8.215  63.802  1.00  0.00    -0.112 A  
HETATM   19  C   UNL     1      -6.810   6.774  65.049  1.00  0.00    -0.050 A  
HETATM   20  S   UNL     1      -6.845   8.179  66.018  1.00  0.00    -0.057 SA 
ENDBRANCH  15  16
ENDBRANCH  12  15
ENDBRANCH   8  10
BRANCH   9  21
HETATM   21  C   UNL     1      -9.543  11.039  68.692  1.00  0.00    -0.195 C  
BRANCH  21  22
HETATM   22  C   UNL     1     -10.586  12.019  69.192  1.00  0.00    -0.067 A  
HETATM   23  C   UNL     1     -11.648  11.607  70.010  1.00  0.00    -0.338 A  
HETATM   24  C   UNL     1     -12.511  12.535  70.600  1.00  0.00    -0.323 A  
HETATM   25  C   UNL     1     -10.539  13.371  68.825  1.00  0.00    -0.230 A  
HETATM   26  O   UNL     1     -12.461  15.976  71.464  1.00  0.00    -0.449 OA 
HETATM   27  C   UNL     1     -11.393  14.309  69.413  1.00  0.00    -0.325 A  
HETATM   28  C   UNL     1     -12.334  13.896  70.358  1.00  0.00    -0.433 A  
HETATM   29  O   UNL     1     -14.300  14.655  71.468  1.00  0.00    -0.449 OA 
HETATM   30  C   UNL     1     -13.151  14.865  71.124  1.00  0.00    -0.396 C  
ENDBRANCH  21  22
ENDBRANCH   9  21
ENDBRANCH   4   5
ENDBRANCH   3   4
ENDBRANCH   2   3
TORSDOF 8
ENDMDL
MODEL       97
REMARK 921   NORMALIZED FREE ENERGY PREDICTED BY IDOCK:   -4.86 KCAL/MOL
REMARK 922        TOTAL FREE ENERGY PREDICTED BY IDOCK:   -9.25 KCAL/MOL
REMARK 923 INTER-LIGAND FREE ENERGY PREDICTED BY IDOCK:   -7.27 KCAL/MOL
REMARK 924 INTRA-LIGAND FREE ENERGY PREDICTED BY IDOCK:   -1.98 KCAL/MOL
REMARK 927      BINDING AFFINITY PREDICTED BY RF-SCORE:    0.00 PKD
ROOT
HETATM    1  C   UNL     1     -11.899  15.027  64.723  1.00  0.00    -0.341 C  
HETATM    2  C   UNL     1     -12.637  13.961  65.522  1.00  0.00    -0.560 C  
ENDROOT
BRANCH   2   3
HETATM    3  C   UNL     1     -11.937  12.610  65.374  1.00  0.00    -0.496 C  
BRANCH   3   4
HETATM    4  C   UNL     1     -10.441  12.661  65.079  1.00  0.00    -0.331 C  
BRANCH   4   5
HETATM    5  C   UNL     1      -9.745  11.341  65.185  1.00  0.00    -0.244 A  
HETATM    6  N   UNL     1      -9.968  10.366  64.326  1.00  0.00    -0.330 NA 
HETATM    7  C   UNL     1      -9.135   9.352  64.675  1.00  0.00    -0.173 A  
HETATM    8  C   UNL     1      -8.385   9.686  65.779  1.00  0.00    -0.128 A  
HETATM    9  N   UNL     1      -8.821  10.954  66.153  1.00  0.00    -0.180 NA 
BRANCH   8  10
HETATM   10  C   UNL     1      -7.337   9.010  66.428  1.00  0.00    -0.088 C  
HETATM   11  O   UNL     1      -6.292   6.089  68.175  1.00  0.00    -0.040 OA 
HETATM   12  C   UNL     1      -7.516   7.898  67.171  1.00  0.00    -0.092 C  
HETATM   13  C   UNL     1      -6.253   7.368  67.763  1.00  0.00    -0.044 C  
HETATM   14  O   UNL     1      -5.244   8.047  67.892  1.00  0.00    -0.030 OA 
BRANCH  12  15
HETATM   15  C   UNL     1      -8.839   7.237  67.458  1.00  0.00    -0.119 C  
BRANCH  15  16
HETATM   16  C   UNL     1      -9.277   6.149  66.512  1.00  0.00    -0.149 A  
HETATM   17  C   UNL     1     -10.382   4.351  65.520  1.00  0.00    -0.247 A  
HETATM   18  C   UNL     1     -10.412   5.360  66.525  1.00  0.00    -0.352 A  
HETATM   19  C   UNL     1      -9.262   4.444  64.728  1.00  0.00    -0.157 A  
HETATM   20  S   UNL     1      -8.255   5.743  65.192  1.00  0.00    -0.142 SA 
ENDBRANCH  15  16
ENDBRANCH  12  15
ENDBRANCH   8  10
BRANCH   9  21
HETATM   21  C   UNL     1      -8.560  11.631  67.434  1.00  0.00    -0.149 C  
BRANCH  21  22
HETATM   22  C   UNL     1      -9.555  11.321  68.535  1.00  0.00    -0.199 A  
HETATM   23  C   UNL     1     -10.725  12.076  68.700  1.00  0.00    -0.266 A  
HETATM   24  C   UNL     1     -11.715  11.690  69.608  1.00  0.00    -0.418 A  
HETATM   25  C   UNL     1      -9.321  10.284  69.449  1.00  0.00    -0.217 A  
HETATM   26  O   UNL     1     -12.748   8.717  71.248  1.00  0.00    -0.305 OA 
HETATM   27  C   UNL     1     -10.305   9.885  70.357  1.00  0.00    -0.322 A  
HETATM   28  C   UNL     1     -11.534  10.547  70.384  1.00  0.00    -0.427 A  
HETATM   29  O   UNL     1     -13.468  10.804  71.752  1.00  0.00    -0.320 OA 
HETATM   30  C   UNL     1     -12.663  10.066  71.214  1.00  0.00    -0.399 C  
ENDBRANCH  21  22
ENDBRANCH   9  21
ENDBRANCH   4   5
ENDBRANCH   3   4
ENDBRANCH   2   3
TORSDOF 8
ENDMDL
MODEL       98
REMARK 921   NORMALIZED FREE ENERGY PREDICTED BY IDOCK:   -4.85 KCAL/MOL
REMARK 922        TOTAL FREE ENERGY PREDICTED BY IDOCK:   -9.23 KCAL/MOL
REMARK 923 INTER-LIGAND FREE ENERGY PREDICTED BY IDOCK:   -7.04 KCAL/MOL
REMARK 924 INTRA-LIGAND FREE ENERGY PREDICTED BY IDOCK:   -2.19 KCAL/MOL
REMARK 927      BINDING AFFINITY PREDICTED BY RF-SCORE:    0.00 PKD
ROOT
HETATM    1  C   UNL     1      -5.156  15.024  71.321  1.00  0.00    -0.144 C  
HETATM    2  C   UNL     1      -5.268  15.981  70.142  1.00  0.00    -0.152 C  
ENDROOT
BRANCH   2   3
HETATM    3  C   UNL     1      -6.643  15.851  69.485  1.00  0.00    -0.191 C  
BRANCH   3   4
HETATM    4  C   UNL     1      -6.738  14.866  68.324  1.00  0.00    -0.113 C  
BRANCH   4   5
HETATM    5  C   UNL     1      -7.909  15.088  67.419  1.00  0.00    -0.200 A  
HETATM    6  N   UNL     1      -7.839  15.893  66.378  1.00  0.00    -0.141 NA 
HETATM    7  C   UNL     1      -9.040  15.811  65.751  1.00  0.00    -0.152 A  
HETATM    8  C   UNL     1      -9.886  14.952  66.414  1.00  0.00    -0.274 A  
HETATM    9  N   UNL     1      -9.178  14.526  67.533  1.00  0.00    -0.189 NA 
BRANCH   8  10
HETATM   10  C   UNL     1     -11.170  14.480  66.089  1.00  0.00    -0.339 C  
HETATM   11  O   UNL     1     -13.127  12.250  64.122  1.00  0.00    -0.749 OA 
HETATM   12  C   UNL     1     -11.425  13.682  65.032  1.00  0.00    -0.338 C  
HETATM   13  C   UNL     1     -12.866  13.320  64.892  1.00  0.00    -0.253 C  
HETATM   14  O   UNL     1     -13.765  13.959  65.420  1.00  0.00    -0.352 OA 
BRANCH  12  15
HETATM   15  C   UNL     1     -10.410  13.210  64.024  1.00  0.00    -0.173 C  
BRANCH  15  16
HETATM   16  C   UNL     1      -9.929  11.788  64.153  1.00  0.00    -0.272 A  
HETATM   17  C   UNL     1      -9.279   9.707  64.981  1.00  0.00    -0.310 A  
HETATM   18  C   UNL     1      -9.962  10.931  65.237  1.00  0.00    -0.330 A  
HETATM   19  C   UNL     1      -8.807   9.640  63.691  1.00  0.00    -0.232 A  
HETATM   20  S   UNL     1      -9.191  11.041  62.794  1.00  0.00    -0.343 SA 
ENDBRANCH  15  16
ENDBRANCH  12  15
ENDBRANCH   8  10
BRANCH   9  21
HETATM   21  C   UNL     1      -9.731  13.846  68.716  1.00  0.00    -0.093 C  
BRANCH  21  22
HETATM   22  C   UNL     1      -9.809  12.336  68.607  1.00  0.00    -0.098 A  
HETATM   23  C   UNL     1      -8.655  11.548  68.486  1.00  0.00    -0.140 A  
HETATM   24  C   UNL     1      -8.719  10.154  68.549  1.00  0.00    -0.123 A  
HETATM   25  C   UNL     1     -11.046  11.677  68.592  1.00  0.00    -0.287 A  
HETATM   26  O   UNL     1     -10.929   7.690  69.829  1.00  0.00    -0.241 OA 
HETATM   27  C   UNL     1     -11.123  10.283  68.661  1.00  0.00    -0.290 A  
HETATM   28  C   UNL     1      -9.952   9.524  68.712  1.00  0.00    -0.185 A  
HETATM   29  O   UNL     1      -9.183   7.285  68.445  1.00  0.00    -0.138 OA 
HETATM   30  C   UNL     1      -9.977   8.061  68.944  1.00  0.00    -0.195 C  
ENDBRANCH  21  22
ENDBRANCH   9  21
ENDBRANCH   4   5
ENDBRANCH   3   4
ENDBRANCH   2   3
TORSDOF 8
ENDMDL
MODEL       99
REMARK 921   NORMALIZED FREE ENERGY PREDICTED BY IDOCK:   -4.83 KCAL/MOL
REMARK 922        TOTAL FREE ENERGY PREDICTED BY IDOCK:   -9.21 KCAL/MOL
REMARK 923 INTER-LIGAND FREE ENERGY PREDICTED BY IDOCK:   -7.44 KCAL/MOL
REMARK 924 INTRA-LIGAND FREE ENERGY PREDICTED BY IDOCK:   -1.77 KCAL/MOL
REMARK 927      BINDING AFFINITY PREDICTED BY RF-SCORE:    0.00 PKD
ROOT
HETATM    1  C   UNL     1     -12.265  12.558  65.264  1.00  0.00    -0.493 C  
HETATM    2  C   UNL     1     -11.883  12.867  66.706  1.00  0.00    -0.452 C  
ENDROOT
BRANCH   2   3
HETATM    3  C   UNL     1     -11.740  11.571  67.504  1.00  0.00    -0.262 C  
BRANCH   3   4
HETATM    4  C   UNL     1     -10.827  11.635  68.724  1.00  0.00    -0.262 C  
BRANCH   4   5
HETATM    5  C   UNL     1     -11.300  10.830  69.894  1.00  0.00    -0.311 A  
HETATM    6  N   UNL     1     -12.173  11.306  70.759  1.00  0.00    -0.377 NA 
HETATM    7  C   UNL     1     -12.422  10.304  71.639  1.00  0.00    -0.392 A  
HETATM    8  C   UNL     1     -11.686   9.183  71.335  1.00  0.00    -0.343 A  
HETATM    9  N   UNL     1     -10.908   9.537  70.238  1.00  0.00    -0.249 NA 
BRANCH   8  10
HETATM   10  C   UNL     1     -11.689   7.891  71.892  1.00  0.00    -0.342 C  
HETATM   11  O   UNL     1     -10.355   5.693  74.354  1.00  0.00    -0.270 OA 
HETATM   12  C   UNL     1     -10.768   7.460  72.777  1.00  0.00    -0.362 C  
HETATM   13  C   UNL     1     -10.979   6.050  73.218  1.00  0.00    -0.215 C  
HETATM   14  O   UNL     1     -11.656   5.252  72.587  1.00  0.00    -0.247 OA 
BRANCH  12  15
HETATM   15  C   UNL     1      -9.587   8.254  73.272  1.00  0.00    -0.166 C  
BRANCH  15  16
HETATM   16  C   UNL     1      -8.223   7.653  73.057  1.00  0.00    -0.127 A  
HETATM   17  C   UNL     1      -6.422   6.407  72.254  1.00  0.00    -0.055 A  
HETATM   18  C   UNL     1      -7.737   6.896  72.007  1.00  0.00    -0.094 A  
HETATM   19  C   UNL     1      -5.919   6.862  73.451  1.00  0.00    -0.058 A  
HETATM   20  S   UNL     1      -7.024   7.875  74.268  1.00  0.00    -0.139 SA 
ENDBRANCH  15  16
ENDBRANCH  12  15
ENDBRANCH   8  10
BRANCH   9  21
HETATM   21  C   UNL     1      -9.740   8.809  69.716  1.00  0.00    -0.177 C  
BRANCH  21  22
HETATM   22  C   UNL     1     -10.066   7.662  68.781  1.00  0.00    -0.202 A  
HETATM   23  C   UNL     1     -10.628   7.882  67.516  1.00  0.00    -0.312 A  
HETATM   24  C   UNL     1     -10.777   6.841  66.597  1.00  0.00    -0.187 A  
HETATM   25  C   UNL     1      -9.846   6.332  69.167  1.00  0.00    -0.168 A  
HETATM   26  O   UNL     1      -9.354   3.644  66.010  1.00  0.00    -0.157 OA 
HETATM   27  C   UNL     1      -9.985   5.282  68.255  1.00  0.00    -0.214 A  
HETATM   28  C   UNL     1     -10.383   5.550  66.944  1.00  0.00    -0.315 A  
HETATM   29  O   UNL     1     -11.213   4.450  65.000  1.00  0.00    -0.241 OA 
HETATM   30  C   UNL     1     -10.394   4.499  65.900  1.00  0.00    -0.258 C  
ENDBRANCH  21  22
ENDBRANCH   9  21
ENDBRANCH   4   5
ENDBRANCH   3   4
ENDBRANCH   2   3
TORSDOF 8
ENDMDL
MODEL      100
REMARK 921   NORMALIZED FREE ENERGY PREDICTED BY IDOCK:   -4.82 KCAL/MOL
REMARK 922        TOTAL FREE ENERGY PREDICTED BY IDOCK:   -9.18 KCAL/MOL
REMARK 923 INTER-LIGAND FREE ENERGY PREDICTED BY IDOCK:   -6.69 KCAL/MOL
REMARK 924 INTRA-LIGAND FREE ENERGY PREDICTED BY IDOCK:   -2.49 KCAL/MOL
REMARK 927      BINDING AFFINITY PREDICTED BY RF-SCORE:    0.00 PKD
ROOT
HETATM    1  C   UNL     1     -12.055  12.014  63.461  1.00  0.00    -0.628 C  
HETATM    2  C   UNL     1     -10.680  11.358  63.491  1.00  0.00    -0.453 C  
ENDROOT
BRANCH   2   3
HETATM    3  C   UNL     1      -9.942  11.736  64.775  1.00  0.00    -0.275 C  
BRANCH   3   4
HETATM    4  C   UNL     1      -9.055  10.652  65.380  1.00  0.00    -0.214 C  
BRANCH   4   5
HETATM    5  C   UNL     1      -9.036  10.632  66.876  1.00  0.00    -0.137 A  
HETATM    6  N   UNL     1      -8.116  11.274  67.568  1.00  0.00    -0.121 NA 
HETATM    7  C   UNL     1      -8.431  11.098  68.876  1.00  0.00    -0.092 A  
HETATM    8  C   UNL     1      -9.559  10.323  69.014  1.00  0.00    -0.203 A  
HETATM    9  N   UNL     1      -9.922   9.965  67.719  1.00  0.00    -0.158 NA 
BRANCH   8  10
HETATM   10  C   UNL     1     -10.307   9.966  70.150  1.00  0.00    -0.336 C  
HETATM   11  O   UNL     1     -10.419   8.141  73.204  1.00  0.00    -0.285 OA 
HETATM   12  C   UNL     1      -9.937   8.995  71.009  1.00  0.00    -0.349 C  
HETATM   13  C   UNL     1     -10.899   8.797  72.133  1.00  0.00    -0.330 C  
HETATM   14  O   UNL     1     -12.059   9.182  72.091  1.00  0.00    -0.362 OA 
BRANCH  12  15
HETATM   15  C   UNL     1      -8.717   8.123  70.876  1.00  0.00    -0.152 C  
BRANCH  15  16
HETATM   16  C   UNL     1      -8.950   6.642  70.723  1.00  0.00    -0.151 A  
HETATM   17  C   UNL     1      -9.928   4.533  70.529  1.00  0.00    -0.278 A  
HETATM   18  C   UNL     1     -10.114   5.944  70.462  1.00  0.00    -0.254 A  
HETATM   19  C   UNL     1      -8.616   4.197  70.770  1.00  0.00    -0.075 A  
HETATM   20  S   UNL     1      -7.616   5.574  70.909  1.00  0.00    -0.092 SA 
ENDBRANCH  15  16
ENDBRANCH  12  15
ENDBRANCH   8  10
BRANCH   9  21
HETATM   21  C   UNL     1     -10.868   8.905  67.332  1.00  0.00    -0.026 C  
BRANCH  21  22
HETATM   22  C   UNL     1     -10.241   7.548  67.084  1.00  0.00    -0.350 A  
HETATM   23  C   UNL     1      -8.854   7.358  67.145  1.00  0.00    -0.126 A  
HETATM   24  C   UNL     1      -8.293   6.080  67.077  1.00  0.00    -0.105 A  
HETATM   25  C   UNL     1     -11.032   6.438  66.752  1.00  0.00    -0.321 A  
HETATM   26  O   UNL     1      -9.326   2.733  67.650  1.00  0.00    -0.192 OA 
HETATM   27  C   UNL     1     -10.484   5.154  66.688  1.00  0.00    -0.328 A  
HETATM   28  C   UNL     1      -9.120   4.968  66.923  1.00  0.00    -0.117 A  
HETATM   29  O   UNL     1      -7.396   3.349  66.639  1.00  0.00    -0.072 OA 
HETATM   30  C   UNL     1      -8.520   3.618  67.021  1.00  0.00    -0.105 C  
ENDBRANCH  21  22
ENDBRANCH   9  21
ENDBRANCH   4   5
ENDBRANCH   3   4
ENDBRANCH   2   3
TORSDOF 8
ENDMDL
MODEL      101
REMARK 921   NORMALIZED FREE ENERGY PREDICTED BY IDOCK:   -4.80 KCAL/MOL
REMARK 922        TOTAL FREE ENERGY PREDICTED BY IDOCK:   -9.16 KCAL/MOL
REMARK 923 INTER-LIGAND FREE ENERGY PREDICTED BY IDOCK:   -8.07 KCAL/MOL
REMARK 924 INTRA-LIGAND FREE ENERGY PREDICTED BY IDOCK:   -1.09 KCAL/MOL
REMARK 927      BINDING AFFINITY PREDICTED BY RF-SCORE:    0.00 PKD
ROOT
HETATM    1  C   UNL     1      -7.686   6.845  68.932  1.00  0.00    -0.110 C  
HETATM    2  C   UNL     1      -7.089   7.557  70.139  1.00  0.00    -0.060 C  
ENDROOT
BRANCH   2   3
HETATM    3  C   UNL     1      -6.900   9.044  69.837  1.00  0.00    -0.047 C  
BRANCH   3   4
HETATM    4  C   UNL     1      -8.149   9.912  69.944  1.00  0.00    -0.200 C  
BRANCH   4   5
HETATM    5  C   UNL     1      -8.524  10.615  68.678  1.00  0.00    -0.142 A  
HETATM    6  N   UNL     1      -7.617  11.021  67.813  1.00  0.00    -0.097 NA 
HETATM    7  C   UNL     1      -8.299  11.552  66.766  1.00  0.00    -0.165 A  
HETATM    8  C   UNL     1      -9.656  11.494  66.979  1.00  0.00    -0.185 A  
HETATM    9  N   UNL     1      -9.808  10.942  68.247  1.00  0.00    -0.164 NA 
BRANCH   8  10
HETATM   10  C   UNL     1     -10.741  11.821  66.146  1.00  0.00    -0.320 C  
HETATM   11  O   UNL     1     -12.994  14.338  65.023  1.00  0.00    -0.693 OA 
HETATM   12  C   UNL     1     -11.423  12.981  66.235  1.00  0.00    -0.379 C  
HETATM   13  C   UNL     1     -12.537  13.094  65.248  1.00  0.00    -0.472 C  
HETATM   14  O   UNL     1     -13.028  12.125  64.687  1.00  0.00    -0.651 OA 
BRANCH  12  15
HETATM   15  C   UNL     1     -11.172  14.072  67.243  1.00  0.00    -0.328 C  
BRANCH  15  16
HETATM   16  C   UNL     1     -10.210  15.161  66.844  1.00  0.00    -0.259 A  
HETATM   17  C   UNL     1      -8.300  16.358  66.247  1.00  0.00    -0.362 A  
HETATM   18  C   UNL     1      -8.910  15.078  66.384  1.00  0.00    -0.238 A  
HETATM   19  C   UNL     1      -9.174  17.380  66.539  1.00  0.00    -0.266 A  
HETATM   20  S   UNL     1     -10.720  16.798  66.971  1.00  0.00    -0.084 SA 
ENDBRANCH  15  16
ENDBRANCH  12  15
ENDBRANCH   8  10
BRANCH   9  21
HETATM   21  C   UNL     1     -11.032  10.944  69.066  1.00  0.00    -0.235 C  
BRANCH  21  22
HETATM   22  C   UNL     1     -11.203   9.735  69.964  1.00  0.00    -0.297 A  
HETATM   23  C   UNL     1     -10.953   8.436  69.501  1.00  0.00    -0.051 A  
HETATM   24  C   UNL     1     -10.954   7.343  70.372  1.00  0.00    -0.269 A  
HETATM   25  C   UNL     1     -11.650   9.876  71.286  1.00  0.00    -0.456 A  
HETATM   26  O   UNL     1     -10.557   6.767  73.851  1.00  0.00    -0.350 OA 
HETATM   27  C   UNL     1     -11.649   8.791  72.168  1.00  0.00    -0.434 A  
HETATM   28  C   UNL     1     -11.230   7.535  71.724  1.00  0.00    -0.281 A  
HETATM   29  O   UNL     1     -11.287   5.237  72.349  1.00  0.00    -0.213 OA 
HETATM   30  C   UNL     1     -11.061   6.394  72.653  1.00  0.00    -0.261 C  
ENDBRANCH  21  22
ENDBRANCH   9  21
ENDBRANCH   4   5
ENDBRANCH   3   4
ENDBRANCH   2   3
TORSDOF 8
ENDMDL
MODEL      102
REMARK 921   NORMALIZED FREE ENERGY PREDICTED BY IDOCK:   -4.79 KCAL/MOL
REMARK 922        TOTAL FREE ENERGY PREDICTED BY IDOCK:   -9.15 KCAL/MOL
REMARK 923 INTER-LIGAND FREE ENERGY PREDICTED BY IDOCK:   -7.63 KCAL/MOL
REMARK 924 INTRA-LIGAND FREE ENERGY PREDICTED BY IDOCK:   -1.52 KCAL/MOL
REMARK 927      BINDING AFFINITY PREDICTED BY RF-SCORE:    0.00 PKD
ROOT
HETATM    1  C   UNL     1      -7.468   8.994  63.453  1.00  0.00    -0.099 C  
HETATM    2  C   UNL     1      -7.341   9.427  64.908  1.00  0.00    -0.106 C  
ENDROOT
BRANCH   2   3
HETATM    3  C   UNL     1      -8.286  10.594  65.197  1.00  0.00    -0.117 C  
BRANCH   3   4
HETATM    4  C   UNL     1      -9.677  10.219  65.699  1.00  0.00    -0.308 C  
BRANCH   4   5
HETATM    5  C   UNL     1     -10.453  11.359  66.278  1.00  0.00    -0.255 A  
HETATM    6  N   UNL     1     -11.288  12.073  65.550  1.00  0.00    -0.341 NA 
HETATM    7  C   UNL     1     -11.861  12.968  66.394  1.00  0.00    -0.405 A  
HETATM    8  C   UNL     1     -11.371  12.827  67.671  1.00  0.00    -0.310 A  
HETATM    9  N   UNL     1     -10.411  11.824  67.591  1.00  0.00    -0.197 NA 
BRANCH   8  10
HETATM   10  C   UNL     1     -11.734  13.450  68.879  1.00  0.00    -0.369 C  
HETATM   11  O   UNL     1     -11.308  16.238  71.052  1.00  0.00    -0.389 OA 
HETATM   12  C   UNL     1     -11.080  14.511  69.395  1.00  0.00    -0.297 C  
HETATM   13  C   UNL     1     -11.650  14.989  70.689  1.00  0.00    -0.311 C  
HETATM   14  O   UNL     1     -12.367  14.296  71.396  1.00  0.00    -0.334 OA 
BRANCH  12  15
HETATM   15  C   UNL     1      -9.857  15.160  68.804  1.00  0.00    -0.223 C  
BRANCH  15  16
HETATM   16  C   UNL     1     -10.086  16.262  67.802  1.00  0.00    -0.252 A  
HETATM   17  C   UNL     1     -10.511  17.466  65.851  1.00  0.00    -0.256 A  
HETATM   18  C   UNL     1     -10.579  16.206  66.512  1.00  0.00    -0.268 A  
HETATM   19  C   UNL     1     -10.036  18.458  66.677  1.00  0.00    -0.368 A  
HETATM   20  S   UNL     1      -9.678  17.872  68.241  1.00  0.00    -0.345 SA 
ENDBRANCH  15  16
ENDBRANCH  12  15
ENDBRANCH   8  10
BRANCH   9  21
HETATM   21  C   UNL     1      -9.388  11.502  68.600  1.00  0.00    -0.137 C  
BRANCH  21  22
HETATM   22  C   UNL     1      -9.619  10.208  69.355  1.00  0.00    -0.249 A  
HETATM   23  C   UNL     1      -8.560   9.500  69.939  1.00  0.00    -0.217 A  
HETATM   24  C   UNL     1      -8.793   8.400  70.768  1.00  0.00    -0.171 A  
HETATM   25  C   UNL     1     -10.904   9.658  69.466  1.00  0.00    -0.253 A  
HETATM   26  O   UNL     1     -11.453   7.125  72.741  1.00  0.00    -0.266 OA 
HETATM   27  C   UNL     1     -11.150   8.561  70.297  1.00  0.00    -0.222 A  
HETATM   28  C   UNL     1     -10.099   7.977  71.006  1.00  0.00    -0.213 A  
HETATM   29  O   UNL     1      -9.558   5.999  72.220  1.00  0.00    -0.151 OA 
HETATM   30  C   UNL     1     -10.330   6.919  72.017  1.00  0.00    -0.199 C  
ENDBRANCH  21  22
ENDBRANCH   9  21
ENDBRANCH   4   5
ENDBRANCH   3   4
ENDBRANCH   2   3
TORSDOF 8
ENDMDL
MODEL      103
REMARK 921   NORMALIZED FREE ENERGY PREDICTED BY IDOCK:   -4.79 KCAL/MOL
REMARK 922        TOTAL FREE ENERGY PREDICTED BY IDOCK:   -9.14 KCAL/MOL
REMARK 923 INTER-LIGAND FREE ENERGY PREDICTED BY IDOCK:   -6.61 KCAL/MOL
REMARK 924 INTRA-LIGAND FREE ENERGY PREDICTED BY IDOCK:   -2.54 KCAL/MOL
REMARK 927      BINDING AFFINITY PREDICTED BY RF-SCORE:    0.00 PKD
ROOT
HETATM    1  C   UNL     1      -9.408  11.514  63.065  1.00  0.00    -0.293 C  
HETATM    2  C   UNL     1      -9.102  10.138  63.642  1.00  0.00    -0.289 C  
ENDROOT
BRANCH   2   3
HETATM    3  C   UNL     1      -7.590   9.934  63.751  1.00  0.00    -0.136 C  
BRANCH   3   4
HETATM    4  C   UNL     1      -6.945  10.401  65.052  1.00  0.00    -0.064 C  
BRANCH   4   5
HETATM    5  C   UNL     1      -7.192   9.501  66.221  1.00  0.00    -0.093 A  
HETATM    6  N   UNL     1      -7.177   8.188  66.104  1.00  0.00    -0.066 NA 
HETATM    7  C   UNL     1      -7.371   7.692  67.353  1.00  0.00    -0.092 A  
HETATM    8  C   UNL     1      -7.525   8.705  68.270  1.00  0.00    -0.095 A  
HETATM    9  N   UNL     1      -7.471   9.884  67.532  1.00  0.00    -0.090 NA 
BRANCH   8  10
HETATM   10  C   UNL     1      -7.645   8.679  69.671  1.00  0.00    -0.080 C  
HETATM   11  O   UNL     1      -9.669   7.866  72.484  1.00  0.00    -0.185 OA 
HETATM   12  C   UNL     1      -8.804   8.434  70.314  1.00  0.00    -0.142 C  
HETATM   13  C   UNL     1      -8.679   8.466  71.801  1.00  0.00    -0.180 C  
HETATM   14  O   UNL     1      -7.752   9.017  72.377  1.00  0.00    -0.346 OA 
BRANCH  12  15
HETATM   15  C   UNL     1     -10.139   8.197  69.658  1.00  0.00    -0.199 C  
BRANCH  15  16
HETATM   16  C   UNL     1     -10.311   6.902  68.908  1.00  0.00    -0.189 A  
HETATM   17  C   UNL     1     -10.211   4.672  68.230  1.00  0.00     0.002 A  
HETATM   18  C   UNL     1     -10.024   5.605  69.291  1.00  0.00    -0.251 A  
HETATM   19  C   UNL     1     -10.700   5.274  67.095  1.00  0.00    -0.058 A  
HETATM   20  S   UNL     1     -10.937   6.952  67.309  1.00  0.00    -0.291 SA 
ENDBRANCH  15  16
ENDBRANCH  12  15
ENDBRANCH   8  10
BRANCH   9  21
HETATM   21  C   UNL     1      -7.881  11.223  67.984  1.00  0.00    -0.115 C  
BRANCH  21  22
HETATM   22  C   UNL     1      -9.180  11.729  67.388  1.00  0.00    -0.174 A  
HETATM   23  C   UNL     1      -9.357  13.079  67.053  1.00  0.00    -0.236 A  
HETATM   24  C   UNL     1     -10.490  13.511  66.358  1.00  0.00    -0.287 A  
HETATM   25  C   UNL     1     -10.264  10.864  67.181  1.00  0.00    -0.249 A  
HETATM   26  O   UNL     1     -12.958  12.096  64.237  1.00  0.00    -0.650 OA 
HETATM   27  C   UNL     1     -11.399  11.283  66.481  1.00  0.00    -0.122 A  
HETATM   28  C   UNL     1     -11.478  12.594  66.006  1.00  0.00    -0.414 A  
HETATM   29  O   UNL     1     -13.056  14.163  65.156  1.00  0.00    -0.757 OA 
HETATM   30  C   UNL     1     -12.583  13.042  65.127  1.00  0.00    -0.469 C  
ENDBRANCH  21  22
ENDBRANCH   9  21
ENDBRANCH   4   5
ENDBRANCH   3   4
ENDBRANCH   2   3
TORSDOF 8
ENDMDL
MODEL      104
REMARK 921   NORMALIZED FREE ENERGY PREDICTED BY IDOCK:   -4.79 KCAL/MOL
REMARK 922        TOTAL FREE ENERGY PREDICTED BY IDOCK:   -9.14 KCAL/MOL
REMARK 923 INTER-LIGAND FREE ENERGY PREDICTED BY IDOCK:   -7.72 KCAL/MOL
REMARK 924 INTRA-LIGAND FREE ENERGY PREDICTED BY IDOCK:   -1.42 KCAL/MOL
REMARK 927      BINDING AFFINITY PREDICTED BY RF-SCORE:    0.00 PKD
ROOT
HETATM    1  C   UNL     1      -9.026   6.261  66.325  1.00  0.00    -0.164 C  
HETATM    2  C   UNL     1      -8.549   6.202  67.771  1.00  0.00    -0.114 C  
ENDROOT
BRANCH   2   3
HETATM    3  C   UNL     1      -9.619   6.770  68.704  1.00  0.00    -0.131 C  
BRANCH   3   4
HETATM    4  C   UNL     1     -10.611   7.741  68.072  1.00  0.00    -0.201 C  
BRANCH   4   5
HETATM    5  C   UNL     1     -10.275   9.186  68.272  1.00  0.00    -0.206 A  
HETATM    6  N   UNL     1      -9.198   9.729  67.741  1.00  0.00    -0.131 NA 
HETATM    7  C   UNL     1      -9.237  11.047  68.065  1.00  0.00    -0.159 A  
HETATM    8  C   UNL     1     -10.347  11.337  68.822  1.00  0.00    -0.205 A  
HETATM    9  N   UNL     1     -10.995  10.121  69.013  1.00  0.00    -0.226 NA 
BRANCH   8  10
HETATM   10  C   UNL     1     -10.854  12.561  69.295  1.00  0.00    -0.054 C  
HETATM   11  O   UNL     1     -11.772  15.914  68.525  1.00  0.00    -0.383 OA 
HETATM   12  C   UNL     1     -10.828  13.704  68.578  1.00  0.00    -0.275 C  
HETATM   13  C   UNL     1     -11.419  14.871  69.296  1.00  0.00    -0.303 C  
HETATM   14  O   UNL     1     -11.561  14.901  70.510  1.00  0.00    -0.262 OA 
BRANCH  12  15
HETATM   15  C   UNL     1     -10.228  13.866  67.206  1.00  0.00    -0.249 C  
BRANCH  15  16
HETATM   16  C   UNL     1     -11.119  13.559  66.031  1.00  0.00    -0.293 A  
HETATM   17  C   UNL     1     -12.437  12.483  64.435  1.00  0.00    -0.530 A  
HETATM   18  C   UNL     1     -11.813  12.406  65.714  1.00  0.00    -0.467 A  
HETATM   19  C   UNL     1     -12.259  13.714  63.847  1.00  0.00    -0.374 A  
HETATM   20  S   UNL     1     -11.350  14.770  64.834  1.00  0.00    -0.411 SA 
ENDBRANCH  15  16
ENDBRANCH  12  15
ENDBRANCH   8  10
BRANCH   9  21
HETATM   21  C   UNL     1     -12.053   9.832  69.995  1.00  0.00     0.125 C  
BRANCH  21  22
HETATM   22  C   UNL     1     -11.673   8.833  71.069  1.00  0.00    -0.329 A  
HETATM   23  C   UNL     1     -12.444   7.688  71.313  1.00  0.00    -0.324 A  
HETATM   24  C   UNL     1     -12.006   6.691  72.189  1.00  0.00    -0.320 A  
HETATM   25  C   UNL     1     -10.549   9.041  71.882  1.00  0.00    -0.388 A  
HETATM   26  O   UNL     1      -8.926   5.576  73.555  1.00  0.00    -0.126 OA 
HETATM   27  C   UNL     1     -10.097   8.049  72.757  1.00  0.00    -0.378 A  
HETATM   28  C   UNL     1     -10.791   6.841  72.855  1.00  0.00    -0.304 A  
HETATM   29  O   UNL     1     -10.978   4.922  74.255  1.00  0.00    -0.322 OA 
HETATM   30  C   UNL     1     -10.269   5.702  73.645  1.00  0.00    -0.218 C  
ENDBRANCH  21  22
ENDBRANCH   9  21
ENDBRANCH   4   5
ENDBRANCH   3   4
ENDBRANCH   2   3
TORSDOF 8
ENDMDL
MODEL      105
REMARK 921   NORMALIZED FREE ENERGY PREDICTED BY IDOCK:   -4.77 KCAL/MOL
REMARK 922        TOTAL FREE ENERGY PREDICTED BY IDOCK:   -9.12 KCAL/MOL
REMARK 923 INTER-LIGAND FREE ENERGY PREDICTED BY IDOCK:   -6.85 KCAL/MOL
REMARK 924 INTRA-LIGAND FREE ENERGY PREDICTED BY IDOCK:   -2.28 KCAL/MOL
REMARK 927      BINDING AFFINITY PREDICTED BY RF-SCORE:    0.00 PKD
ROOT
HETATM    1  C   UNL     1     -12.116  14.715  64.274  1.00  0.00    -0.437 C  
HETATM    2  C   UNL     1     -12.771  14.063  65.484  1.00  0.00    -0.517 C  
ENDROOT
BRANCH   2   3
HETATM    3  C   UNL     1     -11.812  14.077  66.676  1.00  0.00    -0.443 C  
BRANCH   3   4
HETATM    4  C   UNL     1     -11.699  12.772  67.458  1.00  0.00    -0.422 C  
BRANCH   4   5
HETATM    5  C   UNL     1     -10.782  11.762  66.846  1.00  0.00    -0.250 A  
HETATM    6  N   UNL     1     -11.023  11.228  65.665  1.00  0.00    -0.189 NA 
HETATM    7  C   UNL     1      -9.972  10.414  65.392  1.00  0.00    -0.295 A  
HETATM    8  C   UNL     1      -9.060  10.422  66.421  1.00  0.00    -0.157 A  
HETATM    9  N   UNL     1      -9.609  11.249  67.397  1.00  0.00    -0.169 NA 
BRANCH   8  10
HETATM   10  C   UNL     1      -7.791   9.827  66.542  1.00  0.00    -0.109 C  
HETATM   11  O   UNL     1      -5.738   6.999  65.860  1.00  0.00    -0.029 OA 
HETATM   12  C   UNL     1      -7.548   8.531  66.260  1.00  0.00    -0.090 C  
HETATM   13  C   UNL     1      -6.125   8.132  66.472  1.00  0.00    -0.049 C  
HETATM   14  O   UNL     1      -5.354   8.772  67.172  1.00  0.00    -0.036 OA 
BRANCH  12  15
HETATM   15  C   UNL     1      -8.575   7.520  65.823  1.00  0.00    -0.158 C  
BRANCH  15  16
HETATM   16  C   UNL     1      -9.370   6.842  66.908  1.00  0.00    -0.150 A  
HETATM   17  C   UNL     1     -11.035   6.243  68.428  1.00  0.00    -0.409 A  
HETATM   18  C   UNL     1     -10.706   6.962  67.243  1.00  0.00    -0.421 A  
HETATM   19  C   UNL     1      -9.959   5.541  68.921  1.00  0.00    -0.174 A  
HETATM   20  S   UNL     1      -8.564   5.746  67.958  1.00  0.00    -0.103 SA 
ENDBRANCH  15  16
ENDBRANCH  12  15
ENDBRANCH   8  10
BRANCH   9  21
HETATM   21  C   UNL     1      -9.184  11.353  68.802  1.00  0.00    -0.100 C  
BRANCH  21  22
HETATM   22  C   UNL     1      -9.507  10.146  69.659  1.00  0.00    -0.226 A  
HETATM   23  C   UNL     1      -8.521   9.216  70.021  1.00  0.00    -0.164 A  
HETATM   24  C   UNL     1      -8.786   8.198  70.940  1.00  0.00    -0.156 A  
HETATM   25  C   UNL     1     -10.817   9.900  70.095  1.00  0.00    -0.356 A  
HETATM   26  O   UNL     1     -11.114   7.560  73.541  1.00  0.00    -0.312 OA 
HETATM   27  C   UNL     1     -11.094   8.889  71.020  1.00  0.00    -0.340 A  
HETATM   28  C   UNL     1     -10.059   8.082  71.497  1.00  0.00    -0.228 A  
HETATM   29  O   UNL     1      -9.692   6.035  72.659  1.00  0.00    -0.156 OA 
HETATM   30  C   UNL     1     -10.269   7.105  72.590  1.00  0.00    -0.200 C  
ENDBRANCH  21  22
ENDBRANCH   9  21
ENDBRANCH   4   5
ENDBRANCH   3   4
ENDBRANCH   2   3
TORSDOF 8
ENDMDL
MODEL      106
REMARK 921   NORMALIZED FREE ENERGY PREDICTED BY IDOCK:   -4.71 KCAL/MOL
REMARK 922        TOTAL FREE ENERGY PREDICTED BY IDOCK:   -9.03 KCAL/MOL
REMARK 923 INTER-LIGAND FREE ENERGY PREDICTED BY IDOCK:   -7.38 KCAL/MOL
REMARK 924 INTRA-LIGAND FREE ENERGY PREDICTED BY IDOCK:   -1.65 KCAL/MOL
REMARK 927      BINDING AFFINITY PREDICTED BY RF-SCORE:    0.00 PKD
ROOT
HETATM    1  C   UNL     1      -7.799   5.608  68.360  1.00  0.00    -0.092 C  
HETATM    2  C   UNL     1      -7.016   6.402  69.398  1.00  0.00    -0.071 C  
ENDROOT
BRANCH   2   3
HETATM    3  C   UNL     1      -6.391   7.641  68.754  1.00  0.00    -0.040 C  
BRANCH   3   4
HETATM    4  C   UNL     1      -6.939   8.986  69.222  1.00  0.00    -0.057 C  
BRANCH   4   5
HETATM    5  C   UNL     1      -7.285   9.931  68.115  1.00  0.00    -0.078 A  
HETATM    6  N   UNL     1      -6.538  10.980  67.837  1.00  0.00    -0.062 NA 
HETATM    7  C   UNL     1      -7.099  11.573  66.753  1.00  0.00    -0.112 A  
HETATM    8  C   UNL     1      -8.226  10.895  66.347  1.00  0.00    -0.163 A  
HETATM    9  N   UNL     1      -8.387   9.863  67.265  1.00  0.00    -0.121 NA 
BRANCH   8  10
HETATM   10  C   UNL     1      -9.063  11.072  65.231  1.00  0.00    -0.207 C  
HETATM   11  O   UNL     1     -11.617  13.013  63.686  1.00  0.00    -0.451 OA 
HETATM   12  C   UNL     1     -10.100  11.934  65.208  1.00  0.00    -0.290 C  
HETATM   13  C   UNL     1     -10.843  11.937  63.914  1.00  0.00    -0.395 C  
HETATM   14  O   UNL     1     -10.780  11.018  63.110  1.00  0.00    -0.203 OA 
BRANCH  12  15
HETATM   15  C   UNL     1     -10.550  12.797  66.357  1.00  0.00    -0.273 C  
BRANCH  15  16
HETATM   16  C   UNL     1     -10.212  14.264  66.282  1.00  0.00    -0.301 A  
HETATM   17  C   UNL     1     -10.199  16.539  65.769  1.00  0.00    -0.350 A  
HETATM   18  C   UNL     1     -10.938  15.321  65.765  1.00  0.00    -0.340 A  
HETATM   19  C   UNL     1      -8.962  16.390  66.351  1.00  0.00    -0.305 A  
HETATM   20  S   UNL     1      -8.696  14.793  66.893  1.00  0.00    -0.217 SA 
ENDBRANCH  15  16
ENDBRANCH  12  15
ENDBRANCH   8  10
BRANCH   9  21
HETATM   21  C   UNL     1      -9.593   9.041  67.461  1.00  0.00    -0.144 C  
BRANCH  21  22
HETATM   22  C   UNL     1     -10.418   9.396  68.681  1.00  0.00    -0.236 A  
HETATM   23  C   UNL     1     -11.061  10.636  68.797  1.00  0.00    -0.316 A  
HETATM   24  C   UNL     1     -11.949  10.898  69.844  1.00  0.00    -0.430 A  
HETATM   25  C   UNL     1     -10.540   8.502  69.755  1.00  0.00    -0.224 A  
HETATM   26  O   UNL     1     -13.947   9.035  72.109  1.00  0.00    -0.431 OA 
HETATM   27  C   UNL     1     -11.430   8.749  70.804  1.00  0.00    -0.309 A  
HETATM   28  C   UNL     1     -12.190   9.921  70.808  1.00  0.00    -0.380 A  
HETATM   29  O   UNL     1     -13.526  11.255  72.261  1.00  0.00    -0.341 OA 
HETATM   30  C   UNL     1     -13.256  10.157  71.808  1.00  0.00    -0.438 C  
ENDBRANCH  21  22
ENDBRANCH   9  21
ENDBRANCH   4   5
ENDBRANCH   3   4
ENDBRANCH   2   3
TORSDOF 8
ENDMDL
MODEL      107
REMARK 921   NORMALIZED FREE ENERGY PREDICTED BY IDOCK:   -4.70 KCAL/MOL
REMARK 922        TOTAL FREE ENERGY PREDICTED BY IDOCK:   -9.01 KCAL/MOL
REMARK 923 INTER-LIGAND FREE ENERGY PREDICTED BY IDOCK:   -7.06 KCAL/MOL
REMARK 924 INTRA-LIGAND FREE ENERGY PREDICTED BY IDOCK:   -1.94 KCAL/MOL
REMARK 927      BINDING AFFINITY PREDICTED BY RF-SCORE:    0.00 PKD
ROOT
HETATM    1  C   UNL     1      -6.408  10.034  67.463  1.00  0.00    -0.059 C  
HETATM    2  C   UNL     1      -7.124  10.501  68.724  1.00  0.00    -0.073 C  
ENDROOT
BRANCH   2   3
HETATM    3  C   UNL     1      -6.829  11.979  68.982  1.00  0.00    -0.105 C  
BRANCH   3   4
HETATM    4  C   UNL     1      -7.050  12.921  67.802  1.00  0.00    -0.137 C  
BRANCH   4   5
HETATM    5  C   UNL     1      -7.641  14.245  68.169  1.00  0.00    -0.134 A  
HETATM    6  N   UNL     1      -7.220  14.929  69.214  1.00  0.00    -0.160 NA 
HETATM    7  C   UNL     1      -7.918  16.093  69.215  1.00  0.00    -0.194 A  
HETATM    8  C   UNL     1      -8.803  16.139  68.164  1.00  0.00    -0.184 A  
HETATM    9  N   UNL     1      -8.672  14.915  67.515  1.00  0.00    -0.178 NA 
BRANCH   8  10
HETATM   10  C   UNL     1      -9.648  17.167  67.706  1.00  0.00    -0.256 C  
HETATM   11  O   UNL     1     -10.181  19.765  65.331  1.00  0.00    -0.347 OA 
HETATM   12  C   UNL     1      -9.273  18.088  66.796  1.00  0.00    -0.285 C  
HETATM   13  C   UNL     1     -10.342  19.080  66.477  1.00  0.00    -0.439 C  
HETATM   14  O   UNL     1     -11.300  19.282  67.210  1.00  0.00    -0.181 OA 
BRANCH  12  15
HETATM   15  C   UNL     1      -7.909  18.196  66.166  1.00  0.00    -0.239 C  
BRANCH  15  16
HETATM   16  C   UNL     1      -7.057  19.368  66.579  1.00  0.00    -0.219 A  
HETATM   17  C   UNL     1      -6.091  21.133  67.758  1.00  0.00    -0.423 A  
HETATM   18  C   UNL     1      -6.888  19.954  67.820  1.00  0.00    -0.284 A  
HETATM   19  C   UNL     1      -5.620  21.372  66.488  1.00  0.00    -0.291 A  
HETATM   20  S   UNL     1      -6.132  20.178  65.379  1.00  0.00    -0.230 SA 
ENDBRANCH  15  16
ENDBRANCH  12  15
ENDBRANCH   8  10
BRANCH   9  21
HETATM   21  C   UNL     1      -9.597  14.343  66.523  1.00  0.00    -0.293 C  
BRANCH  21  22
HETATM   22  C   UNL     1      -9.992  12.901  66.774  1.00  0.00    -0.243 A  
HETATM   23  C   UNL     1      -9.720  11.892  65.839  1.00  0.00    -0.258 A  
HETATM   24  C   UNL     1      -9.938  10.546  66.142  1.00  0.00    -0.286 A  
HETATM   25  C   UNL     1     -10.674  12.533  67.942  1.00  0.00    -0.239 A  
HETATM   26  O   UNL     1     -10.235   8.530  69.048  1.00  0.00    -0.199 OA 
HETATM   27  C   UNL     1     -10.892  11.189  68.259  1.00  0.00    -0.258 A  
HETATM   28  C   UNL     1     -10.456  10.191  67.386  1.00  0.00    -0.310 A  
HETATM   29  O   UNL     1     -10.739   7.867  66.942  1.00  0.00    -0.333 OA 
HETATM   30  C   UNL     1     -10.520   8.755  67.745  1.00  0.00    -0.229 C  
ENDBRANCH  21  22
ENDBRANCH   9  21
ENDBRANCH   4   5
ENDBRANCH   3   4
ENDBRANCH   2   3
TORSDOF 8
ENDMDL
MODEL      108
REMARK 921   NORMALIZED FREE ENERGY PREDICTED BY IDOCK:   -4.69 KCAL/MOL
REMARK 922        TOTAL FREE ENERGY PREDICTED BY IDOCK:   -9.00 KCAL/MOL
REMARK 923 INTER-LIGAND FREE ENERGY PREDICTED BY IDOCK:   -8.06 KCAL/MOL
REMARK 924 INTRA-LIGAND FREE ENERGY PREDICTED BY IDOCK:   -0.94 KCAL/MOL
REMARK 927      BINDING AFFINITY PREDICTED BY RF-SCORE:    0.00 PKD
ROOT
HETATM    1  C   UNL     1     -11.939  15.141  73.456  1.00  0.00    -0.495 C  
HETATM    2  C   UNL     1     -12.190  16.042  72.254  1.00  0.00    -0.604 C  
ENDROOT
BRANCH   2   3
HETATM    3  C   UNL     1     -11.741  15.347  70.968  1.00  0.00    -0.408 C  
BRANCH   3   4
HETATM    4  C   UNL     1     -10.325  15.662  70.497  1.00  0.00    -0.007 C  
BRANCH   4   5
HETATM    5  C   UNL     1      -9.872  14.860  69.318  1.00  0.00    -0.159 A  
HETATM    6  N   UNL     1      -8.973  13.903  69.432  1.00  0.00     0.566 NA 
HETATM    7  C   UNL     1      -8.848  13.348  68.200  1.00  0.00    -0.180 A  
HETATM    8  C   UNL     1      -9.670  13.972  67.291  1.00  0.00    -0.237 A  
HETATM    9  N   UNL     1     -10.293  14.996  67.997  1.00  0.00    -0.234 NA 
BRANCH   8  10
HETATM   10  C   UNL     1      -9.952  13.683  65.943  1.00  0.00    -0.304 C  
HETATM   11  O   UNL     1     -12.333  12.501  63.575  1.00  0.00    -0.554 OA 
HETATM   12  C   UNL     1     -11.045  13.002  65.542  1.00  0.00    -0.300 C  
HETATM   13  C   UNL     1     -11.120  12.815  64.063  1.00  0.00    -0.414 C  
HETATM   14  O   UNL     1     -10.146  12.916  63.331  1.00  0.00    -0.169 OA 
BRANCH  12  15
HETATM   15  C   UNL     1     -12.095  12.415  66.448  1.00  0.00    -0.215 C  
BRANCH  15  16
HETATM   16  C   UNL     1     -11.617  11.489  67.536  1.00  0.00    -0.246 A  
HETATM   17  C   UNL     1     -11.099  10.529  69.598  1.00  0.00    -0.338 A  
HETATM   18  C   UNL     1     -11.850  11.517  68.898  1.00  0.00    -0.406 A  
HETATM   19  C   UNL     1     -10.371   9.734  68.744  1.00  0.00    -0.208 A  
HETATM   20  S   UNL     1     -10.596  10.173  67.109  1.00  0.00    -0.224 SA 
ENDBRANCH  15  16
ENDBRANCH  12  15
ENDBRANCH   8  10
BRANCH   9  21
HETATM   21  C   UNL     1     -11.029  16.136  67.426  1.00  0.00    -0.210 C  
BRANCH  21  22
HETATM   22  C   UNL     1     -10.219  17.409  67.274  1.00  0.00    -0.324 A  
HETATM   23  C   UNL     1      -9.252  17.780  68.219  1.00  0.00    -0.280 A  
HETATM   24  C   UNL     1      -8.398  18.863  67.994  1.00  0.00    -0.325 A  
HETATM   25  C   UNL     1     -10.435  18.276  66.194  1.00  0.00    -0.403 A  
HETATM   26  O   UNL     1      -7.185  20.709  65.217  1.00  0.00    -0.120 OA 
HETATM   27  C   UNL     1      -9.584  19.359  65.956  1.00  0.00    -0.291 A  
HETATM   28  C   UNL     1      -8.518  19.608  66.822  1.00  0.00    -0.344 A  
HETATM   29  O   UNL     1      -6.950  21.311  67.387  1.00  0.00    -0.509 OA 
HETATM   30  C   UNL     1      -7.498  20.641  66.530  1.00  0.00    -0.117 C  
ENDBRANCH  21  22
ENDBRANCH   9  21
ENDBRANCH   4   5
ENDBRANCH   3   4
ENDBRANCH   2   3
TORSDOF 8
ENDMDL
MODEL      109
REMARK 921   NORMALIZED FREE ENERGY PREDICTED BY IDOCK:   -4.68 KCAL/MOL
REMARK 922        TOTAL FREE ENERGY PREDICTED BY IDOCK:   -8.99 KCAL/MOL
REMARK 923 INTER-LIGAND FREE ENERGY PREDICTED BY IDOCK:   -7.63 KCAL/MOL
REMARK 924 INTRA-LIGAND FREE ENERGY PREDICTED BY IDOCK:   -1.36 KCAL/MOL
REMARK 927      BINDING AFFINITY PREDICTED BY RF-SCORE:    0.00 PKD
ROOT
HETATM    1  C   UNL     1      -9.291  19.103  68.802  1.00  0.00    -0.423 C  
HETATM    2  C   UNL     1     -10.296  18.625  67.762  1.00  0.00    -0.454 C  
ENDROOT
BRANCH   2   3
HETATM    3  C   UNL     1     -11.047  17.397  68.278  1.00  0.00    -0.010 C  
BRANCH   3   4
HETATM    4  C   UNL     1     -10.190  16.308  68.916  1.00  0.00    -0.256 C  
BRANCH   4   5
HETATM    5  C   UNL     1     -10.741  14.924  68.773  1.00  0.00    -0.252 A  
HETATM    6  N   UNL     1     -11.957  14.615  69.174  1.00  0.00    -0.308 NA 
HETATM    7  C   UNL     1     -12.150  13.314  68.839  1.00  0.00    -0.222 A  
HETATM    8  C   UNL     1     -11.035  12.789  68.229  1.00  0.00    -0.252 A  
HETATM    9  N   UNL     1     -10.092  13.813  68.238  1.00  0.00    -0.234 NA 
BRANCH   8  10
HETATM   10  C   UNL     1     -10.807  11.538  67.629  1.00  0.00    -0.277 C  
HETATM   11  O   UNL     1     -10.199   8.062  68.099  1.00  0.00    -0.194 OA 
HETATM   12  C   UNL     1     -10.401  10.448  68.311  1.00  0.00    -0.198 C  
HETATM   13  C   UNL     1     -10.221   9.241  67.452  1.00  0.00    -0.243 C  
HETATM   14  O   UNL     1     -10.081   9.303  66.239  1.00  0.00    -0.278 OA 
BRANCH  12  15
HETATM   15  C   UNL     1     -10.089  10.400  69.783  1.00  0.00    -0.201 C  
BRANCH  15  16
HETATM   16  C   UNL     1     -11.211  10.003  70.706  1.00  0.00    -0.352 A  
HETATM   17  C   UNL     1     -13.142   9.993  72.015  1.00  0.00    -0.541 A  
HETATM   18  C   UNL     1     -12.414  10.632  70.970  1.00  0.00    -0.515 A  
HETATM   19  C   UNL     1     -12.508   8.859  72.467  1.00  0.00    -0.274 A  
HETATM   20  S   UNL     1     -11.047   8.566  71.633  1.00  0.00    -0.316 SA 
ENDBRANCH  15  16
ENDBRANCH  12  15
ENDBRANCH   8  10
BRANCH   9  21
HETATM   21  C   UNL     1      -8.648  13.681  67.984  1.00  0.00    -0.175 C  
BRANCH  21  22
HETATM   22  C   UNL     1      -8.002  14.883  67.326  1.00  0.00    -0.237 A  
HETATM   23  C   UNL     1      -8.598  15.532  66.235  1.00  0.00    -0.208 A  
HETATM   24  C   UNL     1      -8.085  16.731  65.735  1.00  0.00     0.388 A  
HETATM   25  C   UNL     1      -6.764  15.370  67.769  1.00  0.00    -0.187 A  
HETATM   26  O   UNL     1      -6.040  19.389  66.896  1.00  0.00    -0.171 OA 
HETATM   27  C   UNL     1      -6.243  16.572  67.281  1.00  0.00    -0.209 A  
HETATM   28  C   UNL     1      -6.946  17.291  66.312  1.00  0.00    -0.299 A  
HETATM   29  O   UNL     1      -6.651  19.058  64.741  1.00  0.00    -0.484 OA 
HETATM   30  C   UNL     1      -6.520  18.641  65.878  1.00  0.00    -0.243 C  
ENDBRANCH  21  22
ENDBRANCH   9  21
ENDBRANCH   4   5
ENDBRANCH   3   4
ENDBRANCH   2   3
TORSDOF 8
ENDMDL
MODEL      110
REMARK 921   NORMALIZED FREE ENERGY PREDICTED BY IDOCK:   -4.68 KCAL/MOL
REMARK 922        TOTAL FREE ENERGY PREDICTED BY IDOCK:   -8.98 KCAL/MOL
REMARK 923 INTER-LIGAND FREE ENERGY PREDICTED BY IDOCK:   -7.18 KCAL/MOL
REMARK 924 INTRA-LIGAND FREE ENERGY PREDICTED BY IDOCK:   -1.80 KCAL/MOL
REMARK 927      BINDING AFFINITY PREDICTED BY RF-SCORE:    0.00 PKD
ROOT
HETATM    1  C   UNL     1     -12.980  10.199  71.695  1.00  0.00    -0.561 C  
HETATM    2  C   UNL     1     -12.642  11.676  71.541  1.00  0.00    -0.341 C  
ENDROOT
BRANCH   2   3
HETATM    3  C   UNL     1     -11.989  11.931  70.182  1.00  0.00    -0.413 C  
BRANCH   3   4
HETATM    4  C   UNL     1     -11.717  10.695  69.330  1.00  0.00    -0.336 C  
BRANCH   4   5
HETATM    5  C   UNL     1     -10.315  10.593  68.819  1.00  0.00    -0.193 A  
HETATM    6  N   UNL     1      -9.274  10.829  69.593  1.00  0.00     0.129 NA 
HETATM    7  C   UNL     1      -8.173  10.586  68.836  1.00  0.00    -0.141 A  
HETATM    8  C   UNL     1      -8.524  10.205  67.562  1.00  0.00    -0.118 A  
HETATM    9  N   UNL     1      -9.913  10.267  67.525  1.00  0.00    -0.182 NA 
BRANCH   8  10
HETATM   10  C   UNL     1      -7.744   9.761  66.479  1.00  0.00    -0.105 C  
HETATM   11  O   UNL     1      -6.275   6.994  64.787  1.00  0.00    -0.036 OA 
HETATM   12  C   UNL     1      -7.259   8.507  66.375  1.00  0.00    -0.079 C  
HETATM   13  C   UNL     1      -6.455   8.279  65.139  1.00  0.00    -0.052 C  
HETATM   14  O   UNL     1      -5.966   9.191  64.487  1.00  0.00    -0.068 OA 
BRANCH  12  15
HETATM   15  C   UNL     1      -7.429   7.413  67.397  1.00  0.00    -0.104 C  
BRANCH  15  16
HETATM   16  C   UNL     1      -8.820   6.869  67.589  1.00  0.00    -0.118 A  
HETATM   17  C   UNL     1     -11.046   6.243  67.282  1.00  0.00    -0.387 A  
HETATM   18  C   UNL     1      -9.825   6.645  66.666  1.00  0.00    -0.208 A  
HETATM   19  C   UNL     1     -10.917   6.106  68.644  1.00  0.00    -0.336 A  
HETATM   20  S   UNL     1      -9.332   6.455  69.176  1.00  0.00    -0.131 SA 
ENDBRANCH  15  16
ENDBRANCH  12  15
ENDBRANCH   8  10
BRANCH   9  21
HETATM   21  C   UNL     1     -10.763  10.252  66.323  1.00  0.00     0.000 C  
BRANCH  21  22
HETATM   22  C   UNL     1     -10.977  11.605  65.674  1.00  0.00    -0.322 A  
HETATM   23  C   UNL     1     -12.244  12.204  65.626  1.00  0.00    -0.049 A  
HETATM   24  C   UNL     1     -12.409  13.515  65.175  1.00  0.00    -0.488 A  
HETATM   25  C   UNL     1      -9.914  12.291  65.069  1.00  0.00    -0.227 A  
HETATM   26  O   UNL     1     -10.416  16.429  64.807  1.00  0.00    -0.620 OA 
HETATM   27  C   UNL     1     -10.066  13.606  64.620  1.00  0.00    -0.228 A  
HETATM   28  C   UNL     1     -11.303  14.243  64.741  1.00  0.00    -0.382 A  
HETATM   29  O   UNL     1     -12.490  16.148  63.942  1.00  0.00    -0.824 OA 
HETATM   30  C   UNL     1     -11.476  15.680  64.427  1.00  0.00    -0.262 C  
ENDBRANCH  21  22
ENDBRANCH   9  21
ENDBRANCH   4   5
ENDBRANCH   3   4
ENDBRANCH   2   3
TORSDOF 8
ENDMDL
MODEL      111
REMARK 921   NORMALIZED FREE ENERGY PREDICTED BY IDOCK:   -4.68 KCAL/MOL
REMARK 922        TOTAL FREE ENERGY PREDICTED BY IDOCK:   -8.98 KCAL/MOL
REMARK 923 INTER-LIGAND FREE ENERGY PREDICTED BY IDOCK:   -7.19 KCAL/MOL
REMARK 924 INTRA-LIGAND FREE ENERGY PREDICTED BY IDOCK:   -1.79 KCAL/MOL
REMARK 927      BINDING AFFINITY PREDICTED BY RF-SCORE:    0.00 PKD
ROOT
HETATM    1  C   UNL     1      -8.580   8.207  73.708  1.00  0.00    -0.307 C  
HETATM    2  C   UNL     1      -9.357   7.059  73.075  1.00  0.00    -0.173 C  
ENDROOT
BRANCH   2   3
HETATM    3  C   UNL     1     -10.861   7.303  73.206  1.00  0.00    -0.404 C  
BRANCH   3   4
HETATM    4  C   UNL     1     -11.507   8.114  72.086  1.00  0.00    -0.412 C  
BRANCH   4   5
HETATM    5  C   UNL     1     -11.182   7.632  70.708  1.00  0.00    -0.268 A  
HETATM    6  N   UNL     1     -11.540   6.435  70.287  1.00  0.00    -0.412 NA 
HETATM    7  C   UNL     1     -11.147   6.354  68.990  1.00  0.00    -0.358 A  
HETATM    8  C   UNL     1     -10.520   7.510  68.590  1.00  0.00    -0.183 A  
HETATM    9  N   UNL     1     -10.485   8.323  69.719  1.00  0.00    -0.218 NA 
BRANCH   8  10
HETATM   10  C   UNL     1     -10.045   7.921  67.331  1.00  0.00    -0.292 C  
HETATM   11  O   UNL     1      -7.647   7.452  64.742  1.00  0.00    -0.088 OA 
HETATM   12  C   UNL     1      -8.868   7.516  66.811  1.00  0.00    -0.153 C  
HETATM   13  C   UNL     1      -8.581   8.093  65.465  1.00  0.00    -0.149 C  
HETATM   14  O   UNL     1      -9.137   9.096  65.041  1.00  0.00    -0.214 OA 
BRANCH  12  15
HETATM   15  C   UNL     1      -7.871   6.616  67.493  1.00  0.00    -0.111 C  
BRANCH  15  16
HETATM   16  C   UNL     1      -8.047   5.132  67.299  1.00  0.00    -0.104 A  
HETATM   17  C   UNL     1      -8.926   3.015  66.869  1.00  0.00    -0.178 A  
HETATM   18  C   UNL     1      -9.093   4.424  66.738  1.00  0.00    -0.133 A  
HETATM   19  C   UNL     1      -7.727   2.691  67.460  1.00  0.00    -0.061 A  
HETATM   20  S   UNL     1      -6.809   4.077  67.851  1.00  0.00    -0.048 SA 
ENDBRANCH  15  16
ENDBRANCH  12  15
ENDBRANCH   8  10
BRANCH   9  21
HETATM   21  C   UNL     1      -9.664   9.530  69.908  1.00  0.00    -0.224 C  
BRANCH  21  22
HETATM   22  C   UNL     1     -10.104  10.736  69.103  1.00  0.00    -0.224 A  
HETATM   23  C   UNL     1      -9.202  11.461  68.313  1.00  0.00    -0.183 A  
HETATM   24  C   UNL     1      -9.640  12.468  67.449  1.00  0.00    -0.192 A  
HETATM   25  C   UNL     1     -11.431  11.187  69.148  1.00  0.00    -0.366 A  
HETATM   26  O   UNL     1     -12.653  13.387  65.815  1.00  0.00    -0.446 OA 
HETATM   27  C   UNL     1     -11.883  12.189  68.284  1.00  0.00    -0.361 A  
HETATM   28  C   UNL     1     -10.997  12.780  67.382  1.00  0.00    -0.285 A  
HETATM   29  O   UNL     1     -10.798  14.678  65.955  1.00  0.00    -0.303 OA 
HETATM   30  C   UNL     1     -11.457  13.729  66.342  1.00  0.00    -0.336 C  
ENDBRANCH  21  22
ENDBRANCH   9  21
ENDBRANCH   4   5
ENDBRANCH   3   4
ENDBRANCH   2   3
TORSDOF 8
ENDMDL
MODEL      112
REMARK 921   NORMALIZED FREE ENERGY PREDICTED BY IDOCK:   -4.68 KCAL/MOL
REMARK 922        TOTAL FREE ENERGY PREDICTED BY IDOCK:   -8.98 KCAL/MOL
REMARK 923 INTER-LIGAND FREE ENERGY PREDICTED BY IDOCK:   -6.74 KCAL/MOL
REMARK 924 INTRA-LIGAND FREE ENERGY PREDICTED BY IDOCK:   -2.24 KCAL/MOL
REMARK 927      BINDING AFFINITY PREDICTED BY RF-SCORE:    0.00 PKD
ROOT
HETATM    1  C   UNL     1      -5.158  15.896  71.022  1.00  0.00    -0.162 C  
HETATM    2  C   UNL     1      -5.230  15.242  69.648  1.00  0.00    -0.095 C  
ENDROOT
BRANCH   2   3
HETATM    3  C   UNL     1      -6.049  16.111  68.692  1.00  0.00    -0.112 C  
BRANCH   3   4
HETATM    4  C   UNL     1      -6.578  15.413  67.443  1.00  0.00    -0.150 C  
BRANCH   4   5
HETATM    5  C   UNL     1      -6.783  13.939  67.598  1.00  0.00    -0.175 A  
HETATM    6  N   UNL     1      -5.876  13.066  67.207  1.00  0.00    -0.344 NA 
HETATM    7  C   UNL     1      -6.352  11.842  67.551  1.00  0.00    -0.105 A  
HETATM    8  C   UNL     1      -7.583  11.942  68.155  1.00  0.00    -0.121 A  
HETATM    9  N   UNL     1      -7.898  13.297  68.133  1.00  0.00    -0.134 NA 
BRANCH   8  10
HETATM   10  C   UNL     1      -8.401  10.971  68.760  1.00  0.00    -0.144 C  
HETATM   11  O   UNL     1     -10.576   8.189  68.307  1.00  0.00    -0.183 OA 
HETATM   12  C   UNL     1      -9.253  10.183  68.073  1.00  0.00    -0.142 C  
HETATM   13  C   UNL     1     -10.017   9.236  68.938  1.00  0.00    -0.181 C  
HETATM   14  O   UNL     1     -10.154   9.399  70.142  1.00  0.00    -0.201 OA 
BRANCH  12  15
HETATM   15  C   UNL     1      -9.498  10.239  66.588  1.00  0.00    -0.203 C  
BRANCH  15  16
HETATM   16  C   UNL     1      -8.568   9.439  65.713  1.00  0.00    -0.145 A  
HETATM   17  C   UNL     1      -6.825   8.108  64.920  1.00  0.00    -0.062 A  
HETATM   18  C   UNL     1      -7.562   8.555  66.055  1.00  0.00    -0.089 A  
HETATM   19  C   UNL     1      -7.335   8.607  63.744  1.00  0.00    -0.101 A  
HETATM   20  S   UNL     1      -8.695   9.605  64.007  1.00  0.00    -0.224 SA 
ENDBRANCH  15  16
ENDBRANCH  12  15
ENDBRANCH   8  10
BRANCH   9  21
HETATM   21  C   UNL     1      -9.220  13.897  68.377  1.00  0.00    -0.194 C  
BRANCH  21  22
HETATM   22  C   UNL     1     -10.174  13.841  67.200  1.00  0.00    -0.244 A  
HETATM   23  C   UNL     1      -9.827  14.369  65.948  1.00  0.00    -0.336 A  
HETATM   24  C   UNL     1     -10.640  14.172  64.829  1.00  0.00    -0.439 A  
HETATM   25  C   UNL     1     -11.454  13.285  67.335  1.00  0.00    -0.371 A  
HETATM   26  O   UNL     1     -13.150  11.892  63.782  1.00  0.00    -0.665 OA 
HETATM   27  C   UNL     1     -12.273  13.078  66.222  1.00  0.00    -0.390 A  
HETATM   28  C   UNL     1     -11.830  13.459  64.953  1.00  0.00    -0.403 A  
HETATM   29  O   UNL     1     -12.642  13.841  62.747  1.00  0.00    -0.447 OA 
HETATM   30  C   UNL     1     -12.588  13.120  63.726  1.00  0.00    -0.173 C  
ENDBRANCH  21  22
ENDBRANCH   9  21
ENDBRANCH   4   5
ENDBRANCH   3   4
ENDBRANCH   2   3
TORSDOF 8
ENDMDL
MODEL      113
REMARK 921   NORMALIZED FREE ENERGY PREDICTED BY IDOCK:   -4.67 KCAL/MOL
REMARK 922        TOTAL FREE ENERGY PREDICTED BY IDOCK:   -8.97 KCAL/MOL
REMARK 923 INTER-LIGAND FREE ENERGY PREDICTED BY IDOCK:   -7.82 KCAL/MOL
REMARK 924 INTRA-LIGAND FREE ENERGY PREDICTED BY IDOCK:   -1.16 KCAL/MOL
REMARK 927      BINDING AFFINITY PREDICTED BY RF-SCORE:    0.00 PKD
ROOT
HETATM    1  C   UNL     1      -8.108   7.496  71.143  1.00  0.00    -0.100 C  
HETATM    2  C   UNL     1      -8.582   8.934  70.972  1.00  0.00    -0.255 C  
ENDROOT
BRANCH   2   3
HETATM    3  C   UNL     1      -7.489   9.776  70.313  1.00  0.00    -0.173 C  
BRANCH   3   4
HETATM    4  C   UNL     1      -7.350   9.625  68.801  1.00  0.00    -0.074 C  
BRANCH   4   5
HETATM    5  C   UNL     1      -8.057  10.677  68.007  1.00  0.00    -0.112 A  
HETATM    6  N   UNL     1      -7.477  11.818  67.691  1.00  0.00    -0.115 NA 
HETATM    7  C   UNL     1      -8.368  12.499  66.926  1.00  0.00    -0.096 A  
HETATM    8  C   UNL     1      -9.532  11.785  66.767  1.00  0.00    -0.193 A  
HETATM    9  N   UNL     1      -9.361  10.626  67.518  1.00  0.00    -0.146 NA 
BRANCH   8  10
HETATM   10  C   UNL     1     -10.676  12.036  65.987  1.00  0.00    -0.317 C  
HETATM   11  O   UNL     1     -12.958  14.455  64.719  1.00  0.00    -0.616 OA 
HETATM   12  C   UNL     1     -11.322  13.219  65.973  1.00  0.00    -0.329 C  
HETATM   13  C   UNL     1     -12.512  13.238  65.073  1.00  0.00    -0.443 C  
HETATM   14  O   UNL     1     -13.070  12.220  64.689  1.00  0.00    -0.770 OA 
BRANCH  12  15
HETATM   15  C   UNL     1     -10.963  14.425  66.802  1.00  0.00    -0.314 C  
BRANCH  15  16
HETATM   16  C   UNL     1     -11.569  14.512  68.178  1.00  0.00    -0.331 A  
HETATM   17  C   UNL     1     -12.305  15.258  70.262  1.00  0.00    -0.407 A  
HETATM   18  C   UNL     1     -11.859  15.616  68.957  1.00  0.00    -0.379 A  
HETATM   19  C   UNL     1     -12.408  13.895  70.415  1.00  0.00    -0.363 A  
HETATM   20  S   UNL     1     -11.974  13.054  68.994  1.00  0.00    -0.207 SA 
ENDBRANCH  15  16
ENDBRANCH  12  15
ENDBRANCH   8  10
BRANCH   9  21
HETATM   21  C   UNL     1     -10.412   9.680  67.926  1.00  0.00    -0.246 C  
BRANCH  21  22
HETATM   22  C   UNL     1     -10.115   8.225  67.625  1.00  0.00    -0.268 A  
HETATM   23  C   UNL     1     -10.560   7.195  68.466  1.00  0.00    -0.219 A  
HETATM   24  C   UNL     1     -10.425   5.853  68.102  1.00  0.00    -0.291 A  
HETATM   25  C   UNL     1      -9.352   7.861  66.506  1.00  0.00    -0.255 A  
HETATM   26  O   UNL     1     -10.008   3.977  65.119  1.00  0.00    -0.193 OA 
HETATM   27  C   UNL     1      -9.216   6.522  66.129  1.00  0.00    -0.126 A  
HETATM   28  C   UNL     1      -9.817   5.520  66.893  1.00  0.00    -0.181 A  
HETATM   29  O   UNL     1      -9.772   3.161  67.218  1.00  0.00    -0.105 OA 
HETATM   30  C   UNL     1      -9.836   4.106  66.453  1.00  0.00    -0.195 C  
ENDBRANCH  21  22
ENDBRANCH   9  21
ENDBRANCH   4   5
ENDBRANCH   3   4
ENDBRANCH   2   3
TORSDOF 8
ENDMDL
MODEL      114
REMARK 921   NORMALIZED FREE ENERGY PREDICTED BY IDOCK:   -4.67 KCAL/MOL
REMARK 922        TOTAL FREE ENERGY PREDICTED BY IDOCK:   -8.96 KCAL/MOL
REMARK 923 INTER-LIGAND FREE ENERGY PREDICTED BY IDOCK:   -7.29 KCAL/MOL
REMARK 924 INTRA-LIGAND FREE ENERGY PREDICTED BY IDOCK:   -1.68 KCAL/MOL
REMARK 927      BINDING AFFINITY PREDICTED BY RF-SCORE:    0.00 PKD
ROOT
HETATM    1  C   UNL     1      -9.559  11.277  62.857  1.00  0.00    -0.377 C  
HETATM    2  C   UNL     1     -10.924  11.586  63.460  1.00  0.00    -0.453 C  
ENDROOT
BRANCH   2   3
HETATM    3  C   UNL     1     -10.855  11.514  64.986  1.00  0.00    -0.336 C  
BRANCH   3   4
HETATM    4  C   UNL     1     -10.046  10.359  65.565  1.00  0.00    -0.352 C  
BRANCH   4   5
HETATM    5  C   UNL     1      -8.788  10.773  66.260  1.00  0.00    -0.173 A  
HETATM    6  N   UNL     1      -7.668  10.993  65.600  1.00  0.00     0.009 NA 
HETATM    7  C   UNL     1      -6.759  11.407  66.518  1.00  0.00    -0.070 A  
HETATM    8  C   UNL     1      -7.307  11.436  67.779  1.00  0.00    -0.098 A  
HETATM    9  N   UNL     1      -8.608  10.966  67.629  1.00  0.00    -0.123 NA 
BRANCH   8  10
HETATM   10  C   UNL     1      -6.788  11.888  69.006  1.00  0.00    -0.105 C  
HETATM   11  O   UNL     1      -5.779  14.671  70.983  1.00  0.00    -0.154 OA 
HETATM   12  C   UNL     1      -6.364  13.151  69.215  1.00  0.00    -0.106 C  
HETATM   13  C   UNL     1      -5.850  13.386  70.597  1.00  0.00    -0.159 C  
HETATM   14  O   UNL     1      -5.493  12.479  71.335  1.00  0.00    -0.350 OA 
BRANCH  12  15
HETATM   15  C   UNL     1      -6.334  14.249  68.184  1.00  0.00    -0.133 C  
BRANCH  15  16
HETATM   16  C   UNL     1      -7.500  15.203  68.170  1.00  0.00    -0.114 A  
HETATM   17  C   UNL     1      -9.132  16.760  68.764  1.00  0.00    -0.259 A  
HETATM   18  C   UNL     1      -7.885  16.156  69.094  1.00  0.00    -0.232 A  
HETATM   19  C   UNL     1      -9.626  16.301  67.565  1.00  0.00    -0.230 A  
HETATM   20  S   UNL     1      -8.590  15.152  66.841  1.00  0.00    -0.259 SA 
ENDBRANCH  15  16
ENDBRANCH  12  15
ENDBRANCH   8  10
BRANCH   9  21
HETATM   21  C   UNL     1      -9.510  10.518  68.702  1.00  0.00    -0.172 C  
BRANCH  21  22
HETATM   22  C   UNL     1     -10.541  11.540  69.139  1.00  0.00    -0.174 A  
HETATM   23  C   UNL     1     -11.418  11.290  70.203  1.00  0.00    -0.336 A  
HETATM   24  C   UNL     1     -12.252  12.292  70.706  1.00  0.00    -0.354 A  
HETATM   25  C   UNL     1     -10.672  12.764  68.467  1.00  0.00    -0.275 A  
HETATM   26  O   UNL     1     -12.365  15.838  70.731  1.00  0.00    -0.410 OA 
HETATM   27  C   UNL     1     -11.499  13.776  68.964  1.00  0.00    -0.349 A  
HETATM   28  C   UNL     1     -12.236  13.560  70.130  1.00  0.00    -0.400 A  
HETATM   29  O   UNL     1     -14.058  14.474  71.364  1.00  0.00    -0.396 OA 
HETATM   30  C   UNL     1     -13.001  14.647  70.784  1.00  0.00    -0.347 C  
ENDBRANCH  21  22
ENDBRANCH   9  21
ENDBRANCH   4   5
ENDBRANCH   3   4
ENDBRANCH   2   3
TORSDOF 8
ENDMDL
MODEL      115
REMARK 921   NORMALIZED FREE ENERGY PREDICTED BY IDOCK:   -4.67 KCAL/MOL
REMARK 922        TOTAL FREE ENERGY PREDICTED BY IDOCK:   -8.96 KCAL/MOL
REMARK 923 INTER-LIGAND FREE ENERGY PREDICTED BY IDOCK:   -7.25 KCAL/MOL
REMARK 924 INTRA-LIGAND FREE ENERGY PREDICTED BY IDOCK:   -1.72 KCAL/MOL
REMARK 927      BINDING AFFINITY PREDICTED BY RF-SCORE:    0.00 PKD
ROOT
HETATM    1  C   UNL     1      -7.969   9.254  64.253  1.00  0.00    -0.135 C  
HETATM    2  C   UNL     1      -7.027  10.313  64.813  1.00  0.00    -0.093 C  
ENDROOT
BRANCH   2   3
HETATM    3  C   UNL     1      -6.458   9.857  66.156  1.00  0.00    -0.079 C  
BRANCH   3   4
HETATM    4  C   UNL     1      -7.124  10.442  67.398  1.00  0.00    -0.087 C  
BRANCH   4   5
HETATM    5  C   UNL     1      -8.308   9.668  67.886  1.00  0.00    -0.117 A  
HETATM    6  N   UNL     1      -8.421   8.370  67.687  1.00  0.00    -0.129 NA 
HETATM    7  C   UNL     1      -9.567   7.988  68.307  1.00  0.00    -0.146 A  
HETATM    8  C   UNL     1     -10.194   9.062  68.894  1.00  0.00    -0.208 A  
HETATM    9  N   UNL     1      -9.413  10.168  68.572  1.00  0.00    -0.153 NA 
BRANCH   8  10
HETATM   10  C   UNL     1     -11.331   9.136  69.718  1.00  0.00     0.011 C  
HETATM   11  O   UNL     1     -12.640   9.012  73.027  1.00  0.00    -0.157 OA 
HETATM   12  C   UNL     1     -11.327   8.799  71.024  1.00  0.00    -0.332 C  
HETATM   13  C   UNL     1     -12.657   8.956  71.684  1.00  0.00    -0.346 C  
HETATM   14  O   UNL     1     -13.706   9.011  71.058  1.00  0.00    -0.167 OA 
BRANCH  12  15
HETATM   15  C   UNL     1     -10.147   8.258  71.788  1.00  0.00    -0.290 C  
BRANCH  15  16
HETATM   16  C   UNL     1     -10.208   6.812  72.204  1.00  0.00    -0.193 A  
HETATM   17  C   UNL     1     -10.504   4.498  72.240  1.00  0.00    -0.215 A  
HETATM   18  C   UNL     1     -10.360   5.669  71.441  1.00  0.00    -0.287 A  
HETATM   19  C   UNL     1     -10.388   4.773  73.583  1.00  0.00    -0.206 A  
HETATM   20  S   UNL     1     -10.103   6.431  73.877  1.00  0.00    -0.321 SA 
ENDBRANCH  15  16
ENDBRANCH  12  15
ENDBRANCH   8  10
BRANCH   9  21
HETATM   21  C   UNL     1      -9.799  11.583  68.697  1.00  0.00    -0.177 C  
BRANCH  21  22
HETATM   22  C   UNL     1     -10.290  12.227  67.416  1.00  0.00    -0.219 A  
HETATM   23  C   UNL     1     -11.540  11.908  66.866  1.00  0.00    -0.358 A  
HETATM   24  C   UNL     1     -12.057  12.618  65.780  1.00  0.00    -0.484 A  
HETATM   25  C   UNL     1      -9.493  13.145  66.718  1.00  0.00    -0.252 A  
HETATM   26  O   UNL     1     -11.595  15.797  64.271  1.00  0.00    -0.387 OA 
HETATM   27  C   UNL     1     -10.001  13.867  65.634  1.00  0.00    -0.298 A  
HETATM   28  C   UNL     1     -11.314  13.651  65.211  1.00  0.00    -0.306 A  
HETATM   29  O   UNL     1     -12.758  14.078  63.364  1.00  0.00    -0.796 OA 
HETATM   30  C   UNL     1     -11.950  14.497  64.174  1.00  0.00    -0.321 C  
ENDBRANCH  21  22
ENDBRANCH   9  21
ENDBRANCH   4   5
ENDBRANCH   3   4
ENDBRANCH   2   3
TORSDOF 8
ENDMDL
MODEL      116
REMARK 921   NORMALIZED FREE ENERGY PREDICTED BY IDOCK:   -4.65 KCAL/MOL
REMARK 922        TOTAL FREE ENERGY PREDICTED BY IDOCK:   -8.94 KCAL/MOL
REMARK 923 INTER-LIGAND FREE ENERGY PREDICTED BY IDOCK:   -7.65 KCAL/MOL
REMARK 924 INTRA-LIGAND FREE ENERGY PREDICTED BY IDOCK:   -1.29 KCAL/MOL
REMARK 927      BINDING AFFINITY PREDICTED BY RF-SCORE:    0.00 PKD
ROOT
HETATM    1  C   UNL     1      -8.572   3.022  65.080  1.00  0.00    -0.101 C  
HETATM    2  C   UNL     1      -7.921   4.220  64.400  1.00  0.00    -0.087 C  
ENDROOT
BRANCH   2   3
HETATM    3  C   UNL     1      -7.580   5.294  65.435  1.00  0.00    -0.082 C  
BRANCH   3   4
HETATM    4  C   UNL     1      -8.405   6.575  65.365  1.00  0.00    -0.140 C  
BRANCH   4   5
HETATM    5  C   UNL     1      -9.384   6.742  66.484  1.00  0.00    -0.161 A  
HETATM    6  N   UNL     1     -10.338   5.861  66.710  1.00  0.00    -0.223 NA 
HETATM    7  C   UNL     1     -10.992   6.285  67.822  1.00  0.00    -0.332 A  
HETATM    8  C   UNL     1     -10.453   7.458  68.296  1.00  0.00    -0.189 A  
HETATM    9  N   UNL     1      -9.447   7.794  67.396  1.00  0.00    -0.139 NA 
BRANCH   8  10
HETATM   10  C   UNL     1     -10.727   8.202  69.457  1.00  0.00    -0.180 C  
HETATM   11  O   UNL     1     -11.103   8.190  72.998  1.00  0.00    -0.331 OA 
HETATM   12  C   UNL     1     -10.967   7.643  70.661  1.00  0.00    -0.259 C  
HETATM   13  C   UNL     1     -11.239   8.640  71.738  1.00  0.00    -0.326 C  
HETATM   14  O   UNL     1     -11.583   9.790  71.506  1.00  0.00    -0.380 OA 
BRANCH  12  15
HETATM   15  C   UNL     1     -11.024   6.165  70.946  1.00  0.00    -0.359 C  
BRANCH  15  16
HETATM   16  C   UNL     1      -9.722   5.483  71.278  1.00  0.00    -0.166 A  
HETATM   17  C   UNL     1      -7.480   4.847  71.357  1.00  0.00    -0.078 A  
HETATM   18  C   UNL     1      -8.424   5.841  70.968  1.00  0.00    -0.123 A  
HETATM   19  C   UNL     1      -8.078   3.796  72.012  1.00  0.00    -0.072 A  
HETATM   20  S   UNL     1      -9.766   4.010  72.162  1.00  0.00    -0.165 SA 
ENDBRANCH  15  16
ENDBRANCH  12  15
ENDBRANCH   8  10
BRANCH   9  21
HETATM   21  C   UNL     1      -8.773   9.097  67.275  1.00  0.00    -0.117 C  
BRANCH  21  22
HETATM   22  C   UNL     1      -9.537  10.141  66.484  1.00  0.00    -0.236 A  
HETATM   23  C   UNL     1      -9.475  10.191  65.084  1.00  0.00    -0.319 A  
HETATM   24  C   UNL     1     -10.303  11.046  64.352  1.00  0.00    -0.424 A  
HETATM   25  C   UNL     1     -10.308  11.115  67.132  1.00  0.00    -0.249 A  
HETATM   26  O   UNL     1     -13.381  12.747  64.822  1.00  0.00    -0.736 OA 
HETATM   27  C   UNL     1     -11.145  11.972  66.411  1.00  0.00    -0.365 A  
HETATM   28  C   UNL     1     -11.194  11.885  65.018  1.00  0.00    -0.350 A  
HETATM   29  O   UNL     1     -11.941  13.104  63.112  1.00  0.00    -0.517 OA 
HETATM   30  C   UNL     1     -12.175  12.657  64.220  1.00  0.00    -0.445 C  
ENDBRANCH  21  22
ENDBRANCH   9  21
ENDBRANCH   4   5
ENDBRANCH   3   4
ENDBRANCH   2   3
TORSDOF 8
ENDMDL
MODEL      117
REMARK 921   NORMALIZED FREE ENERGY PREDICTED BY IDOCK:   -4.64 KCAL/MOL
REMARK 922        TOTAL FREE ENERGY PREDICTED BY IDOCK:   -8.93 KCAL/MOL
REMARK 923 INTER-LIGAND FREE ENERGY PREDICTED BY IDOCK:   -6.62 KCAL/MOL
REMARK 924 INTRA-LIGAND FREE ENERGY PREDICTED BY IDOCK:   -2.31 KCAL/MOL
REMARK 927      BINDING AFFINITY PREDICTED BY RF-SCORE:    0.00 PKD
ROOT
HETATM    1  C   UNL     1      -8.630   6.463  72.367  1.00  0.00    -0.120 C  
HETATM    2  C   UNL     1      -8.003   7.428  71.370  1.00  0.00    -0.096 C  
ENDROOT
BRANCH   2   3
HETATM    3  C   UNL     1      -8.877   8.674  71.218  1.00  0.00    -0.263 C  
BRANCH   3   4
HETATM    4  C   UNL     1      -8.387   9.716  70.218  1.00  0.00    -0.216 C  
BRANCH   4   5
HETATM    5  C   UNL     1      -9.120   9.714  68.913  1.00  0.00    -0.144 A  
HETATM    6  N   UNL     1     -10.193   8.972  68.719  1.00  0.00    -0.203 NA 
HETATM    7  C   UNL     1     -10.633   9.258  67.468  1.00  0.00    -0.262 A  
HETATM    8  C   UNL     1      -9.819  10.184  66.856  1.00  0.00    -0.195 A  
HETATM    9  N   UNL     1      -8.799  10.438  67.767  1.00  0.00    -0.128 NA 
BRANCH   8  10
HETATM   10  C   UNL     1      -9.933  10.848  65.622  1.00  0.00    -0.305 C  
HETATM   11  O   UNL     1     -11.500  13.444  63.757  1.00  0.00    -0.358 OA 
HETATM   12  C   UNL     1     -10.908  11.737  65.343  1.00  0.00    -0.347 C  
HETATM   13  C   UNL     1     -10.821  12.302  63.964  1.00  0.00    -0.389 C  
HETATM   14  O   UNL     1     -10.194  11.764  63.064  1.00  0.00    -0.366 OA 
BRANCH  12  15
HETATM   15  C   UNL     1     -12.034  12.124  66.265  1.00  0.00    -0.213 C  
BRANCH  15  16
HETATM   16  C   UNL     1     -11.771  13.256  67.224  1.00  0.00    -0.377 A  
HETATM   17  C   UNL     1     -11.334  15.347  68.161  1.00  0.00    -0.353 A  
HETATM   18  C   UNL     1     -11.762  14.621  67.012  1.00  0.00    -0.379 A  
HETATM   19  C   UNL     1     -11.097  14.519  69.234  1.00  0.00    -0.270 A  
HETATM   20  S   UNL     1     -11.394  12.880  68.858  1.00  0.00    -0.304 SA 
ENDBRANCH  15  16
ENDBRANCH  12  15
ENDBRANCH   8  10
BRANCH   9  21
HETATM   21  C   UNL     1      -7.521  11.115  67.490  1.00  0.00    -0.104 C  
BRANCH  21  22
HETATM   22  C   UNL     1      -7.490  12.590  67.838  1.00  0.00    -0.120 A  
HETATM   23  C   UNL     1      -6.843  13.059  68.990  1.00  0.00    -0.081 A  
HETATM   24  C   UNL     1      -6.677  14.426  69.222  1.00  0.00    -0.126 A  
HETATM   25  C   UNL     1      -8.137  13.535  67.030  1.00  0.00    -0.015 A  
HETATM   26  O   UNL     1      -6.630  17.419  67.316  1.00  0.00    -0.141 OA 
HETATM   27  C   UNL     1      -7.973  14.906  67.248  1.00  0.00    -0.237 A  
HETATM   28  C   UNL     1      -7.180  15.350  68.308  1.00  0.00    -0.118 A  
HETATM   29  O   UNL     1      -6.714  17.312  69.577  1.00  0.00    -0.227 OA 
HETATM   30  C   UNL     1      -6.846  16.782  68.489  1.00  0.00    -0.164 C  
ENDBRANCH  21  22
ENDBRANCH   9  21
ENDBRANCH   4   5
ENDBRANCH   3   4
ENDBRANCH   2   3
TORSDOF 8
ENDMDL
MODEL      118
REMARK 921   NORMALIZED FREE ENERGY PREDICTED BY IDOCK:   -4.64 KCAL/MOL
REMARK 922        TOTAL FREE ENERGY PREDICTED BY IDOCK:   -8.93 KCAL/MOL
REMARK 923 INTER-LIGAND FREE ENERGY PREDICTED BY IDOCK:   -5.99 KCAL/MOL
REMARK 924 INTRA-LIGAND FREE ENERGY PREDICTED BY IDOCK:   -2.94 KCAL/MOL
REMARK 927      BINDING AFFINITY PREDICTED BY RF-SCORE:    0.00 PKD
ROOT
HETATM    1  C   UNL     1     -11.841   7.707  72.626  1.00  0.00    -0.269 C  
HETATM    2  C   UNL     1     -10.366   8.085  72.659  1.00  0.00    -0.398 C  
ENDROOT
BRANCH   2   3
HETATM    3  C   UNL     1     -10.058   9.108  71.565  1.00  0.00    -0.381 C  
BRANCH   3   4
HETATM    4  C   UNL     1      -8.960   8.722  70.578  1.00  0.00    -0.203 C  
BRANCH   4   5
HETATM    5  C   UNL     1      -9.413   8.628  69.155  1.00  0.00    -0.157 A  
HETATM    6  N   UNL     1     -10.584   8.117  68.830  1.00  0.00    -0.184 NA 
HETATM    7  C   UNL     1     -10.695   8.245  67.483  1.00  0.00    -0.147 A  
HETATM    8  C   UNL     1      -9.573   8.832  66.948  1.00  0.00    -0.190 A  
HETATM    9  N   UNL     1      -8.709   9.028  68.021  1.00  0.00    -0.129 NA 
BRANCH   8  10
HETATM   10  C   UNL     1      -9.280   9.254  65.638  1.00  0.00    -0.291 C  
HETATM   11  O   UNL     1      -9.696  11.755  63.139  1.00  0.00    -0.394 OA 
HETATM   12  C   UNL     1      -9.897  10.291  65.035  1.00  0.00    -0.397 C  
HETATM   13  C   UNL     1      -9.419  10.539  63.643  1.00  0.00    -0.304 C  
HETATM   14  O   UNL     1      -8.831   9.696  62.982  1.00  0.00    -0.219 OA 
BRANCH  12  15
HETATM   15  C   UNL     1     -11.002  11.122  65.631  1.00  0.00    -0.149 C  
BRANCH  15  16
HETATM   16  C   UNL     1     -10.597  12.205  66.597  1.00  0.00    -0.235 A  
HETATM   17  C   UNL     1     -10.172  13.447  68.524  1.00  0.00    -0.224 A  
HETATM   18  C   UNL     1     -10.436  12.162  67.969  1.00  0.00    -0.227 A  
HETATM   19  C   UNL     1     -10.071  14.417  67.554  1.00  0.00    -0.232 A  
HETATM   20  S   UNL     1     -10.288  13.781  65.985  1.00  0.00    -0.316 SA 
ENDBRANCH  15  16
ENDBRANCH  12  15
ENDBRANCH   8  10
BRANCH   9  21
HETATM   21  C   UNL     1      -7.272   9.340  67.948  1.00  0.00    -0.079 C  
BRANCH  21  22
HETATM   22  C   UNL     1      -6.922  10.797  68.175  1.00  0.00    -0.072 A  
HETATM   23  C   UNL     1      -6.797  11.697  67.107  1.00  0.00    -0.143 A  
HETATM   24  C   UNL     1      -6.635  13.067  67.328  1.00  0.00    -0.004 A  
HETATM   25  C   UNL     1      -6.680  11.289  69.466  1.00  0.00    -0.128 A  
HETATM   26  O   UNL     1      -7.286  15.395  69.926  1.00  0.00    -0.160 OA 
HETATM   27  C   UNL     1      -6.523  12.658  69.700  1.00  0.00    -0.050 A  
HETATM   28  C   UNL     1      -6.574  13.555  68.632  1.00  0.00    -0.098 A  
HETATM   29  O   UNL     1      -6.039  15.811  68.082  1.00  0.00    -0.108 OA 
HETATM   30  C   UNL     1      -6.571  15.022  68.842  1.00  0.00    -0.096 C  
ENDBRANCH  21  22
ENDBRANCH   9  21
ENDBRANCH   4   5
ENDBRANCH   3   4
ENDBRANCH   2   3
TORSDOF 8
ENDMDL
MODEL      119
REMARK 921   NORMALIZED FREE ENERGY PREDICTED BY IDOCK:   -4.61 KCAL/MOL
REMARK 922        TOTAL FREE ENERGY PREDICTED BY IDOCK:   -8.88 KCAL/MOL
REMARK 923 INTER-LIGAND FREE ENERGY PREDICTED BY IDOCK:   -7.41 KCAL/MOL
REMARK 924 INTRA-LIGAND FREE ENERGY PREDICTED BY IDOCK:   -1.48 KCAL/MOL
REMARK 927      BINDING AFFINITY PREDICTED BY RF-SCORE:    0.00 PKD
ROOT
HETATM    1  C   UNL     1      -7.158  18.741  68.806  1.00  0.00    -0.335 C  
HETATM    2  C   UNL     1      -6.530  17.465  69.353  1.00  0.00    -0.233 C  
ENDROOT
BRANCH   2   3
HETATM    3  C   UNL     1      -6.762  16.304  68.386  1.00  0.00    -0.136 C  
BRANCH   3   4
HETATM    4  C   UNL     1      -7.604  15.149  68.918  1.00  0.00    -0.148 C  
BRANCH   4   5
HETATM    5  C   UNL     1      -7.439  13.866  68.167  1.00  0.00    -0.126 A  
HETATM    6  N   UNL     1      -6.250  13.351  67.923  1.00  0.00    -0.133 NA 
HETATM    7  C   UNL     1      -6.469  12.171  67.289  1.00  0.00    -0.152 A  
HETATM    8  C   UNL     1      -7.814  11.943  67.117  1.00  0.00    -0.168 A  
HETATM    9  N   UNL     1      -8.449  13.070  67.630  1.00  0.00    -0.173 NA 
BRANCH   8  10
HETATM   10  C   UNL     1      -8.510  10.829  66.614  1.00  0.00    -0.142 C  
HETATM   11  O   UNL     1     -10.628   8.057  67.325  1.00  0.00    -0.303 OA 
HETATM   12  C   UNL     1      -9.067   9.884  67.399  1.00  0.00    -0.147 C  
HETATM   13  C   UNL     1      -9.745   8.798  66.632  1.00  0.00    -0.242 C  
HETATM   14  O   UNL     1      -9.509   8.569  65.455  1.00  0.00    -0.014 OA 
BRANCH  12  15
HETATM   15  C   UNL     1      -9.001   9.841  68.903  1.00  0.00    -0.144 C  
BRANCH  15  16
HETATM   16  C   UNL     1     -10.290  10.068  69.649  1.00  0.00    -0.247 A  
HETATM   17  C   UNL     1     -12.358  10.879  70.359  1.00  0.00    -0.436 A  
HETATM   18  C   UNL     1     -11.398  10.820  69.308  1.00  0.00    -0.352 A  
HETATM   19  C   UNL     1     -11.987  10.116  71.441  1.00  0.00    -0.358 A  
HETATM   20  S   UNL     1     -10.492   9.330  71.188  1.00  0.00    -0.333 SA 
ENDBRANCH  15  16
ENDBRANCH  12  15
ENDBRANCH   8  10
BRANCH   9  21
HETATM   21  C   UNL     1      -9.852  13.462  67.419  1.00  0.00    -0.227 C  
BRANCH  21  22
HETATM   22  C   UNL     1     -10.067  14.930  67.109  1.00  0.00    -0.240 A  
HETATM   23  C   UNL     1     -10.649  15.799  68.042  1.00  0.00    -0.279 A  
HETATM   24  C   UNL     1     -10.697  17.177  67.817  1.00  0.00    -0.329 A  
HETATM   25  C   UNL     1      -9.716  15.462  65.860  1.00  0.00    -0.392 A  
HETATM   26  O   UNL     1      -8.969  19.571  65.848  1.00  0.00    -0.406 OA 
HETATM   27  C   UNL     1      -9.754  16.840  65.626  1.00  0.00    -0.045 A  
HETATM   28  C   UNL     1     -10.179  17.705  66.636  1.00  0.00    -0.341 A  
HETATM   29  O   UNL     1     -10.900  19.951  66.968  1.00  0.00    -0.424 OA 
HETATM   30  C   UNL     1     -10.088  19.176  66.494  1.00  0.00    -0.406 C  
ENDBRANCH  21  22
ENDBRANCH   9  21
ENDBRANCH   4   5
ENDBRANCH   3   4
ENDBRANCH   2   3
TORSDOF 8
ENDMDL
MODEL      120
REMARK 921   NORMALIZED FREE ENERGY PREDICTED BY IDOCK:   -4.61 KCAL/MOL
REMARK 922        TOTAL FREE ENERGY PREDICTED BY IDOCK:   -8.88 KCAL/MOL
REMARK 923 INTER-LIGAND FREE ENERGY PREDICTED BY IDOCK:   -7.10 KCAL/MOL
REMARK 924 INTRA-LIGAND FREE ENERGY PREDICTED BY IDOCK:   -1.79 KCAL/MOL
REMARK 927      BINDING AFFINITY PREDICTED BY RF-SCORE:    0.00 PKD
ROOT
HETATM    1  C   UNL     1      -7.397   4.978  68.037  1.00  0.00    -0.075 C  
HETATM    2  C   UNL     1      -6.853   5.856  69.156  1.00  0.00    -0.062 C  
ENDROOT
BRANCH   2   3
HETATM    3  C   UNL     1      -6.429   7.217  68.602  1.00  0.00    -0.036 C  
BRANCH   3   4
HETATM    4  C   UNL     1      -7.182   8.425  69.149  1.00  0.00    -0.065 C  
BRANCH   4   5
HETATM    5  C   UNL     1      -7.475   9.483  68.132  1.00  0.00    -0.079 A  
HETATM    6  N   UNL     1      -6.871  10.654  68.152  1.00  0.00    -0.067 NA 
HETATM    7  C   UNL     1      -7.321  11.333  67.066  1.00  0.00    -0.136 A  
HETATM    8  C   UNL     1      -8.233  10.587  66.358  1.00  0.00    -0.140 A  
HETATM    9  N   UNL     1      -8.384   9.406  67.079  1.00  0.00    -0.126 NA 
BRANCH   8  10
HETATM   10  C   UNL     1      -8.877  10.828  65.132  1.00  0.00    -0.199 C  
HETATM   11  O   UNL     1     -11.510  12.503  63.416  1.00  0.00    -0.472 OA 
HETATM   12  C   UNL     1     -10.071  11.448  65.028  1.00  0.00    -0.323 C  
HETATM   13  C   UNL     1     -10.552  11.581  63.621  1.00  0.00    -0.429 C  
HETATM   14  O   UNL     1     -10.128  10.891  62.706  1.00  0.00    -0.224 OA 
BRANCH  12  15
HETATM   15  C   UNL     1     -10.911  11.933  66.179  1.00  0.00    -0.352 C  
BRANCH  15  16
HETATM   16  C   UNL     1     -10.667  13.341  66.657  1.00  0.00    -0.280 A  
HETATM   17  C   UNL     1      -9.673  15.353  67.294  1.00  0.00    -0.212 A  
HETATM   18  C   UNL     1      -9.522  14.114  66.607  1.00  0.00    -0.303 A  
HETATM   19  C   UNL     1     -10.947  15.517  67.786  1.00  0.00    -0.317 A  
HETATM   20  S   UNL     1     -11.954  14.188  67.418  1.00  0.00    -0.361 SA 
ENDBRANCH  15  16
ENDBRANCH  12  15
ENDBRANCH   8  10
BRANCH   9  21
HETATM   21  C   UNL     1      -9.456   8.410  66.918  1.00  0.00    -0.185 C  
BRANCH  21  22
HETATM   22  C   UNL     1     -10.220   8.083  68.186  1.00  0.00    -0.251 A  
HETATM   23  C   UNL     1     -10.579   6.767  68.508  1.00  0.00    -0.265 A  
HETATM   24  C   UNL     1     -11.137   6.450  69.749  1.00  0.00    -0.459 A  
HETATM   25  C   UNL     1     -10.624   9.097  69.066  1.00  0.00    -0.219 A  
HETATM   26  O   UNL     1     -11.250   7.858  73.005  1.00  0.00    -0.411 OA 
HETATM   27  C   UNL     1     -11.177   8.793  70.314  1.00  0.00    -0.212 A  
HETATM   28  C   UNL     1     -11.367   7.460  70.683  1.00  0.00    -0.304 A  
HETATM   29  O   UNL     1     -12.523   6.129  72.286  1.00  0.00    -0.236 OA 
HETATM   30  C   UNL     1     -11.801   7.080  72.047  1.00  0.00    -0.298 C  
ENDBRANCH  21  22
ENDBRANCH   9  21
ENDBRANCH   4   5
ENDBRANCH   3   4
ENDBRANCH   2   3
TORSDOF 8
ENDMDL
MODEL      121
REMARK 921   NORMALIZED FREE ENERGY PREDICTED BY IDOCK:   -4.59 KCAL/MOL
REMARK 922        TOTAL FREE ENERGY PREDICTED BY IDOCK:   -8.86 KCAL/MOL
REMARK 923 INTER-LIGAND FREE ENERGY PREDICTED BY IDOCK:   -6.69 KCAL/MOL
REMARK 924 INTRA-LIGAND FREE ENERGY PREDICTED BY IDOCK:   -2.17 KCAL/MOL
REMARK 927      BINDING AFFINITY PREDICTED BY RF-SCORE:    0.00 PKD
ROOT
HETATM    1  C   UNL     1      -9.248   9.953  62.932  1.00  0.00    -0.287 C  
HETATM    2  C   UNL     1      -9.442  11.458  62.801  1.00  0.00    -0.314 C  
ENDROOT
BRANCH   2   3
HETATM    3  C   UNL     1     -10.072  12.023  64.075  1.00  0.00    -0.361 C  
BRANCH   3   4
HETATM    4  C   UNL     1     -10.897  11.044  64.904  1.00  0.00    -0.211 C  
BRANCH   4   5
HETATM    5  C   UNL     1     -10.645  11.115  66.377  1.00  0.00    -0.261 A  
HETATM    6  N   UNL     1     -11.415  11.821  67.181  1.00  0.00    -0.456 NA 
HETATM    7  C   UNL     1     -10.945  11.614  68.438  1.00  0.00    -0.220 A  
HETATM    8  C   UNL     1      -9.855  10.776  68.427  1.00  0.00    -0.169 A  
HETATM    9  N   UNL     1      -9.616  10.497  67.085  1.00  0.00    -0.166 NA 
BRANCH   8  10
HETATM   10  C   UNL     1      -9.112  10.205  69.476  1.00  0.00    -0.213 C  
HETATM   11  O   UNL     1      -8.654   7.419  71.644  1.00  0.00    -0.115 OA 
HETATM   12  C   UNL     1      -9.495   9.096  70.140  1.00  0.00    -0.235 C  
HETATM   13  C   UNL     1      -8.544   8.689  71.217  1.00  0.00    -0.187 C  
HETATM   14  O   UNL     1      -7.725   9.455  71.704  1.00  0.00    -0.294 OA 
BRANCH  12  15
HETATM   15  C   UNL     1     -10.769   8.328  69.906  1.00  0.00    -0.234 C  
BRANCH  15  16
HETATM   16  C   UNL     1     -11.955   8.699  70.758  1.00  0.00    -0.121 A  
HETATM   17  C   UNL     1     -13.528   9.861  72.030  1.00  0.00    -0.478 A  
HETATM   18  C   UNL     1     -12.466   9.942  71.083  1.00  0.00    -0.464 A  
HETATM   19  C   UNL     1     -13.840   8.559  72.345  1.00  0.00    -0.294 A  
HETATM   20  S   UNL     1     -12.862   7.442  71.501  1.00  0.00    -0.367 SA 
ENDBRANCH  15  16
ENDBRANCH  12  15
ENDBRANCH   8  10
BRANCH   9  21
HETATM   21  C   UNL     1      -8.396   9.901  66.514  1.00  0.00    -0.125 C  
BRANCH  21  22
HETATM   22  C   UNL     1      -8.509   8.432  66.157  1.00  0.00    -0.139 A  
HETATM   23  C   UNL     1      -9.551   7.635  66.650  1.00  0.00    -0.271 A  
HETATM   24  C   UNL     1      -9.744   6.329  66.192  1.00  0.00    -0.021 A  
HETATM   25  C   UNL     1      -7.550   7.812  65.343  1.00  0.00    -0.089 A  
HETATM   26  O   UNL     1      -8.887   4.401  63.338  1.00  0.00    -0.122 OA 
HETATM   27  C   UNL     1      -7.735   6.509  64.874  1.00  0.00    -0.105 A  
HETATM   28  C   UNL     1      -8.874   5.792  65.244  1.00  0.00    -0.057 A  
HETATM   29  O   UNL     1      -9.740   3.573  65.265  1.00  0.00    -0.166 OA 
HETATM   30  C   UNL     1      -9.195   4.473  64.652  1.00  0.00    -0.145 C  
ENDBRANCH  21  22
ENDBRANCH   9  21
ENDBRANCH   4   5
ENDBRANCH   3   4
ENDBRANCH   2   3
TORSDOF 8
ENDMDL
MODEL      122
REMARK 921   NORMALIZED FREE ENERGY PREDICTED BY IDOCK:   -4.59 KCAL/MOL
REMARK 922        TOTAL FREE ENERGY PREDICTED BY IDOCK:   -8.85 KCAL/MOL
REMARK 923 INTER-LIGAND FREE ENERGY PREDICTED BY IDOCK:   -7.91 KCAL/MOL
REMARK 924 INTRA-LIGAND FREE ENERGY PREDICTED BY IDOCK:   -0.94 KCAL/MOL
REMARK 927      BINDING AFFINITY PREDICTED BY RF-SCORE:    0.00 PKD
ROOT
HETATM    1  C   UNL     1     -10.798   6.379  71.309  1.00  0.00    -0.306 C  
HETATM    2  C   UNL     1     -10.953   6.948  72.714  1.00  0.00    -0.315 C  
ENDROOT
BRANCH   2   3
HETATM    3  C   UNL     1     -11.669   8.297  72.662  1.00  0.00    -0.406 C  
BRANCH   3   4
HETATM    4  C   UNL     1     -12.362   8.636  71.346  1.00  0.00    -0.344 C  
BRANCH   4   5
HETATM    5  C   UNL     1     -12.346  10.091  70.995  1.00  0.00    -0.360 A  
HETATM    6  N   UNL     1     -13.005  10.985  71.705  1.00  0.00    -0.466 NA 
HETATM    7  C   UNL     1     -12.723  12.193  71.154  1.00  0.00    -0.253 A  
HETATM    8  C   UNL     1     -11.884  12.059  70.072  1.00  0.00    -0.314 A  
HETATM    9  N   UNL     1     -11.684  10.690  69.925  1.00  0.00    -0.290 NA 
BRANCH   8  10
HETATM   10  C   UNL     1     -11.251  13.021  69.265  1.00  0.00    -0.259 C  
HETATM   11  O   UNL     1     -11.082  16.429  68.248  1.00  0.00    -0.347 OA 
HETATM   12  C   UNL     1     -11.731  14.268  69.077  1.00  0.00    -0.352 C  
HETATM   13  C   UNL     1     -10.885  15.101  68.172  1.00  0.00    -0.266 C  
HETATM   14  O   UNL     1     -10.075  14.622  67.392  1.00  0.00    -0.231 OA 
BRANCH  12  15
HETATM   15  C   UNL     1     -13.014  14.809  69.649  1.00  0.00     0.352 C  
BRANCH  15  16
HETATM   16  C   UNL     1     -12.990  15.239  71.093  1.00  0.00    -0.454 A  
HETATM   17  C   UNL     1     -13.591  15.937  73.235  1.00  0.00    -0.512 A  
HETATM   18  C   UNL     1     -14.023  15.373  72.001  1.00  0.00    -0.640 A  
HETATM   19  C   UNL     1     -12.232  16.153  73.256  1.00  0.00    -0.538 A  
HETATM   20  S   UNL     1     -11.484  15.672  71.798  1.00  0.00    -0.390 SA 
ENDBRANCH  15  16
ENDBRANCH  12  15
ENDBRANCH   8  10
BRANCH   9  21
HETATM   21  C   UNL     1     -11.119  10.005  68.751  1.00  0.00    -0.173 C  
BRANCH  21  22
HETATM   22  C   UNL     1      -9.871   9.191  69.025  1.00  0.00    -0.176 A  
HETATM   23  C   UNL     1      -9.053   9.451  70.133  1.00  0.00    -0.262 A  
HETATM   24  C   UNL     1      -7.998   8.599  70.472  1.00  0.00    -0.107 A  
HETATM   25  C   UNL     1      -9.474   8.165  68.155  1.00  0.00    -0.150 A  
HETATM   26  O   UNL     1      -7.065   5.226  69.886  1.00  0.00    -0.058 OA 
HETATM   27  C   UNL     1      -8.424   7.303  68.486  1.00  0.00    -0.125 A  
HETATM   28  C   UNL     1      -7.732   7.480  69.685  1.00  0.00    -0.100 A  
HETATM   29  O   UNL     1      -5.722   6.816  70.778  1.00  0.00    -0.026 OA 
HETATM   30  C   UNL     1      -6.721   6.505  70.156  1.00  0.00    -0.049 C  
ENDBRANCH  21  22
ENDBRANCH   9  21
ENDBRANCH   4   5
ENDBRANCH   3   4
ENDBRANCH   2   3
TORSDOF 8
ENDMDL
MODEL      123
REMARK 921   NORMALIZED FREE ENERGY PREDICTED BY IDOCK:   -4.56 KCAL/MOL
REMARK 922        TOTAL FREE ENERGY PREDICTED BY IDOCK:   -8.81 KCAL/MOL
REMARK 923 INTER-LIGAND FREE ENERGY PREDICTED BY IDOCK:   -7.62 KCAL/MOL
REMARK 924 INTRA-LIGAND FREE ENERGY PREDICTED BY IDOCK:   -1.19 KCAL/MOL
REMARK 927      BINDING AFFINITY PREDICTED BY RF-SCORE:    0.00 PKD
ROOT
HETATM    1  C   UNL     1     -10.885  15.591  71.123  1.00  0.00    -0.147 C  
HETATM    2  C   UNL     1     -12.270  14.967  71.236  1.00  0.00    -0.383 C  
ENDROOT
BRANCH   2   3
HETATM    3  C   UNL     1     -12.624  14.227  69.945  1.00  0.00    -0.214 C  
BRANCH   3   4
HETATM    4  C   UNL     1     -11.496  14.079  68.929  1.00  0.00    -0.331 C  
BRANCH   4   5
HETATM    5  C   UNL     1     -11.292  12.683  68.431  1.00  0.00    -0.290 A  
HETATM    6  N   UNL     1     -12.087  11.694  68.790  1.00  0.00    -0.433 NA 
HETATM    7  C   UNL     1     -11.659  10.597  68.113  1.00  0.00    -0.136 A  
HETATM    8  C   UNL     1     -10.571  10.894  67.327  1.00  0.00    -0.251 A  
HETATM    9  N   UNL     1     -10.289  12.233  67.575  1.00  0.00    -0.202 NA 
BRANCH   8  10
HETATM   10  C   UNL     1      -9.865  10.119  66.389  1.00  0.00    -0.279 C  
HETATM   11  O   UNL     1      -7.846   7.247  65.797  1.00  0.00    -0.096 OA 
HETATM   12  C   UNL     1      -9.016   9.128  66.731  1.00  0.00    -0.152 C  
HETATM   13  C   UNL     1      -8.381   8.457  65.558  1.00  0.00    -0.154 C  
HETATM   14  O   UNL     1      -8.325   8.970  64.450  1.00  0.00    -0.160 OA 
BRANCH  12  15
HETATM   15  C   UNL     1      -8.659   8.725  68.137  1.00  0.00    -0.134 C  
BRANCH  15  16
HETATM   16  C   UNL     1      -9.609   7.791  68.841  1.00  0.00    -0.154 A  
HETATM   17  C   UNL     1     -11.306   6.268  69.332  1.00  0.00    -0.448 A  
HETATM   18  C   UNL     1     -10.483   6.852  68.326  1.00  0.00    -0.240 A  
HETATM   19  C   UNL     1     -10.988   6.727  70.589  1.00  0.00    -0.267 A  
HETATM   20  S   UNL     1      -9.703   7.851  70.556  1.00  0.00    -0.174 SA 
ENDBRANCH  15  16
ENDBRANCH  12  15
ENDBRANCH   8  10
BRANCH   9  21
HETATM   21  C   UNL     1      -9.053  12.952  67.224  1.00  0.00    -0.208 C  
BRANCH  21  22
HETATM   22  C   UNL     1      -9.248  14.398  66.816  1.00  0.00    -0.287 A  
HETATM   23  C   UNL     1     -10.069  14.753  65.737  1.00  0.00    -0.364 A  
HETATM   24  C   UNL     1     -10.374  16.089  65.466  1.00  0.00    -0.415 A  
HETATM   25  C   UNL     1      -8.583  15.433  67.490  1.00  0.00    -0.187 A  
HETATM   26  O   UNL     1     -10.427  19.171  67.224  1.00  0.00    -0.399 OA 
HETATM   27  C   UNL     1      -8.885  16.774  67.233  1.00  0.00    -0.216 A  
HETATM   28  C   UNL     1      -9.839  17.097  66.265  1.00  0.00    -0.306 A  
HETATM   29  O   UNL     1     -10.617  18.946  64.979  1.00  0.00    -0.196 OA 
HETATM   30  C   UNL     1     -10.308  18.488  66.064  1.00  0.00    -0.393 C  
ENDBRANCH  21  22
ENDBRANCH   9  21
ENDBRANCH   4   5
ENDBRANCH   3   4
ENDBRANCH   2   3
TORSDOF 8
ENDMDL
MODEL      124
REMARK 921   NORMALIZED FREE ENERGY PREDICTED BY IDOCK:   -4.54 KCAL/MOL
REMARK 922        TOTAL FREE ENERGY PREDICTED BY IDOCK:   -8.78 KCAL/MOL
REMARK 923 INTER-LIGAND FREE ENERGY PREDICTED BY IDOCK:   -7.12 KCAL/MOL
REMARK 924 INTRA-LIGAND FREE ENERGY PREDICTED BY IDOCK:   -1.66 KCAL/MOL
REMARK 927      BINDING AFFINITY PREDICTED BY RF-SCORE:    0.00 PKD
ROOT
HETATM    1  C   UNL     1      -6.316   7.106  70.918  1.00  0.00    -0.036 C  
HETATM    2  C   UNL     1      -5.498   8.339  70.556  1.00  0.00    -0.025 C  
ENDROOT
BRANCH   2   3
HETATM    3  C   UNL     1      -6.114   9.587  71.188  1.00  0.00    -0.074 C  
BRANCH   3   4
HETATM    4  C   UNL     1      -6.479  10.713  70.226  1.00  0.00    -0.138 C  
BRANCH   4   5
HETATM    5  C   UNL     1      -7.827  10.571  69.591  1.00  0.00    -0.086 A  
HETATM    6  N   UNL     1      -8.696   9.668  69.998  1.00  0.00    -0.218 NA 
HETATM    7  C   UNL     1      -9.818   9.858  69.259  1.00  0.00    -0.207 A  
HETATM    8  C   UNL     1      -9.651  10.886  68.362  1.00  0.00    -0.177 A  
HETATM    9  N   UNL     1      -8.338  11.315  68.529  1.00  0.00    -0.150 NA 
BRANCH   8  10
HETATM   10  C   UNL     1     -10.554  11.501  67.476  1.00  0.00    -0.243 C  
HETATM   11  O   UNL     1     -12.469  14.398  66.690  1.00  0.00    -0.351 OA 
HETATM   12  C   UNL     1     -11.197  12.655  67.749  1.00  0.00    -0.319 C  
HETATM   13  C   UNL     1     -12.108  13.103  66.656  1.00  0.00    -0.346 C  
HETATM   14  O   UNL     1     -12.526  12.349  65.789  1.00  0.00    -0.615 OA 
BRANCH  12  15
HETATM   15  C   UNL     1     -11.091  13.435  69.033  1.00  0.00    -0.293 C  
BRANCH  15  16
HETATM   16  C   UNL     1     -11.940  12.968  70.187  1.00  0.00    -0.303 A  
HETATM   17  C   UNL     1     -13.217  11.684  71.657  1.00  0.00    -0.376 A  
HETATM   18  C   UNL     1     -12.276  11.688  70.587  1.00  0.00    -0.461 A  
HETATM   19  C   UNL     1     -13.517  12.956  72.086  1.00  0.00    -0.522 A  
HETATM   20  S   UNL     1     -12.665  14.147  71.206  1.00  0.00    -0.380 SA 
ENDBRANCH  15  16
ENDBRANCH  12  15
ENDBRANCH   8  10
BRANCH   9  21
HETATM   21  C   UNL     1      -7.571  12.177  67.616  1.00  0.00    -0.140 C  
BRANCH  21  22
HETATM   22  C   UNL     1      -7.936  13.648  67.667  1.00  0.00    -0.180 A  
HETATM   23  C   UNL     1      -8.511  14.300  66.567  1.00  0.00     0.221 A  
HETATM   24  C   UNL     1      -8.993  15.607  66.671  1.00  0.00    -0.317 A  
HETATM   25  C   UNL     1      -7.679  14.415  68.812  1.00  0.00    -0.139 A  
HETATM   26  O   UNL     1     -10.089  17.798  69.238  1.00  0.00    -0.281 OA 
HETATM   27  C   UNL     1      -8.162  15.722  68.930  1.00  0.00    -0.210 A  
HETATM   28  C   UNL     1      -8.884  16.292  67.880  1.00  0.00    -0.183 A  
HETATM   29  O   UNL     1      -9.659  18.405  67.099  1.00  0.00    -0.283 OA 
HETATM   30  C   UNL     1      -9.550  17.608  68.013  1.00  0.00    -0.289 C  
ENDBRANCH  21  22
ENDBRANCH   9  21
ENDBRANCH   4   5
ENDBRANCH   3   4
ENDBRANCH   2   3
TORSDOF 8
ENDMDL
MODEL      125
REMARK 921   NORMALIZED FREE ENERGY PREDICTED BY IDOCK:   -4.53 KCAL/MOL
REMARK 922        TOTAL FREE ENERGY PREDICTED BY IDOCK:   -8.76 KCAL/MOL
REMARK 923 INTER-LIGAND FREE ENERGY PREDICTED BY IDOCK:   -5.92 KCAL/MOL
REMARK 924 INTRA-LIGAND FREE ENERGY PREDICTED BY IDOCK:   -2.84 KCAL/MOL
REMARK 927      BINDING AFFINITY PREDICTED BY RF-SCORE:    0.00 PKD
ROOT
HETATM    1  C   UNL     1     -13.238  10.060  71.581  1.00  0.00    -0.518 C  
HETATM    2  C   UNL     1     -11.776   9.964  71.165  1.00  0.00    -0.478 C  
ENDROOT
BRANCH   2   3
HETATM    3  C   UNL     1     -11.077   8.847  71.941  1.00  0.00    -0.442 C  
BRANCH   3   4
HETATM    4  C   UNL     1     -11.750   7.480  71.896  1.00  0.00    -0.320 C  
BRANCH   4   5
HETATM    5  C   UNL     1     -10.839   6.353  71.523  1.00  0.00    -0.254 A  
HETATM    6  N   UNL     1      -9.994   5.828  72.388  1.00  0.00    -0.168 NA 
HETATM    7  C   UNL     1      -9.379   4.802  71.744  1.00  0.00    -0.141 A  
HETATM    8  C   UNL     1      -9.832   4.687  70.451  1.00  0.00    -0.236 A  
HETATM    9  N   UNL     1     -10.737   5.731  70.281  1.00  0.00    -0.300 NA 
BRANCH   8  10
HETATM   10  C   UNL     1      -9.567   3.729  69.456  1.00  0.00    -0.230 C  
HETATM   11  O   UNL     1      -7.123   2.128  67.422  1.00  0.00    -0.046 OA 
HETATM   12  C   UNL     1      -8.382   3.623  68.821  1.00  0.00    -0.089 C  
HETATM   13  C   UNL     1      -8.347   2.534  67.802  1.00  0.00    -0.077 C  
HETATM   14  O   UNL     1      -9.358   2.045  67.318  1.00  0.00    -0.117 OA 
BRANCH  12  15
HETATM   15  C   UNL     1      -7.190   4.519  69.034  1.00  0.00    -0.052 C  
BRANCH  15  16
HETATM   16  C   UNL     1      -6.907   5.543  67.965  1.00  0.00    -0.060 A  
HETATM   17  C   UNL     1      -6.822   6.721  65.954  1.00  0.00    -0.056 A  
HETATM   18  C   UNL     1      -7.469   5.703  66.712  1.00  0.00    -0.087 A  
HETATM   19  C   UNL     1      -5.835   7.353  66.675  1.00  0.00    -0.035 A  
HETATM   20  S   UNL     1      -5.694   6.724  68.256  1.00  0.00    -0.018 SA 
ENDBRANCH  15  16
ENDBRANCH  12  15
ENDBRANCH   8  10
BRANCH   9  21
HETATM   21  C   UNL     1     -11.269   6.234  69.004  1.00  0.00    -0.343 C  
BRANCH  21  22
HETATM   22  C   UNL     1     -10.433   7.310  68.341  1.00  0.00    -0.228 A  
HETATM   23  C   UNL     1     -10.656   7.700  67.014  1.00  0.00    -0.406 A  
HETATM   24  C   UNL     1      -9.995   8.799  66.460  1.00  0.00    -0.360 A  
HETATM   25  C   UNL     1      -9.381   7.931  69.030  1.00  0.00    -0.151 A  
HETATM   26  O   UNL     1      -8.357  11.726  67.619  1.00  0.00    -0.133 OA 
HETATM   27  C   UNL     1      -8.716   9.036  68.489  1.00  0.00    -0.133 A  
HETATM   28  C   UNL     1      -9.077   9.514  67.227  1.00  0.00    -0.146 A  
HETATM   29  O   UNL     1      -8.286  10.945  65.494  1.00  0.00    -0.154 OA 
HETATM   30  C   UNL     1      -8.516  10.770  66.677  1.00  0.00    -0.142 C  
ENDBRANCH  21  22
ENDBRANCH   9  21
ENDBRANCH   4   5
ENDBRANCH   3   4
ENDBRANCH   2   3
TORSDOF 8
ENDMDL
MODEL      126
REMARK 921   NORMALIZED FREE ENERGY PREDICTED BY IDOCK:   -4.51 KCAL/MOL
REMARK 922        TOTAL FREE ENERGY PREDICTED BY IDOCK:   -8.74 KCAL/MOL
REMARK 923 INTER-LIGAND FREE ENERGY PREDICTED BY IDOCK:   -6.77 KCAL/MOL
REMARK 924 INTRA-LIGAND FREE ENERGY PREDICTED BY IDOCK:   -1.97 KCAL/MOL
REMARK 927      BINDING AFFINITY PREDICTED BY RF-SCORE:    0.00 PKD
ROOT
HETATM    1  C   UNL     1      -8.119  13.761  68.627  1.00  0.00    -0.084 C  
HETATM    2  C   UNL     1      -8.012  12.374  68.005  1.00  0.00    -0.155 C  
ENDROOT
BRANCH   2   3
HETATM    3  C   UNL     1      -8.724  12.346  66.651  1.00  0.00    -0.119 C  
BRANCH   3   4
HETATM    4  C   UNL     1      -9.207  10.979  66.179  1.00  0.00    -0.209 C  
BRANCH   4   5
HETATM    5  C   UNL     1      -9.075   9.890  67.197  1.00  0.00    -0.138 A  
HETATM    6  N   UNL     1      -8.022   9.097  67.234  1.00  0.00    -0.102 NA 
HETATM    7  C   UNL     1      -8.198   8.281  68.304  1.00  0.00    -0.128 A  
HETATM    8  C   UNL     1      -9.385   8.552  68.944  1.00  0.00    -0.146 A  
HETATM    9  N   UNL     1      -9.989   9.556  68.193  1.00  0.00    -0.159 NA 
BRANCH   8  10
HETATM   10  C   UNL     1      -9.935   8.045  70.135  1.00  0.00    -0.191 C  
HETATM   11  O   UNL     1     -11.681   5.381  71.725  1.00  0.00     0.111 OA 
HETATM   12  C   UNL     1     -10.746   6.968  70.181  1.00  0.00    -0.265 C  
HETATM   13  C   UNL     1     -11.206   6.628  71.559  1.00  0.00    -0.270 C  
HETATM   14  O   UNL     1     -11.180   7.427  72.484  1.00  0.00    -0.277 OA 
BRANCH  12  15
HETATM   15  C   UNL     1     -11.222   6.177  68.991  1.00  0.00    -0.375 C  
BRANCH  15  16
HETATM   16  C   UNL     1     -10.283   5.131  68.448  1.00  0.00    -0.105 A  
HETATM   17  C   UNL     1      -8.677   3.454  68.231  1.00  0.00    -0.135 A  
HETATM   18  C   UNL     1      -9.550   4.162  69.107  1.00  0.00    -0.243 A  
HETATM   19  C   UNL     1      -8.820   3.856  66.924  1.00  0.00    -0.126 A  
HETATM   20  S   UNL     1     -10.004   5.075  66.753  1.00  0.00    -0.241 SA 
ENDBRANCH  15  16
ENDBRANCH  12  15
ENDBRANCH   8  10
BRANCH   9  21
HETATM   21  C   UNL     1     -11.395   9.988  68.271  1.00  0.00    -0.049 C  
BRANCH  21  22
HETATM   22  C   UNL     1     -11.699  10.977  69.378  1.00  0.00    -0.394 A  
HETATM   23  C   UNL     1     -11.186  12.282  69.358  1.00  0.00    -0.243 A  
HETATM   24  C   UNL     1     -11.598  13.238  70.290  1.00  0.00    -0.096 A  
HETATM   25  C   UNL     1     -12.482  10.608  70.481  1.00  0.00    -0.445 A  
HETATM   26  O   UNL     1     -14.372  13.778  72.435  1.00  0.00    -0.664 OA 
HETATM   27  C   UNL     1     -12.905  11.556  71.417  1.00  0.00    -0.489 A  
HETATM   28  C   UNL     1     -12.518  12.891  71.277  1.00  0.00    -0.298 A  
HETATM   29  O   UNL     1     -12.424  14.929  72.506  1.00  0.00    -0.333 OA 
HETATM   30  C   UNL     1     -13.064  13.958  72.146  1.00  0.00    -0.406 C  
ENDBRANCH  21  22
ENDBRANCH   9  21
ENDBRANCH   4   5
ENDBRANCH   3   4
ENDBRANCH   2   3
TORSDOF 8
ENDMDL
MODEL      127
REMARK 921   NORMALIZED FREE ENERGY PREDICTED BY IDOCK:   -4.50 KCAL/MOL
REMARK 922        TOTAL FREE ENERGY PREDICTED BY IDOCK:   -8.72 KCAL/MOL
REMARK 923 INTER-LIGAND FREE ENERGY PREDICTED BY IDOCK:   -7.72 KCAL/MOL
REMARK 924 INTRA-LIGAND FREE ENERGY PREDICTED BY IDOCK:   -1.00 KCAL/MOL
REMARK 927      BINDING AFFINITY PREDICTED BY RF-SCORE:    0.00 PKD
ROOT
HETATM    1  C   UNL     1     -11.652   8.165  72.164  1.00  0.00    -0.417 C  
HETATM    2  C   UNL     1     -10.584   8.728  71.235  1.00  0.00    -0.332 C  
ENDROOT
BRANCH   2   3
HETATM    3  C   UNL     1     -11.126   9.945  70.484  1.00  0.00    -0.398 C  
BRANCH   3   4
HETATM    4  C   UNL     1     -10.121  10.700  69.621  1.00  0.00    -0.120 C  
BRANCH   4   5
HETATM    5  C   UNL     1     -10.729  11.724  68.715  1.00  0.00    -0.221 A  
HETATM    6  N   UNL     1     -12.008  11.701  68.399  1.00  0.00    -0.533 NA 
HETATM    7  C   UNL     1     -12.230  12.794  67.626  1.00  0.00     0.061 A  
HETATM    8  C   UNL     1     -11.072  13.511  67.439  1.00  0.00    -0.281 A  
HETATM    9  N   UNL     1     -10.079  12.788  68.094  1.00  0.00    -0.234 NA 
BRANCH   8  10
HETATM   10  C   UNL     1     -10.836  14.746  66.809  1.00  0.00    -0.316 C  
HETATM   11  O   UNL     1     -11.422  16.816  63.972  1.00  0.00    -1.198 OA 
HETATM   12  C   UNL     1     -11.155  14.999  65.523  1.00  0.00    -0.358 C  
HETATM   13  C   UNL     1     -10.800  16.379  65.082  1.00  0.00    -0.275 C  
HETATM   14  O   UNL     1      -9.983  17.075  65.668  1.00  0.00    -0.554 OA 
BRANCH  12  15
HETATM   15  C   UNL     1     -11.761  14.012  64.560  1.00  0.00    -0.428 C  
BRANCH  15  16
HETATM   16  C   UNL     1     -10.904  12.840  64.155  1.00  0.00    -0.406 A  
HETATM   17  C   UNL     1      -9.105  11.455  63.623  1.00  0.00     0.017 A  
HETATM   18  C   UNL     1      -9.537  12.662  64.245  1.00  0.00     0.237 A  
HETATM   19  C   UNL     1     -10.161  10.717  63.140  1.00  0.00    -0.117 A  
HETATM   20  S   UNL     1     -11.662  11.474  63.439  1.00  0.00     0.133 SA 
ENDBRANCH  15  16
ENDBRANCH  12  15
ENDBRANCH   8  10
BRANCH   9  21
HETATM   21  C   UNL     1      -8.624  12.958  67.945  1.00  0.00    -0.185 C  
BRANCH  21  22
HETATM   22  C   UNL     1      -8.117  14.367  68.183  1.00  0.00    -0.137 A  
HETATM   23  C   UNL     1      -7.207  14.978  67.309  1.00  0.00    -0.175 A  
HETATM   24  C   UNL     1      -6.868  16.326  67.442  1.00  0.00    -0.210 A  
HETATM   25  C   UNL     1      -8.521  15.097  69.311  1.00  0.00    -0.209 A  
HETATM   26  O   UNL     1      -8.262  19.245  68.902  1.00  0.00    -0.358 OA 
HETATM   27  C   UNL     1      -8.193  16.449  69.451  1.00  0.00     0.012 A  
HETATM   28  C   UNL     1      -7.423  17.082  68.473  1.00  0.00    -0.221 A  
HETATM   29  O   UNL     1      -6.146  19.061  68.116  1.00  0.00    -0.212 OA 
HETATM   30  C   UNL     1      -7.182  18.543  68.493  1.00  0.00    -0.288 C  
ENDBRANCH  21  22
ENDBRANCH   9  21
ENDBRANCH   4   5
ENDBRANCH   3   4
ENDBRANCH   2   3
TORSDOF 8
ENDMDL
MODEL      128
REMARK 921   NORMALIZED FREE ENERGY PREDICTED BY IDOCK:   -4.48 KCAL/MOL
REMARK 922        TOTAL FREE ENERGY PREDICTED BY IDOCK:   -8.68 KCAL/MOL
REMARK 923 INTER-LIGAND FREE ENERGY PREDICTED BY IDOCK:   -7.23 KCAL/MOL
REMARK 924 INTRA-LIGAND FREE ENERGY PREDICTED BY IDOCK:   -1.45 KCAL/MOL
REMARK 927      BINDING AFFINITY PREDICTED BY RF-SCORE:    0.00 PKD
ROOT
HETATM    1  C   UNL     1      -6.679   7.731  68.580  1.00  0.00    -0.058 C  
HETATM    2  C   UNL     1      -6.166   8.088  69.969  1.00  0.00    -0.032 C  
ENDROOT
BRANCH   2   3
HETATM    3  C   UNL     1      -6.102   9.607  70.134  1.00  0.00    -0.053 C  
BRANCH   3   4
HETATM    4  C   UNL     1      -5.909  10.411  68.853  1.00  0.00    -0.040 C  
BRANCH   4   5
HETATM    5  C   UNL     1      -6.632  11.721  68.829  1.00  0.00    -0.074 A  
HETATM    6  N   UNL     1      -6.172  12.781  69.463  1.00  0.00    -0.116 NA 
HETATM    7  C   UNL     1      -7.028  13.795  69.181  1.00  0.00    -0.082 A  
HETATM    8  C   UNL     1      -8.052  13.367  68.369  1.00  0.00    -0.138 A  
HETATM    9  N   UNL     1      -7.835  12.005  68.186  1.00  0.00    -0.136 NA 
BRANCH   8  10
HETATM   10  C   UNL     1      -9.097  14.071  67.744  1.00  0.00    -0.192 C  
HETATM   11  O   UNL     1     -11.520  16.668  67.990  1.00  0.00    -0.167 OA 
HETATM   12  C   UNL     1      -9.909  14.930  68.394  1.00  0.00    -0.216 C  
HETATM   13  C   UNL     1     -10.947  15.548  67.517  1.00  0.00    -0.316 C  
HETATM   14  O   UNL     1     -11.281  15.067  66.443  1.00  0.00    -0.342 OA 
BRANCH  12  15
HETATM   15  C   UNL     1      -9.861  15.238  69.867  1.00  0.00    -0.137 C  
BRANCH  15  16
HETATM   16  C   UNL     1     -11.169  15.196  70.615  1.00  0.00    -0.287 A  
HETATM   17  C   UNL     1     -12.927  15.633  72.084  1.00  0.00    -0.527 A  
HETATM   18  C   UNL     1     -11.731  16.117  71.480  1.00  0.00    -0.533 A  
HETATM   19  C   UNL     1     -13.278  14.390  71.611  1.00  0.00    -0.350 A  
HETATM   20  S   UNL     1     -12.174  13.813  70.442  1.00  0.00    -0.355 SA 
ENDBRANCH  15  16
ENDBRANCH  12  15
ENDBRANCH   8  10
BRANCH   9  21
HETATM   21  C   UNL     1      -8.797  11.024  67.656  1.00  0.00    -0.131 C  
BRANCH  21  22
HETATM   22  C   UNL     1      -9.835  10.545  68.651  1.00  0.00    -0.183 A  
HETATM   23  C   UNL     1      -9.482   9.773  69.767  1.00  0.00    -0.253 A  
HETATM   24  C   UNL     1     -10.413   9.471  70.764  1.00  0.00    -0.384 A  
HETATM   25  C   UNL     1     -11.195  10.833  68.469  1.00  0.00    -0.340 A  
HETATM   26  O   UNL     1     -13.485  10.783  71.961  1.00  0.00    -0.373 OA 
HETATM   27  C   UNL     1     -12.135  10.542  69.462  1.00  0.00    -0.208 A  
HETATM   28  C   UNL     1     -11.726   9.923  70.645  1.00  0.00    -0.404 A  
HETATM   29  O   UNL     1     -12.611   8.774  72.535  1.00  0.00    -0.391 OA 
HETATM   30  C   UNL     1     -12.648   9.736  71.789  1.00  0.00    -0.416 C  
ENDBRANCH  21  22
ENDBRANCH   9  21
ENDBRANCH   4   5
ENDBRANCH   3   4
ENDBRANCH   2   3
TORSDOF 8
ENDMDL
MODEL      129
REMARK 921   NORMALIZED FREE ENERGY PREDICTED BY IDOCK:   -4.45 KCAL/MOL
REMARK 922        TOTAL FREE ENERGY PREDICTED BY IDOCK:   -8.65 KCAL/MOL
REMARK 923 INTER-LIGAND FREE ENERGY PREDICTED BY IDOCK:   -6.96 KCAL/MOL
REMARK 924 INTRA-LIGAND FREE ENERGY PREDICTED BY IDOCK:   -1.70 KCAL/MOL
REMARK 927      BINDING AFFINITY PREDICTED BY RF-SCORE:    0.00 PKD
ROOT
HETATM    1  C   UNL     1      -8.210   5.361  65.069  1.00  0.00    -0.137 C  
HETATM    2  C   UNL     1      -7.381   6.637  65.120  1.00  0.00    -0.081 C  
ENDROOT
BRANCH   2   3
HETATM    3  C   UNL     1      -6.735   6.794  66.497  1.00  0.00    -0.049 C  
BRANCH   3   4
HETATM    4  C   UNL     1      -7.322   7.882  67.390  1.00  0.00    -0.092 C  
BRANCH   4   5
HETATM    5  C   UNL     1      -8.313   7.388  68.397  1.00  0.00    -0.125 A  
HETATM    6  N   UNL     1      -8.000   6.468  69.287  1.00  0.00    -0.109 NA 
HETATM    7  C   UNL     1      -9.097   6.307  70.070  1.00  0.00    -0.148 A  
HETATM    8  C   UNL     1     -10.122   7.127  69.661  1.00  0.00    -0.192 A  
HETATM    9  N   UNL     1      -9.640   7.788  68.535  1.00  0.00    -0.148 NA 
BRANCH   8  10
HETATM   10  C   UNL     1     -11.389   7.377  70.218  1.00  0.00    -0.244 C  
HETATM   11  O   UNL     1     -13.320   9.297  72.511  1.00  0.00    -0.457 OA 
HETATM   12  C   UNL     1     -11.584   8.154  71.302  1.00  0.00    -0.305 C  
HETATM   13  C   UNL     1     -13.017   8.263  71.707  1.00  0.00    -0.344 C  
HETATM   14  O   UNL     1     -13.869   7.459  71.356  1.00  0.00    -0.393 OA 
BRANCH  12  15
HETATM   15  C   UNL     1     -10.503   8.830  72.104  1.00  0.00    -0.384 C  
BRANCH  15  16
HETATM   16  C   UNL     1      -9.759   7.978  73.100  1.00  0.00    -0.270 A  
HETATM   17  C   UNL     1      -8.118   7.047  74.471  1.00  0.00    -0.176 A  
HETATM   18  C   UNL     1      -8.516   8.160  73.676  1.00  0.00    -0.308 A  
HETATM   19  C   UNL     1      -9.097   6.082  74.533  1.00  0.00    -0.147 A  
HETATM   20  S   UNL     1     -10.487   6.519  73.643  1.00  0.00    -0.301 SA 
ENDBRANCH  15  16
ENDBRANCH  12  15
ENDBRANCH   8  10
BRANCH   9  21
HETATM   21  C   UNL     1     -10.434   8.541  67.551  1.00  0.00    -0.258 C  
BRANCH  21  22
HETATM   22  C   UNL     1     -10.486  10.038  67.782  1.00  0.00    -0.282 A  
HETATM   23  C   UNL     1      -9.459  10.886  67.343  1.00  0.00    -0.170 A  
HETATM   24  C   UNL     1      -9.586  12.275  67.412  1.00  0.00    -0.179 A  
HETATM   25  C   UNL     1     -11.555  10.624  68.475  1.00  0.00    -0.279 A  
HETATM   26  O   UNL     1     -12.206  14.659  67.617  1.00  0.00    -0.268 OA 
HETATM   27  C   UNL     1     -11.696  12.013  68.546  1.00  0.00    -0.387 A  
HETATM   28  C   UNL     1     -10.742  12.839  67.948  1.00  0.00    -0.235 A  
HETATM   29  O   UNL     1     -10.008  15.106  67.927  1.00  0.00    -0.219 OA 
HETATM   30  C   UNL     1     -10.924  14.307  67.858  1.00  0.00    -0.267 C  
ENDBRANCH  21  22
ENDBRANCH   9  21
ENDBRANCH   4   5
ENDBRANCH   3   4
ENDBRANCH   2   3
TORSDOF 8
ENDMDL
MODEL      130
REMARK 921   NORMALIZED FREE ENERGY PREDICTED BY IDOCK:   -4.45 KCAL/MOL
REMARK 922        TOTAL FREE ENERGY PREDICTED BY IDOCK:   -8.65 KCAL/MOL
REMARK 923 INTER-LIGAND FREE ENERGY PREDICTED BY IDOCK:   -7.22 KCAL/MOL
REMARK 924 INTRA-LIGAND FREE ENERGY PREDICTED BY IDOCK:   -1.43 KCAL/MOL
REMARK 927      BINDING AFFINITY PREDICTED BY RF-SCORE:    0.00 PKD
ROOT
HETATM    1  C   UNL     1      -9.315   6.703  71.467  1.00  0.00    -0.153 C  
HETATM    2  C   UNL     1      -8.733   7.786  70.568  1.00  0.00    -0.140 C  
ENDROOT
BRANCH   2   3
HETATM    3  C   UNL     1      -9.436   9.120  70.824  1.00  0.00    -0.334 C  
BRANCH   3   4
HETATM    4  C   UNL     1      -9.006  10.283  69.936  1.00  0.00     0.008 C  
BRANCH   4   5
HETATM    5  C   UNL     1     -10.079  10.798  69.029  1.00  0.00    -0.211 A  
HETATM    6  N   UNL     1     -11.299  10.299  69.042  1.00  0.00    -0.213 NA 
HETATM    7  C   UNL     1     -12.019  11.030  68.154  1.00  0.00     0.017 A  
HETATM    8  C   UNL     1     -11.240  11.997  67.562  1.00  0.00    -0.294 A  
HETATM    9  N   UNL     1      -9.962  11.812  68.081  1.00  0.00    -0.189 NA 
BRANCH   8  10
HETATM   10  C   UNL     1     -11.567  13.037  66.673  1.00  0.00    -0.410 C  
HETATM   11  O   UNL     1     -12.780  13.947  63.453  1.00  0.00    -0.806 OA 
HETATM   12  C   UNL     1     -11.832  12.842  65.365  1.00  0.00    -0.444 C  
HETATM   13  C   UNL     1     -12.145  14.101  64.628  1.00  0.00    -0.452 C  
HETATM   14  O   UNL     1     -11.834  15.209  65.041  1.00  0.00    -0.290 OA 
BRANCH  12  15
HETATM   15  C   UNL     1     -11.779  11.520  64.646  1.00  0.00    -0.049 C  
BRANCH  15  16
HETATM   16  C   UNL     1     -10.440  10.833  64.579  1.00  0.00    -0.281 A  
HETATM   17  C   UNL     1      -8.562   9.528  65.040  1.00  0.00    -0.187 A  
HETATM   18  C   UNL     1      -9.930   9.797  65.338  1.00  0.00    -0.302 A  
HETATM   19  C   UNL     1      -8.093  10.318  64.017  1.00  0.00    -0.137 A  
HETATM   20  S   UNL     1      -9.294  11.373  63.417  1.00  0.00    -0.173 SA 
ENDBRANCH  15  16
ENDBRANCH  12  15
ENDBRANCH   8  10
BRANCH   9  21
HETATM   21  C   UNL     1      -8.709  12.379  67.555  1.00  0.00    -0.179 C  
BRANCH  21  22
HETATM   22  C   UNL     1      -8.606  13.888  67.640  1.00  0.00    -0.190 A  
HETATM   23  C   UNL     1      -8.602  14.689  66.489  1.00  0.00    -0.023 A  
HETATM   24  C   UNL     1      -8.670  16.082  66.575  1.00  0.00    -0.338 A  
HETATM   25  C   UNL     1      -8.478  14.534  68.877  1.00  0.00    -0.110 A  
HETATM   26  O   UNL     1      -9.753  18.511  68.925  1.00  0.00    -0.353 OA 
HETATM   27  C   UNL     1      -8.551  15.927  68.977  1.00  0.00    -0.239 A  
HETATM   28  C   UNL     1      -8.720  16.697  67.824  1.00  0.00    -0.201 A  
HETATM   29  O   UNL     1      -8.546  18.947  67.059  1.00  0.00    -0.276 OA 
HETATM   30  C   UNL     1      -8.961  18.157  67.888  1.00  0.00    -0.269 C  
ENDBRANCH  21  22
ENDBRANCH   9  21
ENDBRANCH   4   5
ENDBRANCH   3   4
ENDBRANCH   2   3
TORSDOF 8
ENDMDL
MODEL      131
REMARK 921   NORMALIZED FREE ENERGY PREDICTED BY IDOCK:   -4.44 KCAL/MOL
REMARK 922        TOTAL FREE ENERGY PREDICTED BY IDOCK:   -8.63 KCAL/MOL
REMARK 923 INTER-LIGAND FREE ENERGY PREDICTED BY IDOCK:   -8.05 KCAL/MOL
REMARK 924 INTRA-LIGAND FREE ENERGY PREDICTED BY IDOCK:   -0.58 KCAL/MOL
REMARK 927      BINDING AFFINITY PREDICTED BY RF-SCORE:    0.00 PKD
ROOT
HETATM    1  C   UNL     1     -12.739   9.350  71.914  1.00  0.00    -0.484 C  
HETATM    2  C   UNL     1     -11.339   9.535  71.343  1.00  0.00    -0.462 C  
ENDROOT
BRANCH   2   3
HETATM    3  C   UNL     1     -11.102   8.554  70.195  1.00  0.00    -0.192 C  
BRANCH   3   4
HETATM    4  C   UNL     1     -10.488   9.142  68.928  1.00  0.00    -0.239 C  
BRANCH   4   5
HETATM    5  C   UNL     1     -10.812  10.585  68.697  1.00  0.00    -0.237 A  
HETATM    6  N   UNL     1     -12.054  11.024  68.675  1.00  0.00    -0.555 NA 
HETATM    7  C   UNL     1     -11.980  12.369  68.509  1.00  0.00    -0.223 A  
HETATM    8  C   UNL     1     -10.673  12.784  68.411  1.00  0.00    -0.250 A  
HETATM    9  N   UNL     1      -9.910  11.622  68.470  1.00  0.00    -0.201 NA 
BRANCH   8  10
HETATM   10  C   UNL     1     -10.111  14.071  68.336  1.00  0.00    -0.236 C  
HETATM   11  O   UNL     1     -10.374  17.506  69.238  1.00  0.00    -0.327 OA 
HETATM   12  C   UNL     1     -10.760  15.190  68.720  1.00  0.00    -0.239 C  
HETATM   13  C   UNL     1      -9.958  16.436  68.538  1.00  0.00    -0.239 C  
HETATM   14  O   UNL     1      -8.994  16.501  67.789  1.00  0.00    -0.200 OA 
BRANCH  12  15
HETATM   15  C   UNL     1     -12.173  15.251  69.237  1.00  0.00    -0.218 C  
BRANCH  15  16
HETATM   16  C   UNL     1     -12.352  15.254  70.733  1.00  0.00    -0.380 A  
HETATM   17  C   UNL     1     -11.985  15.286  73.036  1.00  0.00    -0.517 A  
HETATM   18  C   UNL     1     -11.445  15.526  71.740  1.00  0.00    -0.504 A  
HETATM   19  C   UNL     1     -13.306  14.906  72.982  1.00  0.00    -0.454 A  
HETATM   20  S   UNL     1     -13.892  14.845  71.379  1.00  0.00    -0.460 SA 
ENDBRANCH  15  16
ENDBRANCH  12  15
ENDBRANCH   8  10
BRANCH   9  21
HETATM   21  C   UNL     1      -8.490  11.484  68.109  1.00  0.00    -0.154 C  
BRANCH  21  22
HETATM   22  C   UNL     1      -8.233  11.000  66.696  1.00  0.00    -0.154 A  
HETATM   23  C   UNL     1      -7.063  10.306  66.358  1.00  0.00    -0.112 A  
HETATM   24  C   UNL     1      -6.904   9.722  65.099  1.00  0.00    -0.109 A  
HETATM   25  C   UNL     1      -9.150  11.261  65.667  1.00  0.00    -0.203 A  
HETATM   26  O   UNL     1      -8.983   8.604  62.449  1.00  0.00    -0.115 OA 
HETATM   27  C   UNL     1      -9.005  10.677  64.405  1.00  0.00    -0.212 A  
HETATM   28  C   UNL     1      -7.913   9.846  64.145  1.00  0.00    -0.150 A  
HETATM   29  O   UNL     1      -6.735   8.849  62.330  1.00  0.00    -0.096 OA 
HETATM   30  C   UNL     1      -7.795   9.081  62.883  1.00  0.00    -0.131 C  
ENDBRANCH  21  22
ENDBRANCH   9  21
ENDBRANCH   4   5
ENDBRANCH   3   4
ENDBRANCH   2   3
TORSDOF 8
ENDMDL
MODEL      132
REMARK 921   NORMALIZED FREE ENERGY PREDICTED BY IDOCK:   -4.43 KCAL/MOL
REMARK 922        TOTAL FREE ENERGY PREDICTED BY IDOCK:   -8.62 KCAL/MOL
REMARK 923 INTER-LIGAND FREE ENERGY PREDICTED BY IDOCK:   -7.80 KCAL/MOL
REMARK 924 INTRA-LIGAND FREE ENERGY PREDICTED BY IDOCK:   -0.83 KCAL/MOL
REMARK 927      BINDING AFFINITY PREDICTED BY RF-SCORE:    0.00 PKD
ROOT
HETATM    1  C   UNL     1      -8.866   7.004  70.822  1.00  0.00    -0.149 C  
HETATM    2  C   UNL     1      -8.771   7.748  72.148  1.00  0.00    -0.169 C  
ENDROOT
BRANCH   2   3
HETATM    3  C   UNL     1      -9.933   8.733  72.285  1.00  0.00    -0.302 C  
BRANCH   3   4
HETATM    4  C   UNL     1     -11.048   8.601  71.253  1.00  0.00    -0.336 C  
BRANCH   4   5
HETATM    5  C   UNL     1     -11.438   9.887  70.596  1.00  0.00    -0.334 A  
HETATM    6  N   UNL     1     -12.672  10.348  70.648  1.00  0.00    -0.345 NA 
HETATM    7  C   UNL     1     -12.658  11.547  70.012  1.00  0.00    -0.023 A  
HETATM    8  C   UNL     1     -11.401  11.842  69.540  1.00  0.00    -0.236 A  
HETATM    9  N   UNL     1     -10.616  10.739  69.862  1.00  0.00    -0.156 NA 
BRANCH   8  10
HETATM   10  C   UNL     1     -10.889  12.997  68.921  1.00  0.00    -0.244 C  
HETATM   11  O   UNL     1     -11.054  16.538  68.596  1.00  0.00    -0.345 OA 
HETATM   12  C   UNL     1     -11.480  14.207  68.999  1.00  0.00    -0.322 C  
HETATM   13  C   UNL     1     -10.751  15.274  68.252  1.00  0.00    -0.254 C  
HETATM   14  O   UNL     1      -9.942  15.032  67.368  1.00  0.00    -0.225 OA 
BRANCH  12  15
HETATM   15  C   UNL     1     -12.775  14.507  69.706  1.00  0.00    -0.044 C  
BRANCH  15  16
HETATM   16  C   UNL     1     -12.680  14.959  71.140  1.00  0.00    -0.342 A  
HETATM   17  C   UNL     1     -12.051  16.016  73.122  1.00  0.00    -0.616 A  
HETATM   18  C   UNL     1     -11.983  16.014  71.699  1.00  0.00    -0.569 A  
HETATM   19  C   UNL     1     -12.854  15.007  73.601  1.00  0.00    -0.446 A  
HETATM   20  S   UNL     1     -13.523  14.067  72.343  1.00  0.00    -0.578 SA 
ENDBRANCH  15  16
ENDBRANCH  12  15
ENDBRANCH   8  10
BRANCH   9  21
HETATM   21  C   UNL     1      -9.285  10.419  69.321  1.00  0.00    -0.184 C  
BRANCH  21  22
HETATM   22  C   UNL     1      -9.260  10.070  67.847  1.00  0.00    -0.145 A  
HETATM   23  C   UNL     1      -8.891  11.010  66.875  1.00  0.00    -0.150 A  
HETATM   24  C   UNL     1      -8.713  10.641  65.539  1.00  0.00    -0.199 A  
HETATM   25  C   UNL     1      -9.641   8.795  67.401  1.00  0.00    -0.206 A  
HETATM   26  O   UNL     1      -8.044   7.676  63.708  1.00  0.00    -0.120 OA 
HETATM   27  C   UNL     1      -9.462   8.413  66.069  1.00  0.00    -0.224 A  
HETATM   28  C   UNL     1      -8.928   9.320  65.151  1.00  0.00    -0.257 A  
HETATM   29  O   UNL     1      -8.682   9.652  62.805  1.00  0.00    -0.190 OA 
HETATM   30  C   UNL     1      -8.573   8.918  63.770  1.00  0.00    -0.087 C  
ENDBRANCH  21  22
ENDBRANCH   9  21
ENDBRANCH   4   5
ENDBRANCH   3   4
ENDBRANCH   2   3
TORSDOF 8
ENDMDL
MODEL      133
REMARK 921   NORMALIZED FREE ENERGY PREDICTED BY IDOCK:   -4.42 KCAL/MOL
REMARK 922        TOTAL FREE ENERGY PREDICTED BY IDOCK:   -8.60 KCAL/MOL
REMARK 923 INTER-LIGAND FREE ENERGY PREDICTED BY IDOCK:   -6.43 KCAL/MOL
REMARK 924 INTRA-LIGAND FREE ENERGY PREDICTED BY IDOCK:   -2.17 KCAL/MOL
REMARK 927      BINDING AFFINITY PREDICTED BY RF-SCORE:    0.00 PKD
ROOT
HETATM    1  C   UNL     1     -13.600  13.679  72.256  1.00  0.00    -0.669 C  
HETATM    2  C   UNL     1     -12.916  12.740  71.271  1.00  0.00    -0.310 C  
ENDROOT
BRANCH   2   3
HETATM    3  C   UNL     1     -13.256  11.287  71.603  1.00  0.00    -0.431 C  
BRANCH   3   4
HETATM    4  C   UNL     1     -12.770  10.242  70.603  1.00  0.00    -0.382 C  
BRANCH   4   5
HETATM    5  C   UNL     1     -11.369   9.770  70.834  1.00  0.00    -0.365 A  
HETATM    6  N   UNL     1     -11.051   9.014  71.865  1.00  0.00    -0.373 NA 
HETATM    7  C   UNL     1      -9.732   8.723  71.732  1.00  0.00    -0.310 A  
HETATM    8  C   UNL     1      -9.206   9.316  70.608  1.00  0.00    -0.264 A  
HETATM    9  N   UNL     1     -10.250  10.049  70.053  1.00  0.00    -0.260 NA 
BRANCH   8  10
HETATM   10  C   UNL     1      -7.934   9.218  70.016  1.00  0.00    -0.124 C  
HETATM   11  O   UNL     1      -5.623   7.198  68.212  1.00  0.00    -0.020 OA 
HETATM   12  C   UNL     1      -7.404   8.057  69.580  1.00  0.00    -0.086 C  
HETATM   13  C   UNL     1      -6.038   8.208  68.996  1.00  0.00    -0.039 C  
HETATM   14  O   UNL     1      -5.322   9.173  69.222  1.00  0.00    -0.035 OA 
BRANCH  12  15
HETATM   15  C   UNL     1      -8.049   6.701  69.691  1.00  0.00    -0.126 C  
BRANCH  15  16
HETATM   16  C   UNL     1      -8.999   6.306  68.590  1.00  0.00    -0.127 A  
HETATM   17  C   UNL     1      -9.929   5.716  66.533  1.00  0.00    -0.210 A  
HETATM   18  C   UNL     1      -8.742   5.853  67.309  1.00  0.00    -0.108 A  
HETATM   19  C   UNL     1     -11.058   6.002  67.264  1.00  0.00    -0.146 A  
HETATM   20  S   UNL     1     -10.689   6.427  68.877  1.00  0.00    -0.320 SA 
ENDBRANCH  15  16
ENDBRANCH  12  15
ENDBRANCH   8  10
BRANCH   9  21
HETATM   21  C   UNL     1     -10.139  11.097  69.025  1.00  0.00    -0.155 C  
BRANCH  21  22
HETATM   22  C   UNL     1      -9.641  10.619  67.675  1.00  0.00    -0.178 A  
HETATM   23  C   UNL     1      -8.460  11.119  67.109  1.00  0.00    -0.137 A  
HETATM   24  C   UNL     1      -7.920  10.562  65.947  1.00  0.00    -0.154 A  
HETATM   25  C   UNL     1     -10.366   9.677  66.931  1.00  0.00    -0.307 A  
HETATM   26  O   UNL     1      -8.105   7.485  64.188  1.00  0.00    -0.131 OA 
HETATM   27  C   UNL     1      -9.834   9.108  65.771  1.00  0.00    -0.248 A  
HETATM   28  C   UNL     1      -8.573   9.502  65.319  1.00  0.00    -0.175 A  
HETATM   29  O   UNL     1      -7.179   9.391  63.391  1.00  0.00    -0.099 OA 
HETATM   30  C   UNL     1      -7.898   8.821  64.191  1.00  0.00    -0.139 C  
ENDBRANCH  21  22
ENDBRANCH   9  21
ENDBRANCH   4   5
ENDBRANCH   3   4
ENDBRANCH   2   3
TORSDOF 8
ENDMDL
MODEL      134
REMARK 921   NORMALIZED FREE ENERGY PREDICTED BY IDOCK:   -4.41 KCAL/MOL
REMARK 922        TOTAL FREE ENERGY PREDICTED BY IDOCK:   -8.59 KCAL/MOL
REMARK 923 INTER-LIGAND FREE ENERGY PREDICTED BY IDOCK:   -7.37 KCAL/MOL
REMARK 924 INTRA-LIGAND FREE ENERGY PREDICTED BY IDOCK:   -1.22 KCAL/MOL
REMARK 927      BINDING AFFINITY PREDICTED BY RF-SCORE:    0.00 PKD
ROOT
HETATM    1  C   UNL     1      -6.675   9.848  69.781  1.00  0.00    -0.076 C  
HETATM    2  C   UNL     1      -6.152   9.055  68.590  1.00  0.00    -0.045 C  
ENDROOT
BRANCH   2   3
HETATM    3  C   UNL     1      -6.635   9.685  67.283  1.00  0.00    -0.070 C  
BRANCH   3   4
HETATM    4  C   UNL     1      -6.554  11.206  67.204  1.00  0.00    -0.098 C  
BRANCH   4   5
HETATM    5  C   UNL     1      -7.870  11.903  67.349  1.00  0.00    -0.158 A  
HETATM    6  N   UNL     1      -8.145  12.659  68.393  1.00  0.00    -0.155 NA 
HETATM    7  C   UNL     1      -9.379  13.180  68.172  1.00  0.00    -0.217 A  
HETATM    8  C   UNL     1      -9.897  12.736  66.978  1.00  0.00    -0.231 A  
HETATM    9  N   UNL     1      -8.947  11.857  66.467  1.00  0.00    -0.203 NA 
BRANCH   8  10
HETATM   10  C   UNL     1     -11.077  13.078  66.294  1.00  0.00    -0.314 C  
HETATM   11  O   UNL     1     -12.598  15.087  63.779  1.00  0.00    -0.776 OA 
HETATM   12  C   UNL     1     -11.178  14.145  65.475  1.00  0.00    -0.317 C  
HETATM   13  C   UNL     1     -12.534  14.305  64.870  1.00  0.00    -0.390 C  
HETATM   14  O   UNL     1     -13.535  13.780  65.336  1.00  0.00    -0.620 OA 
BRANCH  12  15
HETATM   15  C   UNL     1     -10.088  15.147  65.199  1.00  0.00    -0.331 C  
BRANCH  15  16
HETATM   16  C   UNL     1      -9.864  16.215  66.238  1.00  0.00    -0.307 A  
HETATM   17  C   UNL     1     -10.157  17.927  67.795  1.00  0.00    -0.350 A  
HETATM   18  C   UNL     1     -10.770  16.891  67.033  1.00  0.00    -0.153 A  
HETATM   19  C   UNL     1      -8.794  17.964  67.612  1.00  0.00    -0.250 A  
HETATM   20  S   UNL     1      -8.259  16.755  66.532  1.00  0.00    -0.316 SA 
ENDBRANCH  15  16
ENDBRANCH  12  15
ENDBRANCH   8  10
BRANCH   9  21
HETATM   21  C   UNL     1      -9.143  10.889  65.374  1.00  0.00    -0.198 C  
BRANCH  21  22
HETATM   22  C   UNL     1      -9.463   9.477  65.821  1.00  0.00    -0.314 A  
HETATM   23  C   UNL     1      -8.811   8.366  65.268  1.00  0.00    -0.113 A  
HETATM   24  C   UNL     1      -8.991   7.084  65.793  1.00  0.00    -0.037 A  
HETATM   25  C   UNL     1     -10.452   9.233  66.785  1.00  0.00    -0.263 A  
HETATM   26  O   UNL     1     -10.031   5.633  68.860  1.00  0.00    -0.142 OA 
HETATM   27  C   UNL     1     -10.637   7.955  67.322  1.00  0.00    -0.365 A  
HETATM   28  C   UNL     1      -9.851   6.892  66.873  1.00  0.00    -0.240 A  
HETATM   29  O   UNL     1      -9.759   4.512  66.912  1.00  0.00    -0.175 OA 
HETATM   30  C   UNL     1      -9.896   5.559  67.517  1.00  0.00    -0.144 C  
ENDBRANCH  21  22
ENDBRANCH   9  21
ENDBRANCH   4   5
ENDBRANCH   3   4
ENDBRANCH   2   3
TORSDOF 8
ENDMDL
MODEL      135
REMARK 921   NORMALIZED FREE ENERGY PREDICTED BY IDOCK:   -4.39 KCAL/MOL
REMARK 922        TOTAL FREE ENERGY PREDICTED BY IDOCK:   -8.55 KCAL/MOL
REMARK 923 INTER-LIGAND FREE ENERGY PREDICTED BY IDOCK:   -6.24 KCAL/MOL
REMARK 924 INTRA-LIGAND FREE ENERGY PREDICTED BY IDOCK:   -2.32 KCAL/MOL
REMARK 927      BINDING AFFINITY PREDICTED BY RF-SCORE:    0.00 PKD
ROOT
HETATM    1  C   UNL     1      -6.759  16.601  68.556  1.00  0.00    -0.148 C  
HETATM    2  C   UNL     1      -6.324  16.003  69.887  1.00  0.00    -0.134 C  
ENDROOT
BRANCH   2   3
HETATM    3  C   UNL     1      -6.730  14.530  69.963  1.00  0.00    -0.110 C  
BRANCH   3   4
HETATM    4  C   UNL     1      -5.679  13.523  69.511  1.00  0.00    -0.098 C  
BRANCH   4   5
HETATM    5  C   UNL     1      -6.113  12.094  69.600  1.00  0.00    -0.129 A  
HETATM    6  N   UNL     1      -5.940  11.382  70.696  1.00  0.00    -0.325 NA 
HETATM    7  C   UNL     1      -6.498  10.168  70.455  1.00  0.00    -0.131 A  
HETATM    8  C   UNL     1      -7.019  10.108  69.183  1.00  0.00    -0.062 A  
HETATM    9  N   UNL     1      -6.717  11.334  68.600  1.00  0.00    -0.066 NA 
BRANCH   8  10
HETATM   10  C   UNL     1      -7.769   9.111  68.534  1.00  0.00    -0.093 C  
HETATM   11  O   UNL     1     -10.995   7.931  67.596  1.00  0.00    -0.104 OA 
HETATM   12  C   UNL     1      -9.111   9.008  68.630  1.00  0.00    -0.137 C  
HETATM   13  C   UNL     1      -9.677   7.864  67.857  1.00  0.00    -0.155 C  
HETATM   14  O   UNL     1      -9.005   6.910  67.493  1.00  0.00    -0.118 OA 
BRANCH  12  15
HETATM   15  C   UNL     1     -10.001   9.893  69.462  1.00  0.00    -0.240 C  
BRANCH  15  16
HETATM   16  C   UNL     1     -10.766   9.234  70.580  1.00  0.00    -0.269 A  
HETATM   17  C   UNL     1     -12.430   8.574  72.075  1.00  0.00    -0.417 A  
HETATM   18  C   UNL     1     -12.125   9.194  70.829  1.00  0.00    -0.200 A  
HETATM   19  C   UNL     1     -11.303   8.099  72.704  1.00  0.00    -0.381 A  
HETATM   20  S   UNL     1      -9.888   8.395  71.796  1.00  0.00    -0.271 SA 
ENDBRANCH  15  16
ENDBRANCH  12  15
ENDBRANCH   8  10
BRANCH   9  21
HETATM   21  C   UNL     1      -6.782  11.667  67.168  1.00  0.00    -0.142 C  
BRANCH  21  22
HETATM   22  C   UNL     1      -8.147  12.105  66.674  1.00  0.00     0.016 A  
HETATM   23  C   UNL     1      -8.962  11.251  65.918  1.00  0.00    -0.206 A  
HETATM   24  C   UNL     1     -10.279  11.597  65.604  1.00  0.00    -0.284 A  
HETATM   25  C   UNL     1      -8.627  13.397  66.932  1.00  0.00    -0.114 A  
HETATM   26  O   UNL     1     -12.785  13.773  66.859  1.00  0.00    -0.118 OA 
HETATM   27  C   UNL     1      -9.944  13.752  66.629  1.00  0.00    -0.279 A  
HETATM   28  C   UNL     1     -10.793  12.821  66.027  1.00  0.00    -0.301 A  
HETATM   29  O   UNL     1     -12.874  12.687  64.874  1.00  0.00    -0.763 OA 
HETATM   30  C   UNL     1     -12.236  13.092  65.829  1.00  0.00    -0.456 C  
ENDBRANCH  21  22
ENDBRANCH   9  21
ENDBRANCH   4   5
ENDBRANCH   3   4
ENDBRANCH   2   3
TORSDOF 8
ENDMDL
MODEL      136
REMARK 921   NORMALIZED FREE ENERGY PREDICTED BY IDOCK:   -4.39 KCAL/MOL
REMARK 922        TOTAL FREE ENERGY PREDICTED BY IDOCK:   -8.55 KCAL/MOL
REMARK 923 INTER-LIGAND FREE ENERGY PREDICTED BY IDOCK:   -7.21 KCAL/MOL
REMARK 924 INTRA-LIGAND FREE ENERGY PREDICTED BY IDOCK:   -1.34 KCAL/MOL
REMARK 927      BINDING AFFINITY PREDICTED BY RF-SCORE:    0.00 PKD
ROOT
HETATM    1  C   UNL     1      -8.680   9.122  62.378  1.00  0.00    -0.226 C  
HETATM    2  C   UNL     1      -8.552  10.380  63.227  1.00  0.00    -0.190 C  
ENDROOT
BRANCH   2   3
HETATM    3  C   UNL     1      -9.702  11.342  62.924  1.00  0.00    -0.351 C  
BRANCH   3   4
HETATM    4  C   UNL     1     -10.937  11.207  63.810  1.00  0.00    -0.256 C  
BRANCH   4   5
HETATM    5  C   UNL     1     -11.208  12.395  64.678  1.00  0.00    -0.312 A  
HETATM    6  N   UNL     1     -12.096  13.310  64.346  1.00  0.00    -0.401 NA 
HETATM    7  C   UNL     1     -12.132  14.197  65.373  1.00  0.00    -0.410 A  
HETATM    8  C   UNL     1     -11.244  13.844  66.362  1.00  0.00    -0.315 A  
HETATM    9  N   UNL     1     -10.595  12.708  65.889  1.00  0.00    -0.268 NA 
BRANCH   8  10
HETATM   10  C   UNL     1     -11.008  14.391  67.636  1.00  0.00    -0.294 C  
HETATM   11  O   UNL     1     -10.670  17.334  69.611  1.00  0.00    -0.164 OA 
HETATM   12  C   UNL     1     -10.762  15.700  67.850  1.00  0.00    -0.294 C  
HETATM   13  C   UNL     1     -10.536  16.036  69.287  1.00  0.00    -0.265 C  
HETATM   14  O   UNL     1     -10.229  15.200  70.125  1.00  0.00    -0.202 OA 
BRANCH  12  15
HETATM   15  C   UNL     1     -10.656  16.759  66.785  1.00  0.00    -0.203 C  
BRANCH  15  16
HETATM   16  C   UNL     1      -9.296  17.368  66.560  1.00  0.00    -0.270 A  
HETATM   17  C   UNL     1      -7.544  18.844  66.125  1.00  0.00    -0.286 A  
HETATM   18  C   UNL     1      -8.914  18.694  66.484  1.00  0.00    -0.308 A  
HETATM   19  C   UNL     1      -6.906  17.631  66.007  1.00  0.00    -0.273 A  
HETATM   20  S   UNL     1      -7.952  16.321  66.332  1.00  0.00    -0.177 SA 
ENDBRANCH  15  16
ENDBRANCH  12  15
ENDBRANCH   8  10
BRANCH   9  21
HETATM   21  C   UNL     1      -9.356  12.117  66.421  1.00  0.00    -0.224 C  
BRANCH  21  22
HETATM   22  C   UNL     1      -9.456  10.652  66.797  1.00  0.00    -0.189 A  
HETATM   23  C   UNL     1      -8.388   9.767  66.593  1.00  0.00    -0.124 A  
HETATM   24  C   UNL     1      -8.425   8.460  67.086  1.00  0.00    -0.123 A  
HETATM   25  C   UNL     1     -10.639  10.125  67.335  1.00  0.00    -0.329 A  
HETATM   26  O   UNL     1     -10.140   6.666  69.622  1.00  0.00    -0.175 OA 
HETATM   27  C   UNL     1     -10.685   8.821  67.838  1.00  0.00    -0.171 A  
HETATM   28  C   UNL     1      -9.549   8.012  67.777  1.00  0.00    -0.179 A  
HETATM   29  O   UNL     1      -8.885   5.733  67.984  1.00  0.00    -0.110 OA 
HETATM   30  C   UNL     1      -9.497   6.685  68.433  1.00  0.00    -0.125 C  
ENDBRANCH  21  22
ENDBRANCH   9  21
ENDBRANCH   4   5
ENDBRANCH   3   4
ENDBRANCH   2   3
TORSDOF 8
ENDMDL
MODEL      137
REMARK 921   NORMALIZED FREE ENERGY PREDICTED BY IDOCK:   -4.38 KCAL/MOL
REMARK 922        TOTAL FREE ENERGY PREDICTED BY IDOCK:   -8.55 KCAL/MOL
REMARK 923 INTER-LIGAND FREE ENERGY PREDICTED BY IDOCK:   -6.88 KCAL/MOL
REMARK 924 INTRA-LIGAND FREE ENERGY PREDICTED BY IDOCK:   -1.66 KCAL/MOL
REMARK 927      BINDING AFFINITY PREDICTED BY RF-SCORE:    0.00 PKD
ROOT
HETATM    1  C   UNL     1     -12.017  14.650  66.586  1.00  0.00    -0.293 C  
HETATM    2  C   UNL     1     -12.461  13.657  65.520  1.00  0.00    -0.544 C  
ENDROOT
BRANCH   2   3
HETATM    3  C   UNL     1     -11.243  13.007  64.863  1.00  0.00    -0.329 C  
BRANCH   3   4
HETATM    4  C   UNL     1     -11.020  11.532  65.180  1.00  0.00    -0.298 C  
BRANCH   4   5
HETATM    5  C   UNL     1     -10.730  11.246  66.620  1.00  0.00    -0.272 A  
HETATM    6  N   UNL     1     -11.693  11.096  67.507  1.00  0.00    -0.578 NA 
HETATM    7  C   UNL     1     -11.086  10.789  68.681  1.00  0.00    -0.259 A  
HETATM    8  C   UNL     1      -9.719  10.757  68.538  1.00  0.00    -0.182 A  
HETATM    9  N   UNL     1      -9.477  11.113  67.215  1.00  0.00    -0.164 NA 
BRANCH   8  10
HETATM   10  C   UNL     1      -8.700  10.390  69.435  1.00  0.00    -0.138 C  
HETATM   11  O   UNL     1      -6.997   7.749  71.109  1.00  0.00    -0.048 OA 
HETATM   12  C   UNL     1      -8.566   9.148  69.943  1.00  0.00    -0.155 C  
HETATM   13  C   UNL     1      -7.412   9.007  70.879  1.00  0.00    -0.116 C  
HETATM   14  O   UNL     1      -6.880   9.963  71.425  1.00  0.00    -0.310 OA 
BRANCH  12  15
HETATM   15  C   UNL     1      -9.488   7.987  69.675  1.00  0.00    -0.163 C  
BRANCH  15  16
HETATM   16  C   UNL     1     -10.600   7.757  70.666  1.00  0.00    -0.222 A  
HETATM   17  C   UNL     1     -12.138   7.984  72.404  1.00  0.00    -0.374 A  
HETATM   18  C   UNL     1     -11.216   8.637  71.536  1.00  0.00    -0.360 A  
HETATM   19  C   UNL     1     -12.249   6.642  72.125  1.00  0.00    -0.228 A  
HETATM   20  S   UNL     1     -11.251   6.174  70.821  1.00  0.00    -0.278 SA 
ENDBRANCH  15  16
ENDBRANCH  12  15
ENDBRANCH   8  10
BRANCH   9  21
HETATM   21  C   UNL     1      -8.186  11.520  66.636  1.00  0.00    -0.156 C  
BRANCH  21  22
HETATM   22  C   UNL     1      -7.677  12.872  67.095  1.00  0.00    -0.058 A  
HETATM   23  C   UNL     1      -8.463  14.028  66.988  1.00  0.00    -0.168 A  
HETATM   24  C   UNL     1      -8.056  15.237  67.559  1.00  0.00    -0.192 A  
HETATM   25  C   UNL     1      -6.383  13.016  67.617  1.00  0.00    -0.162 A  
HETATM   26  O   UNL     1      -5.857  16.311  70.128  1.00  0.00    -0.191 OA 
HETATM   27  C   UNL     1      -5.967  14.219  68.196  1.00  0.00    -0.135 A  
HETATM   28  C   UNL     1      -6.837  15.310  68.229  1.00  0.00    -0.122 A  
HETATM   29  O   UNL     1      -6.840  17.664  68.601  1.00  0.00    -0.209 OA 
HETATM   30  C   UNL     1      -6.505  16.551  68.967  1.00  0.00    -0.182 C  
ENDBRANCH  21  22
ENDBRANCH   9  21
ENDBRANCH   4   5
ENDBRANCH   3   4
ENDBRANCH   2   3
TORSDOF 8
ENDMDL
MODEL      138
REMARK 921   NORMALIZED FREE ENERGY PREDICTED BY IDOCK:   -4.36 KCAL/MOL
REMARK 922        TOTAL FREE ENERGY PREDICTED BY IDOCK:   -8.52 KCAL/MOL
REMARK 923 INTER-LIGAND FREE ENERGY PREDICTED BY IDOCK:   -6.23 KCAL/MOL
REMARK 924 INTRA-LIGAND FREE ENERGY PREDICTED BY IDOCK:   -2.29 KCAL/MOL
REMARK 927      BINDING AFFINITY PREDICTED BY RF-SCORE:    0.00 PKD
ROOT
HETATM    1  C   UNL     1      -7.327   5.841  71.786  1.00  0.00    -0.093 C  
HETATM    2  C   UNL     1      -7.706   7.265  72.169  1.00  0.00    -0.090 C  
ENDROOT
BRANCH   2   3
HETATM    3  C   UNL     1      -7.556   8.195  70.964  1.00  0.00    -0.083 C  
BRANCH   3   4
HETATM    4  C   UNL     1      -8.695   9.184  70.737  1.00  0.00    -0.285 C  
BRANCH   4   5
HETATM    5  C   UNL     1      -8.606   9.945  69.452  1.00  0.00    -0.174 A  
HETATM    6  N   UNL     1      -7.900  11.053  69.348  1.00  0.00    -0.055 NA 
HETATM    7  C   UNL     1      -7.986  11.439  68.049  1.00  0.00    -0.127 A  
HETATM    8  C   UNL     1      -8.768  10.569  67.325  1.00  0.00    -0.126 A  
HETATM    9  N   UNL     1      -9.225   9.630  68.244  1.00  0.00    -0.129 NA 
BRANCH   8  10
HETATM   10  C   UNL     1      -9.055  10.504  65.950  1.00  0.00    -0.192 C  
HETATM   11  O   UNL     1     -11.006  11.737  63.240  1.00  0.00    -0.367 OA 
HETATM   12  C   UNL     1     -10.124  11.099  65.383  1.00  0.00    -0.317 C  
HETATM   13  C   UNL     1     -10.216  10.880  63.910  1.00  0.00    -0.354 C  
HETATM   14  O   UNL     1      -9.633   9.971  63.336  1.00  0.00    -0.262 OA 
BRANCH  12  15
HETATM   15  C   UNL     1     -11.186  11.877  66.115  1.00  0.00    -0.387 C  
BRANCH  15  16
HETATM   16  C   UNL     1     -10.918  13.340  66.353  1.00  0.00    -0.289 A  
HETATM   17  C   UNL     1      -9.997  15.483  66.340  1.00  0.00    -0.300 A  
HETATM   18  C   UNL     1     -10.041  14.201  65.721  1.00  0.00    -0.352 A  
HETATM   19  C   UNL     1     -10.891  15.584  67.381  1.00  0.00    -0.312 A  
HETATM   20  S   UNL     1     -11.779  14.143  67.605  1.00  0.00    -0.401 SA 
ENDBRANCH  15  16
ENDBRANCH  12  15
ENDBRANCH   8  10
BRANCH   9  21
HETATM   21  C   UNL     1     -10.326   8.672  68.049  1.00  0.00    -0.223 C  
BRANCH  21  22
HETATM   22  C   UNL     1      -9.937   7.214  68.188  1.00  0.00    -0.172 A  
HETATM   23  C   UNL     1      -8.718   6.728  67.695  1.00  0.00    -0.119 A  
HETATM   24  C   UNL     1      -8.293   5.426  67.967  1.00  0.00    -0.098 A  
HETATM   25  C   UNL     1     -10.804   6.291  68.791  1.00  0.00    -0.398 A  
HETATM   26  O   UNL     1      -8.940   2.911  70.386  1.00  0.00    -0.079 OA 
HETATM   27  C   UNL     1     -10.388   4.987  69.074  1.00  0.00    -0.155 A  
HETATM   28  C   UNL     1      -9.100   4.578  68.723  1.00  0.00    -0.166 A  
HETATM   29  O   UNL     1      -7.792   2.604  68.459  1.00  0.00    -0.054 OA 
HETATM   30  C   UNL     1      -8.556   3.264  69.139  1.00  0.00    -0.071 C  
ENDBRANCH  21  22
ENDBRANCH   9  21
ENDBRANCH   4   5
ENDBRANCH   3   4
ENDBRANCH   2   3
TORSDOF 8
ENDMDL
MODEL      139
REMARK 921   NORMALIZED FREE ENERGY PREDICTED BY IDOCK:   -4.31 KCAL/MOL
REMARK 922        TOTAL FREE ENERGY PREDICTED BY IDOCK:   -8.44 KCAL/MOL
REMARK 923 INTER-LIGAND FREE ENERGY PREDICTED BY IDOCK:   -6.38 KCAL/MOL
REMARK 924 INTRA-LIGAND FREE ENERGY PREDICTED BY IDOCK:   -2.06 KCAL/MOL
REMARK 927      BINDING AFFINITY PREDICTED BY RF-SCORE:    0.00 PKD
ROOT
HETATM    1  C   UNL     1      -9.838  11.256  63.019  1.00  0.00    -0.370 C  
HETATM    2  C   UNL     1     -11.000  11.732  63.880  1.00  0.00    -0.476 C  
ENDROOT
BRANCH   2   3
HETATM    3  C   UNL     1     -10.881  11.157  65.293  1.00  0.00    -0.222 C  
BRANCH   3   4
HETATM    4  C   UNL     1      -9.821  10.078  65.488  1.00  0.00    -0.373 C  
BRANCH   4   5
HETATM    5  C   UNL     1      -8.579  10.549  66.177  1.00  0.00    -0.150 A  
HETATM    6  N   UNL     1      -7.390  10.440  65.618  1.00  0.00    -0.148 NA 
HETATM    7  C   UNL     1      -6.511  11.016  66.477  1.00  0.00    -0.132 A  
HETATM    8  C   UNL     1      -7.151  11.483  67.600  1.00  0.00    -0.098 A  
HETATM    9  N   UNL     1      -8.487  11.129  67.440  1.00  0.00    -0.132 NA 
BRANCH   8  10
HETATM   10  C   UNL     1      -6.678  12.229  68.695  1.00  0.00    -0.083 C  
HETATM   11  O   UNL     1      -6.473  15.410  70.281  1.00  0.00    -0.106 OA 
HETATM   12  C   UNL     1      -6.700  13.577  68.742  1.00  0.00    -0.105 C  
HETATM   13  C   UNL     1      -6.137  14.138  70.006  1.00  0.00    -0.149 C  
HETATM   14  O   UNL     1      -5.399  13.501  70.744  1.00  0.00    -0.116 OA 
BRANCH  12  15
HETATM   15  C   UNL     1      -7.180  14.486  67.642  1.00  0.00    -0.206 C  
BRANCH  15  16
HETATM   16  C   UNL     1      -8.671  14.595  67.449  1.00  0.00    -0.197 A  
HETATM   17  C   UNL     1     -10.810  14.720  66.529  1.00  0.00    -0.319 A  
HETATM   18  C   UNL     1      -9.443  14.374  66.324  1.00  0.00    -0.297 A  
HETATM   19  C   UNL     1     -11.052  15.128  67.820  1.00  0.00    -0.313 A  
HETATM   20  S   UNL     1      -9.640  15.088  68.780  1.00  0.00    -0.226 SA 
ENDBRANCH  15  16
ENDBRANCH  12  15
ENDBRANCH   8  10
BRANCH   9  21
HETATM   21  C   UNL     1      -9.527  11.126  68.482  1.00  0.00    -0.193 C  
BRANCH  21  22
HETATM   22  C   UNL     1      -9.616   9.848  69.293  1.00  0.00    -0.215 A  
HETATM   23  C   UNL     1      -8.719   9.576  70.336  1.00  0.00    -0.265 A  
HETATM   24  C   UNL     1      -8.902   8.480  71.183  1.00  0.00    -0.223 A  
HETATM   25  C   UNL     1     -10.584   8.876  69.004  1.00  0.00    -0.203 A  
HETATM   26  O   UNL     1     -11.570   6.372  72.197  1.00  0.00    -0.286 OA 
HETATM   27  C   UNL     1     -10.781   7.779  69.847  1.00  0.00    -0.245 A  
HETATM   28  C   UNL     1      -9.981   7.622  70.981  1.00  0.00    -0.188 A  
HETATM   29  O   UNL     1      -9.376   5.991  72.609  1.00  0.00    -0.147 OA 
HETATM   30  C   UNL     1     -10.249   6.569  71.988  1.00  0.00    -0.193 C  
ENDBRANCH  21  22
ENDBRANCH   9  21
ENDBRANCH   4   5
ENDBRANCH   3   4
ENDBRANCH   2   3
TORSDOF 8
ENDMDL
MODEL      140
REMARK 921   NORMALIZED FREE ENERGY PREDICTED BY IDOCK:   -4.30 KCAL/MOL
REMARK 922        TOTAL FREE ENERGY PREDICTED BY IDOCK:   -8.42 KCAL/MOL
REMARK 923 INTER-LIGAND FREE ENERGY PREDICTED BY IDOCK:   -6.61 KCAL/MOL
REMARK 924 INTRA-LIGAND FREE ENERGY PREDICTED BY IDOCK:   -1.82 KCAL/MOL
REMARK 927      BINDING AFFINITY PREDICTED BY RF-SCORE:    0.00 PKD
ROOT
HETATM    1  C   UNL     1     -10.415   3.613  63.702  1.00  0.00    -0.262 C  
HETATM    2  C   UNL     1      -8.900   3.697  63.574  1.00  0.00    -0.097 C  
ENDROOT
BRANCH   2   3
HETATM    3  C   UNL     1      -8.317   4.520  64.725  1.00  0.00    -0.116 C  
BRANCH   3   4
HETATM    4  C   UNL     1      -9.113   5.756  65.132  1.00  0.00     0.126 C  
BRANCH   4   5
HETATM    5  C   UNL     1      -9.407   5.847  66.596  1.00  0.00    -0.145 A  
HETATM    6  N   UNL     1     -10.354   5.126  67.162  1.00  0.00    -0.208 NA 
HETATM    7  C   UNL     1     -10.305   5.406  68.489  1.00  0.00    -0.149 A  
HETATM    8  C   UNL     1      -9.322   6.327  68.765  1.00  0.00    -0.124 A  
HETATM    9  N   UNL     1      -8.774   6.665  67.531  1.00  0.00    -0.119 NA 
BRANCH   8  10
HETATM   10  C   UNL     1      -8.841   6.834  69.985  1.00  0.00    -0.142 C  
HETATM   11  O   UNL     1      -9.465   8.895  72.820  1.00  0.00    -0.192 OA 
HETATM   12  C   UNL     1      -9.440   7.835  70.663  1.00  0.00    -0.162 C  
HETATM   13  C   UNL     1      -8.737   8.201  71.928  1.00  0.00    -0.154 C  
HETATM   14  O   UNL     1      -7.569   7.914  72.145  1.00  0.00    -0.077 OA 
BRANCH  12  15
HETATM   15  C   UNL     1     -10.666   8.586  70.217  1.00  0.00    -0.242 C  
BRANCH  15  16
HETATM   16  C   UNL     1     -11.973   8.204  70.861  1.00  0.00    -0.183 A  
HETATM   17  C   UNL     1     -13.844   7.033  71.615  1.00  0.00    -0.357 A  
HETATM   18  C   UNL     1     -12.517   6.956  71.103  1.00  0.00    -0.398 A  
HETATM   19  C   UNL     1     -14.246   8.333  71.814  1.00  0.00    -0.464 A  
HETATM   20  S   UNL     1     -13.029   9.453  71.389  1.00  0.00    -0.334 SA 
ENDBRANCH  15  16
ENDBRANCH  12  15
ENDBRANCH   8  10
BRANCH   9  21
HETATM   21  C   UNL     1      -7.907   7.818  67.240  1.00  0.00    -0.117 C  
BRANCH  21  22
HETATM   22  C   UNL     1      -8.628   9.046  66.721  1.00  0.00    -0.129 A  
HETATM   23  C   UNL     1      -8.765   9.292  65.348  1.00  0.00    -0.208 A  
HETATM   24  C   UNL     1      -9.566  10.334  64.874  1.00  0.00    -0.365 A  
HETATM   25  C   UNL     1      -9.157   9.998  67.605  1.00  0.00    -0.142 A  
HETATM   26  O   UNL     1     -12.283  12.291  66.051  1.00  0.00    -0.646 OA 
HETATM   27  C   UNL     1      -9.965  11.041  67.143  1.00  0.00    -0.218 A  
HETATM   28  C   UNL     1     -10.228  11.164  65.777  1.00  0.00    -0.310 A  
HETATM   29  O   UNL     1     -11.072  12.725  64.187  1.00  0.00    -0.342 OA 
HETATM   30  C   UNL     1     -11.200  12.151  65.254  1.00  0.00    -0.332 C  
ENDBRANCH  21  22
ENDBRANCH   9  21
ENDBRANCH   4   5
ENDBRANCH   3   4
ENDBRANCH   2   3
TORSDOF 8
ENDMDL
MODEL      141
REMARK 921   NORMALIZED FREE ENERGY PREDICTED BY IDOCK:   -4.29 KCAL/MOL
REMARK 922        TOTAL FREE ENERGY PREDICTED BY IDOCK:   -8.41 KCAL/MOL
REMARK 923 INTER-LIGAND FREE ENERGY PREDICTED BY IDOCK:   -6.57 KCAL/MOL
REMARK 924 INTRA-LIGAND FREE ENERGY PREDICTED BY IDOCK:   -1.84 KCAL/MOL
REMARK 927      BINDING AFFINITY PREDICTED BY RF-SCORE:    0.00 PKD
ROOT
HETATM    1  C   UNL     1     -11.180   9.847  70.935  1.00  0.00    -0.433 C  
HETATM    2  C   UNL     1     -10.388  10.162  69.672  1.00  0.00    -0.278 C  
ENDROOT
BRANCH   2   3
HETATM    3  C   UNL     1     -10.572   9.048  68.641  1.00  0.00    -0.194 C  
BRANCH   3   4
HETATM    4  C   UNL     1     -10.247   9.415  67.196  1.00  0.00    -0.319 C  
BRANCH   4   5
HETATM    5  C   UNL     1     -10.559  10.832  66.833  1.00  0.00    -0.258 A  
HETATM    6  N   UNL     1     -11.795  11.245  66.638  1.00  0.00    -0.176 NA 
HETATM    7  C   UNL     1     -11.718  12.578  66.392  1.00  0.00    -0.397 A  
HETATM    8  C   UNL     1     -10.413  13.011  66.418  1.00  0.00    -0.276 A  
HETATM    9  N   UNL     1      -9.649  11.871  66.644  1.00  0.00    -0.204 NA 
BRANCH   8  10
HETATM   10  C   UNL     1      -9.862  14.301  66.324  1.00  0.00    -0.323 C  
HETATM   11  O   UNL     1      -9.961  17.684  67.430  1.00  0.00    -0.299 OA 
HETATM   12  C   UNL     1     -10.437  15.397  66.860  1.00  0.00    -0.295 C  
HETATM   13  C   UNL     1      -9.665  16.652  66.620  1.00  0.00    -0.266 C  
HETATM   14  O   UNL     1      -8.828  16.758  65.735  1.00  0.00    -0.505 OA 
BRANCH  12  15
HETATM   15  C   UNL     1     -11.753  15.429  67.592  1.00  0.00    -0.122 C  
BRANCH  15  16
HETATM   16  C   UNL     1     -11.758  14.917  69.009  1.00  0.00    -0.319 A  
HETATM   17  C   UNL     1     -12.246  13.758  70.973  1.00  0.00    -0.401 A  
HETATM   18  C   UNL     1     -12.386  13.814  69.556  1.00  0.00    -0.258 A  
HETATM   19  C   UNL     1     -11.458  14.777  71.454  1.00  0.00    -0.175 A  
HETATM   20  S   UNL     1     -10.889  15.793  70.205  1.00  0.00    -0.361 SA 
ENDBRANCH  15  16
ENDBRANCH  12  15
ENDBRANCH   8  10
BRANCH   9  21
HETATM   21  C   UNL     1      -8.194  11.737  66.460  1.00  0.00    -0.066 C  
BRANCH  21  22
HETATM   22  C   UNL     1      -7.408  11.503  67.735  1.00  0.00    -0.096 A  
HETATM   23  C   UNL     1      -7.202  12.528  68.669  1.00  0.00    -0.103 A  
HETATM   24  C   UNL     1      -6.619  12.270  69.912  1.00  0.00     0.094 A  
HETATM   25  C   UNL     1      -6.831  10.255  68.007  1.00  0.00    -0.070 A  
HETATM   26  O   UNL     1      -6.147   9.480  72.054  1.00  0.00    -0.275 OA 
HETATM   27  C   UNL     1      -6.251   9.983  69.250  1.00  0.00    -0.044 A  
HETATM   28  C   UNL     1      -6.211  10.976  70.230  1.00  0.00    -0.139 A  
HETATM   29  O   UNL     1      -5.146  11.497  72.297  1.00  0.00    -0.334 OA 
HETATM   30  C   UNL     1      -5.753  10.695  71.611  1.00  0.00     0.322 C  
ENDBRANCH  21  22
ENDBRANCH   9  21
ENDBRANCH   4   5
ENDBRANCH   3   4
ENDBRANCH   2   3
TORSDOF 8
ENDMDL
MODEL      142
REMARK 921   NORMALIZED FREE ENERGY PREDICTED BY IDOCK:   -4.29 KCAL/MOL
REMARK 922        TOTAL FREE ENERGY PREDICTED BY IDOCK:   -8.40 KCAL/MOL
REMARK 923 INTER-LIGAND FREE ENERGY PREDICTED BY IDOCK:   -6.83 KCAL/MOL
REMARK 924 INTRA-LIGAND FREE ENERGY PREDICTED BY IDOCK:   -1.57 KCAL/MOL
REMARK 927      BINDING AFFINITY PREDICTED BY RF-SCORE:    0.00 PKD
ROOT
HETATM    1  C   UNL     1      -6.801  17.391  68.054  1.00  0.00    -0.182 C  
HETATM    2  C   UNL     1      -5.899  16.183  67.836  1.00  0.00    -0.145 C  
ENDROOT
BRANCH   2   3
HETATM    3  C   UNL     1      -6.558  14.922  68.398  1.00  0.00    -0.103 C  
BRANCH   3   4
HETATM    4  C   UNL     1      -7.204  13.993  67.375  1.00  0.00    -0.117 C  
BRANCH   4   5
HETATM    5  C   UNL     1      -7.493  12.617  67.885  1.00  0.00    -0.124 A  
HETATM    6  N   UNL     1      -6.757  11.579  67.541  1.00  0.00    -0.079 NA 
HETATM    7  C   UNL     1      -7.253  10.517  68.226  1.00  0.00    -0.083 A  
HETATM    8  C   UNL     1      -8.326  10.886  69.003  1.00  0.00    -0.114 A  
HETATM    9  N   UNL     1      -8.527  12.237  68.739  1.00  0.00     0.032 NA 
BRANCH   8  10
HETATM   10  C   UNL     1      -9.083  10.164  69.944  1.00  0.00    -0.110 C  
HETATM   11  O   UNL     1     -11.404   7.529  70.526  1.00  0.00    -0.275 OA 
HETATM   12  C   UNL     1     -10.056   9.294  69.606  1.00  0.00    -0.208 C  
HETATM   13  C   UNL     1     -10.720   8.657  70.781  1.00  0.00    -0.216 C  
HETATM   14  O   UNL     1     -10.671   9.130  71.908  1.00  0.00    -0.357 OA 
BRANCH  12  15
HETATM   15  C   UNL     1     -10.513   8.989  68.204  1.00  0.00    -0.257 C  
BRANCH  15  16
HETATM   16  C   UNL     1     -10.195   7.619  67.665  1.00  0.00    -0.214 A  
HETATM   17  C   UNL     1     -10.345   5.464  66.786  1.00  0.00    -0.321 A  
HETATM   18  C   UNL     1     -11.004   6.707  67.013  1.00  0.00    -0.463 A  
HETATM   19  C   UNL     1      -9.036   5.489  67.206  1.00  0.00    -0.111 A  
HETATM   20  S   UNL     1      -8.603   7.003  67.867  1.00  0.00    -0.126 SA 
ENDBRANCH  15  16
ENDBRANCH  12  15
ENDBRANCH   8  10
BRANCH   9  21
HETATM   21  C   UNL     1      -9.720  13.031  69.076  1.00  0.00     0.342 C  
BRANCH  21  22
HETATM   22  C   UNL     1     -10.577  13.432  67.892  1.00  0.00    -0.253 A  
HETATM   23  C   UNL     1     -10.515  14.721  67.345  1.00  0.00    -0.256 A  
HETATM   24  C   UNL     1     -11.183  15.038  66.159  1.00  0.00    -0.307 A  
HETATM   25  C   UNL     1     -11.487  12.531  67.323  1.00  0.00    -0.416 A  
HETATM   26  O   UNL     1     -12.477  13.311  63.341  1.00  0.00    -0.741 OA 
HETATM   27  C   UNL     1     -12.156  12.833  66.133  1.00  0.00    -0.429 A  
HETATM   28  C   UNL     1     -11.945  14.066  65.512  1.00  0.00    -0.393 A  
HETATM   29  O   UNL     1     -12.882  15.482  63.841  1.00  0.00    -0.605 OA 
HETATM   30  C   UNL     1     -12.503  14.374  64.175  1.00  0.00    -0.199 C  
ENDBRANCH  21  22
ENDBRANCH   9  21
ENDBRANCH   4   5
ENDBRANCH   3   4
ENDBRANCH   2   3
TORSDOF 8
ENDMDL
MODEL      143
REMARK 921   NORMALIZED FREE ENERGY PREDICTED BY IDOCK:   -4.28 KCAL/MOL
REMARK 922        TOTAL FREE ENERGY PREDICTED BY IDOCK:   -8.40 KCAL/MOL
REMARK 923 INTER-LIGAND FREE ENERGY PREDICTED BY IDOCK:   -6.65 KCAL/MOL
REMARK 924 INTRA-LIGAND FREE ENERGY PREDICTED BY IDOCK:   -1.76 KCAL/MOL
REMARK 927      BINDING AFFINITY PREDICTED BY RF-SCORE:    0.00 PKD
ROOT
HETATM    1  C   UNL     1      -5.762  14.402  71.083  1.00  0.00    -0.181 C  
HETATM    2  C   UNL     1      -5.528  13.382  69.976  1.00  0.00    -0.105 C  
ENDROOT
BRANCH   2   3
HETATM    3  C   UNL     1      -6.168  13.860  68.673  1.00  0.00    -0.089 C  
BRANCH   3   4
HETATM    4  C   UNL     1      -6.339  12.804  67.586  1.00  0.00    -0.153 C  
BRANCH   4   5
HETATM    5  C   UNL     1      -6.896  11.502  68.070  1.00  0.00    -0.064 A  
HETATM    6  N   UNL     1      -6.229  10.372  67.948  1.00  0.00    -0.058 NA 
HETATM    7  C   UNL     1      -6.988   9.415  68.541  1.00  0.00    -0.066 A  
HETATM    8  C   UNL     1      -8.157   9.946  69.034  1.00  0.00    -0.111 A  
HETATM    9  N   UNL     1      -8.132  11.291  68.677  1.00  0.00    -0.143 NA 
BRANCH   8  10
HETATM   10  C   UNL     1      -9.185   9.372  69.803  1.00  0.00    -0.209 C  
HETATM   11  O   UNL     1     -11.722   6.884  70.022  1.00  0.00    -0.286 OA 
HETATM   12  C   UNL     1     -10.073   8.483  69.312  1.00  0.00    -0.203 C  
HETATM   13  C   UNL     1     -11.073   8.023  70.320  1.00  0.00    -0.224 C  
HETATM   14  O   UNL     1     -11.314   8.642  71.347  1.00  0.00    -0.253 OA 
BRANCH  12  15
HETATM   15  C   UNL     1     -10.138   8.002  67.887  1.00  0.00    -0.243 C  
BRANCH  15  16
HETATM   16  C   UNL     1      -9.512   6.664  67.589  1.00  0.00    -0.124 A  
HETATM   17  C   UNL     1      -8.008   4.903  67.311  1.00  0.00    -0.095 A  
HETATM   18  C   UNL     1      -8.254   6.180  67.893  1.00  0.00    -0.117 A  
HETATM   19  C   UNL     1      -9.109   4.422  66.640  1.00  0.00    -0.127 A  
HETATM   20  S   UNL     1     -10.429   5.502  66.716  1.00  0.00    -0.294 SA 
ENDBRANCH  15  16
ENDBRANCH  12  15
ENDBRANCH   8  10
BRANCH   9  21
HETATM   21  C   UNL     1      -9.269  12.227  68.697  1.00  0.00     0.001 C  
BRANCH  21  22
HETATM   22  C   UNL     1      -9.946  12.438  67.358  1.00  0.00    -0.203 A  
HETATM   23  C   UNL     1     -10.858  11.507  66.841  1.00  0.00    -0.331 A  
HETATM   24  C   UNL     1     -11.600  11.781  65.689  1.00  0.00    -0.190 A  
HETATM   25  C   UNL     1      -9.657  13.564  66.573  1.00  0.00    -0.284 A  
HETATM   26  O   UNL     1     -12.656  14.641  63.874  1.00  0.00    -0.834 OA 
HETATM   27  C   UNL     1     -10.397  13.852  65.423  1.00  0.00    -0.364 A  
HETATM   28  C   UNL     1     -11.421  12.991  65.022  1.00  0.00    -0.345 A  
HETATM   29  O   UNL     1     -12.799  12.504  63.141  1.00  0.00    -0.599 OA 
HETATM   30  C   UNL     1     -12.334  13.329  63.906  1.00  0.00    -0.351 C  
ENDBRANCH  21  22
ENDBRANCH   9  21
ENDBRANCH   4   5
ENDBRANCH   3   4
ENDBRANCH   2   3
TORSDOF 8
ENDMDL
MODEL      144
REMARK 921   NORMALIZED FREE ENERGY PREDICTED BY IDOCK:   -4.28 KCAL/MOL
REMARK 922        TOTAL FREE ENERGY PREDICTED BY IDOCK:   -8.39 KCAL/MOL
REMARK 923 INTER-LIGAND FREE ENERGY PREDICTED BY IDOCK:   -8.25 KCAL/MOL
REMARK 924 INTRA-LIGAND FREE ENERGY PREDICTED BY IDOCK:   -0.15 KCAL/MOL
REMARK 927      BINDING AFFINITY PREDICTED BY RF-SCORE:    0.00 PKD
ROOT
HETATM    1  C   UNL     1     -10.363  12.043  63.665  1.00  0.00    -0.482 C  
HETATM    2  C   UNL     1     -10.407  12.340  65.158  1.00  0.00    -0.316 C  
ENDROOT
BRANCH   2   3
HETATM    3  C   UNL     1      -9.564  11.321  65.925  1.00  0.00    -0.249 C  
BRANCH   3   4
HETATM    4  C   UNL     1      -8.943  11.813  67.229  1.00  0.00    -0.172 C  
BRANCH   4   5
HETATM    5  C   UNL     1      -8.974  10.816  68.344  1.00  0.00    -0.153 A  
HETATM    6  N   UNL     1      -7.911  10.112  68.678  1.00  0.00    -0.093 NA 
HETATM    7  C   UNL     1      -8.270   9.366  69.753  1.00  0.00    -0.143 A  
HETATM    8  C   UNL     1      -9.583   9.590  70.095  1.00  0.00    -0.248 A  
HETATM    9  N   UNL     1     -10.065  10.486  69.145  1.00  0.00    -0.215 NA 
BRANCH   8  10
HETATM   10  C   UNL     1     -10.352   9.131  71.180  1.00  0.00    -0.387 C  
HETATM   11  O   UNL     1     -10.526   7.013  74.036  1.00  0.00    -0.366 OA 
HETATM   12  C   UNL     1     -10.004   8.075  71.944  1.00  0.00    -0.255 C  
HETATM   13  C   UNL     1     -10.984   7.777  73.029  1.00  0.00    -0.381 C  
HETATM   14  O   UNL     1     -12.139   8.177  73.009  1.00  0.00    -0.242 OA 
BRANCH  12  15
HETATM   15  C   UNL     1      -8.790   7.207  71.741  1.00  0.00    -0.129 C  
BRANCH  15  16
HETATM   16  C   UNL     1      -7.480   7.733  72.268  1.00  0.00    -0.083 A  
HETATM   17  C   UNL     1      -5.836   8.789  73.542  1.00  0.00    -0.107 A  
HETATM   18  C   UNL     1      -7.172   8.296  73.492  1.00  0.00    -0.162 A  
HETATM   19  C   UNL     1      -5.145   8.525  72.382  1.00  0.00    -0.039 A  
HETATM   20  S   UNL     1      -6.101   7.685  71.243  1.00  0.00    -0.035 SA 
ENDBRANCH  15  16
ENDBRANCH  12  15
ENDBRANCH   8  10
BRANCH   9  21
HETATM   21  C   UNL     1     -11.476  10.811  68.880  1.00  0.00    -0.293 C  
BRANCH  21  22
HETATM   22  C   UNL     1     -12.008  12.014  69.634  1.00  0.00    -0.360 A  
HETATM   23  C   UNL     1     -12.633  11.881  70.881  1.00  0.00    -0.361 A  
HETATM   24  C   UNL     1     -12.974  13.001  71.644  1.00  0.00    -0.417 A  
HETATM   25  C   UNL     1     -11.919  13.303  69.089  1.00  0.00    -0.343 A  
HETATM   26  O   UNL     1     -11.992  16.402  71.888  1.00  0.00    -0.472 OA 
HETATM   27  C   UNL     1     -12.252  14.431  69.845  1.00  0.00    -0.394 A  
HETATM   28  C   UNL     1     -12.713  14.279  71.154  1.00  0.00    -0.430 A  
HETATM   29  O   UNL     1     -13.813  15.495  72.882  1.00  0.00    -0.518 OA 
HETATM   30  C   UNL     1     -12.928  15.441  72.047  1.00  0.00    -0.401 C  
ENDBRANCH  21  22
ENDBRANCH   9  21
ENDBRANCH   4   5
ENDBRANCH   3   4
ENDBRANCH   2   3
TORSDOF 8
ENDMDL
MODEL      145
REMARK 921   NORMALIZED FREE ENERGY PREDICTED BY IDOCK:   -4.27 KCAL/MOL
REMARK 922        TOTAL FREE ENERGY PREDICTED BY IDOCK:   -8.38 KCAL/MOL
REMARK 923 INTER-LIGAND FREE ENERGY PREDICTED BY IDOCK:   -6.48 KCAL/MOL
REMARK 924 INTRA-LIGAND FREE ENERGY PREDICTED BY IDOCK:   -1.90 KCAL/MOL
REMARK 927      BINDING AFFINITY PREDICTED BY RF-SCORE:    0.00 PKD
ROOT
HETATM    1  C   UNL     1      -7.783  10.387  62.669  1.00  0.00    -0.157 C  
HETATM    2  C   UNL     1      -9.098  10.855  63.279  1.00  0.00    -0.252 C  
ENDROOT
BRANCH   2   3
HETATM    3  C   UNL     1      -9.020  10.808  64.805  1.00  0.00    -0.194 C  
BRANCH   3   4
HETATM    4  C   UNL     1     -10.186  10.127  65.514  1.00  0.00    -0.288 C  
BRANCH   4   5
HETATM    5  C   UNL     1     -10.180  10.280  67.002  1.00  0.00    -0.228 A  
HETATM    6  N   UNL     1     -11.074  11.018  67.629  1.00  0.00    -0.281 NA 
HETATM    7  C   UNL     1     -10.817  10.884  68.955  1.00  0.00    -0.230 A  
HETATM    8  C   UNL     1      -9.736  10.061  69.169  1.00  0.00    -0.209 A  
HETATM    9  N   UNL     1      -9.279   9.714  67.901  1.00  0.00    -0.125 NA 
BRANCH   8  10
HETATM   10  C   UNL     1      -9.173   9.557  70.355  1.00  0.00    -0.305 C  
HETATM   11  O   UNL     1      -8.945   6.829  72.632  1.00  0.00    -0.130 OA 
HETATM   12  C   UNL     1      -9.596   8.426  70.957  1.00  0.00    -0.212 C  
HETATM   13  C   UNL     1      -8.847   8.101  72.207  1.00  0.00    -0.186 C  
HETATM   14  O   UNL     1      -8.198   8.931  72.827  1.00  0.00    -0.387 OA 
BRANCH  12  15
HETATM   15  C   UNL     1     -10.739   7.561  70.496  1.00  0.00    -0.244 C  
BRANCH  15  16
HETATM   16  C   UNL     1     -12.081   7.806  71.137  1.00  0.00    -0.286 A  
HETATM   17  C   UNL     1     -14.315   7.658  71.791  1.00  0.00    -0.586 A  
HETATM   18  C   UNL     1     -13.197   6.994  71.208  1.00  0.00    -0.304 A  
HETATM   19  C   UNL     1     -13.999   8.929  72.210  1.00  0.00    -0.466 A  
HETATM   20  S   UNL     1     -12.364   9.317  71.906  1.00  0.00    -0.378 SA 
ENDBRANCH  15  16
ENDBRANCH  12  15
ENDBRANCH   8  10
BRANCH   9  21
HETATM   21  C   UNL     1      -7.980   9.105  67.571  1.00  0.00    -0.100 C  
BRANCH  21  22
HETATM   22  C   UNL     1      -7.938   7.593  67.674  1.00  0.00    -0.121 A  
HETATM   23  C   UNL     1      -7.281   6.946  68.729  1.00  0.00    -0.091 A  
HETATM   24  C   UNL     1      -7.382   5.564  68.909  1.00  0.00    -0.081 A  
HETATM   25  C   UNL     1      -8.532   6.787  66.692  1.00  0.00    -0.120 A  
HETATM   26  O   UNL     1      -9.599   2.957  67.970  1.00  0.00    -0.195 OA 
HETATM   27  C   UNL     1      -8.645   5.404  66.863  1.00  0.00    -0.109 A  
HETATM   28  C   UNL     1      -8.129   4.803  68.013  1.00  0.00    -0.089 A  
HETATM   29  O   UNL     1      -7.546   2.661  68.879  1.00  0.00    -0.047 OA 
HETATM   30  C   UNL     1      -8.360   3.371  68.317  1.00  0.00    -0.082 C  
ENDBRANCH  21  22
ENDBRANCH   9  21
ENDBRANCH   4   5
ENDBRANCH   3   4
ENDBRANCH   2   3
TORSDOF 8
ENDMDL
MODEL      146
REMARK 921   NORMALIZED FREE ENERGY PREDICTED BY IDOCK:   -4.25 KCAL/MOL
REMARK 922        TOTAL FREE ENERGY PREDICTED BY IDOCK:   -8.36 KCAL/MOL
REMARK 923 INTER-LIGAND FREE ENERGY PREDICTED BY IDOCK:   -6.67 KCAL/MOL
REMARK 924 INTRA-LIGAND FREE ENERGY PREDICTED BY IDOCK:   -1.69 KCAL/MOL
REMARK 927      BINDING AFFINITY PREDICTED BY RF-SCORE:    0.00 PKD
ROOT
HETATM    1  C   UNL     1     -11.552  10.972  70.663  1.00  0.00    -0.268 C  
HETATM    2  C   UNL     1     -11.129  11.585  69.335  1.00  0.00    -0.287 C  
ENDROOT
BRANCH   2   3
HETATM    3  C   UNL     1     -11.654  10.742  68.172  1.00  0.00    -0.276 C  
BRANCH   3   4
HETATM    4  C   UNL     1     -11.307  11.242  66.773  1.00  0.00    -0.187 C  
BRANCH   4   5
HETATM    5  C   UNL     1     -10.682  12.602  66.740  1.00  0.00    -0.239 A  
HETATM    6  N   UNL     1     -11.408  13.698  66.642  1.00  0.00    -0.316 NA 
HETATM    7  C   UNL     1     -10.538  14.738  66.704  1.00  0.00    -0.299 A  
HETATM    8  C   UNL     1      -9.243  14.292  66.829  1.00  0.00    -0.264 A  
HETATM    9  N   UNL     1      -9.323  12.904  66.791  1.00  0.00    -0.238 NA 
BRANCH   8  10
HETATM   10  C   UNL     1      -8.037  14.988  67.029  1.00  0.00    -0.225 C  
HETATM   11  O   UNL     1      -6.267  17.415  68.941  1.00  0.00    -0.180 OA 
HETATM   12  C   UNL     1      -7.920  16.054  67.847  1.00  0.00    -0.146 C  
HETATM   13  C   UNL     1      -6.542  16.626  67.887  1.00  0.00    -0.142 C  
HETATM   14  O   UNL     1      -5.710  16.416  67.015  1.00  0.00    -0.279 OA 
BRANCH  12  15
HETATM   15  C   UNL     1      -9.040  16.687  68.629  1.00  0.00    -0.245 C  
BRANCH  15  16
HETATM   16  C   UNL     1      -9.585  17.991  68.106  1.00  0.00    -0.301 A  
HETATM   17  C   UNL     1     -10.582  20.091  67.918  1.00  0.00    -0.379 A  
HETATM   18  C   UNL     1     -10.008  19.118  68.786  1.00  0.00    -0.493 A  
HETATM   19  C   UNL     1     -10.518  19.708  66.598  1.00  0.00    -0.497 A  
HETATM   20  S   UNL     1      -9.765  18.187  66.408  1.00  0.00    -0.306 SA 
ENDBRANCH  15  16
ENDBRANCH  12  15
ENDBRANCH   8  10
BRANCH   9  21
HETATM   21  C   UNL     1      -8.210  11.963  66.583  1.00  0.00    -0.088 C  
BRANCH  21  22
HETATM   22  C   UNL     1      -7.790  11.186  67.815  1.00  0.00    -0.114 A  
HETATM   23  C   UNL     1      -7.021  11.775  68.828  1.00  0.00    -0.103 A  
HETATM   24  C   UNL     1      -6.774  11.109  70.031  1.00  0.00    -0.058 A  
HETATM   25  C   UNL     1      -8.134   9.835  67.966  1.00  0.00    -0.105 A  
HETATM   26  O   UNL     1      -8.234   8.480  71.916  1.00  0.00    -0.144 OA 
HETATM   27  C   UNL     1      -7.898   9.160  69.168  1.00  0.00    -0.092 A  
HETATM   28  C   UNL     1      -7.280   9.826  70.228  1.00  0.00    -0.154 A  
HETATM   29  O   UNL     1      -6.199   9.393  72.307  1.00  0.00    -0.290 OA 
HETATM   30  C   UNL     1      -7.150   9.209  71.569  1.00  0.00     0.046 C  
ENDBRANCH  21  22
ENDBRANCH   9  21
ENDBRANCH   4   5
ENDBRANCH   3   4
ENDBRANCH   2   3
TORSDOF 8
ENDMDL
MODEL      147
REMARK 921   NORMALIZED FREE ENERGY PREDICTED BY IDOCK:   -4.25 KCAL/MOL
REMARK 922        TOTAL FREE ENERGY PREDICTED BY IDOCK:   -8.36 KCAL/MOL
REMARK 923 INTER-LIGAND FREE ENERGY PREDICTED BY IDOCK:   -6.91 KCAL/MOL
REMARK 924 INTRA-LIGAND FREE ENERGY PREDICTED BY IDOCK:   -1.45 KCAL/MOL
REMARK 927      BINDING AFFINITY PREDICTED BY RF-SCORE:    0.00 PKD
ROOT
HETATM    1  C   UNL     1      -7.410   6.293  64.373  1.00  0.00    -0.074 C  
HETATM    2  C   UNL     1      -6.211   6.955  65.038  1.00  0.00    -0.036 C  
ENDROOT
BRANCH   2   3
HETATM    3  C   UNL     1      -6.678   8.018  66.033  1.00  0.00    -0.053 C  
BRANCH   3   4
HETATM    4  C   UNL     1      -7.830   7.616  66.949  1.00  0.00    -0.111 C  
BRANCH   4   5
HETATM    5  C   UNL     1      -8.926   8.631  67.046  1.00  0.00    -0.133 A  
HETATM    6  N   UNL     1      -9.643   8.982  65.997  1.00  0.00    -0.267 NA 
HETATM    7  C   UNL     1     -10.575   9.860  66.449  1.00  0.00    -0.056 A  
HETATM    8  C   UNL     1     -10.435  10.077  67.800  1.00  0.00    -0.234 A  
HETATM    9  N   UNL     1      -9.326   9.329  68.183  1.00  0.00    -0.134 NA 
BRANCH   8  10
HETATM   10  C   UNL     1     -11.219  10.812  68.707  1.00  0.00    -0.331 C  
HETATM   11  O   UNL     1     -12.468  14.001  69.681  1.00  0.00    -0.311 OA 
HETATM   12  C   UNL     1     -11.220  12.159  68.769  1.00  0.00    -0.314 C  
HETATM   13  C   UNL     1     -12.129  12.707  69.818  1.00  0.00    -0.233 C  
HETATM   14  O   UNL     1     -12.532  12.041  70.761  1.00  0.00    -0.348 OA 
BRANCH  12  15
HETATM   15  C   UNL     1     -10.372  13.077  67.928  1.00  0.00    -0.233 C  
BRANCH  15  16
HETATM   16  C   UNL     1     -11.018  13.672  66.704  1.00  0.00    -0.292 A  
HETATM   17  C   UNL     1     -12.242  13.992  64.744  1.00  0.00    -0.454 A  
HETATM   18  C   UNL     1     -12.006  13.165  65.880  1.00  0.00    -0.479 A  
HETATM   19  C   UNL     1     -11.479  15.136  64.771  1.00  0.00    -0.383 A  
HETATM   20  S   UNL     1     -10.489  15.214  66.160  1.00  0.00    -0.328 SA 
ENDBRANCH  15  16
ENDBRANCH  12  15
ENDBRANCH   8  10
BRANCH   9  21
HETATM   21  C   UNL     1      -8.578   9.449  69.445  1.00  0.00    -0.148 C  
BRANCH  21  22
HETATM   22  C   UNL     1      -8.953   8.438  70.510  1.00  0.00    -0.160 A  
HETATM   23  C   UNL     1      -9.294   8.835  71.811  1.00  0.00    -0.350 A  
HETATM   24  C   UNL     1      -9.794   7.919  72.740  1.00  0.00    -0.335 A  
HETATM   25  C   UNL     1      -8.940   7.063  70.235  1.00  0.00    -0.149 A  
HETATM   26  O   UNL     1     -11.405   4.757  72.695  1.00  0.00    -0.129 OA 
HETATM   27  C   UNL     1      -9.444   6.138  71.155  1.00  0.00    -0.182 A  
HETATM   28  C   UNL     1      -9.939   6.580  72.383  1.00  0.00    -0.183 A  
HETATM   29  O   UNL     1     -10.549   5.760  74.536  1.00  0.00    -0.218 OA 
HETATM   30  C   UNL     1     -10.625   5.664  73.324  1.00  0.00    -0.250 C  
ENDBRANCH  21  22
ENDBRANCH   9  21
ENDBRANCH   4   5
ENDBRANCH   3   4
ENDBRANCH   2   3
TORSDOF 8
ENDMDL
MODEL      148
REMARK 921   NORMALIZED FREE ENERGY PREDICTED BY IDOCK:   -4.25 KCAL/MOL
REMARK 922        TOTAL FREE ENERGY PREDICTED BY IDOCK:   -8.35 KCAL/MOL
REMARK 923 INTER-LIGAND FREE ENERGY PREDICTED BY IDOCK:   -5.04 KCAL/MOL
REMARK 924 INTRA-LIGAND FREE ENERGY PREDICTED BY IDOCK:   -3.32 KCAL/MOL
REMARK 927      BINDING AFFINITY PREDICTED BY RF-SCORE:    0.00 PKD
ROOT
HETATM    1  C   UNL     1      -9.995   3.314  72.274  1.00  0.00    -0.235 C  
HETATM    2  C   UNL     1      -9.238   2.791  71.060  1.00  0.00    -0.200 C  
ENDROOT
BRANCH   2   3
HETATM    3  C   UNL     1      -9.658   3.557  69.805  1.00  0.00    -0.206 C  
BRANCH   3   4
HETATM    4  C   UNL     1      -8.610   3.659  68.702  1.00  0.00    -0.120 C  
BRANCH   4   5
HETATM    5  C   UNL     1      -8.740   4.872  67.835  1.00  0.00    -0.103 A  
HETATM    6  N   UNL     1      -9.607   4.928  66.844  1.00  0.00    -0.147 NA 
HETATM    7  C   UNL     1      -9.504   6.175  66.318  1.00  0.00    -0.113 A  
HETATM    8  C   UNL     1      -8.549   6.913  66.977  1.00  0.00    -0.121 A  
HETATM    9  N   UNL     1      -8.004   6.052  67.925  1.00  0.00    -0.105 NA 
BRANCH   8  10
HETATM   10  C   UNL     1      -8.171   8.262  66.856  1.00  0.00    -0.103 C  
HETATM   11  O   UNL     1      -8.902  11.655  67.648  1.00  0.00    -0.151 OA 
HETATM   12  C   UNL     1      -8.966   9.292  67.209  1.00  0.00    -0.136 C  
HETATM   13  C   UNL     1      -8.345  10.630  66.979  1.00  0.00    -0.126 C  
HETATM   14  O   UNL     1      -7.403  10.803  66.219  1.00  0.00    -0.131 OA 
BRANCH  12  15
HETATM   15  C   UNL     1     -10.372   9.175  67.737  1.00  0.00    -0.302 C  
BRANCH  15  16
HETATM   16  C   UNL     1     -10.526   8.825  69.195  1.00  0.00    -0.217 A  
HETATM   17  C   UNL     1     -10.807   7.686  71.210  1.00  0.00    -0.252 A  
HETATM   18  C   UNL     1     -10.478   7.597  69.827  1.00  0.00    -0.232 A  
HETATM   19  C   UNL     1     -11.028   8.985  71.605  1.00  0.00    -0.365 A  
HETATM   20  S   UNL     1     -10.834  10.089  70.317  1.00  0.00    -0.322 SA 
ENDBRANCH  15  16
ENDBRANCH  12  15
ENDBRANCH   8  10
BRANCH   9  21
HETATM   21  C   UNL     1      -6.754   6.248  68.676  1.00  0.00    -0.061 C  
BRANCH  21  22
HETATM   22  C   UNL     1      -6.934   6.713  70.108  1.00  0.00    -0.063 A  
HETATM   23  C   UNL     1      -6.939   8.074  70.443  1.00  0.00    -0.041 A  
HETATM   24  C   UNL     1      -7.266   8.502  71.732  1.00  0.00    -0.112 A  
HETATM   25  C   UNL     1      -7.071   5.789  71.154  1.00  0.00    -0.069 A  
HETATM   26  O   UNL     1      -9.037   7.245  74.538  1.00  0.00    -0.196 OA 
HETATM   27  C   UNL     1      -7.405   6.205  72.446  1.00  0.00    -0.093 A  
HETATM   28  C   UNL     1      -7.573   7.564  72.716  1.00  0.00    -0.102 A  
HETATM   29  O   UNL     1      -7.717   9.084  74.545  1.00  0.00    -0.367 OA 
HETATM   30  C   UNL     1      -8.078   8.045  74.023  1.00  0.00    -0.248 C  
ENDBRANCH  21  22
ENDBRANCH   9  21
ENDBRANCH   4   5
ENDBRANCH   3   4
ENDBRANCH   2   3
TORSDOF 8
ENDMDL
MODEL      149
REMARK 921   NORMALIZED FREE ENERGY PREDICTED BY IDOCK:   -4.25 KCAL/MOL
REMARK 922        TOTAL FREE ENERGY PREDICTED BY IDOCK:   -8.35 KCAL/MOL
REMARK 923 INTER-LIGAND FREE ENERGY PREDICTED BY IDOCK:   -6.52 KCAL/MOL
REMARK 924 INTRA-LIGAND FREE ENERGY PREDICTED BY IDOCK:   -1.83 KCAL/MOL
REMARK 927      BINDING AFFINITY PREDICTED BY RF-SCORE:    0.00 PKD
ROOT
HETATM    1  C   UNL     1      -6.092  14.829  69.626  1.00  0.00    -0.121 C  
HETATM    2  C   UNL     1      -6.168  13.328  69.880  1.00  0.00    -0.097 C  
ENDROOT
BRANCH   2   3
HETATM    3  C   UNL     1      -7.170  12.680  68.923  1.00  0.00    -0.045 C  
BRANCH   3   4
HETATM    4  C   UNL     1      -6.997  11.183  68.689  1.00  0.00    -0.081 C  
BRANCH   4   5
HETATM    5  C   UNL     1      -7.808  10.317  69.601  1.00  0.00    -0.160 A  
HETATM    6  N   UNL     1      -7.255   9.370  70.333  1.00  0.00    -0.095 NA 
HETATM    7  C   UNL     1      -8.255   8.832  71.078  1.00  0.00    -0.160 A  
HETATM    8  C   UNL     1      -9.458   9.439  70.803  1.00  0.00    -0.241 A  
HETATM    9  N   UNL     1      -9.186  10.364  69.800  1.00  0.00    -0.068 NA 
BRANCH   8  10
HETATM   10  C   UNL     1     -10.727   9.292  71.391  1.00  0.00    -0.432 C  
HETATM   11  O   UNL     1     -13.697   7.345  71.644  1.00  0.00    -0.377 OA 
HETATM   12  C   UNL     1     -11.643   8.396  70.970  1.00  0.00    -0.307 C  
HETATM   13  C   UNL     1     -12.916   8.434  71.748  1.00  0.00    -0.344 C  
HETATM   14  O   UNL     1     -13.252   9.396  72.424  1.00  0.00    -0.434 OA 
BRANCH  12  15
HETATM   15  C   UNL     1     -11.481   7.458  69.802  1.00  0.00     0.038 C  
BRANCH  15  16
HETATM   16  C   UNL     1     -10.705   6.190  70.049  1.00  0.00    -0.305 A  
HETATM   17  C   UNL     1      -9.517   4.443  71.038  1.00  0.00    -0.232 A  
HETATM   18  C   UNL     1     -10.386   5.555  71.234  1.00  0.00    -0.297 A  
HETATM   19  C   UNL     1      -9.257   4.221  69.706  1.00  0.00    -0.137 A  
HETATM   20  S   UNL     1     -10.058   5.345  68.699  1.00  0.00    -0.170 SA 
ENDBRANCH  15  16
ENDBRANCH  12  15
ENDBRANCH   8  10
BRANCH   9  21
HETATM   21  C   UNL     1     -10.170  11.051  68.947  1.00  0.00    -0.203 C  
BRANCH  21  22
HETATM   22  C   UNL     1     -10.061  10.743  67.468  1.00  0.00    -0.218 A  
HETATM   23  C   UNL     1      -9.981  11.762  66.509  1.00  0.00    -0.229 A  
HETATM   24  C   UNL     1      -9.718  11.477  65.167  1.00  0.00    -0.268 A  
HETATM   25  C   UNL     1     -10.068   9.419  67.005  1.00  0.00    -0.304 A  
HETATM   26  O   UNL     1      -8.252   8.847  63.287  1.00  0.00    -0.167 OA 
HETATM   27  C   UNL     1      -9.800   9.121  65.665  1.00  0.00    -0.164 A  
HETATM   28  C   UNL     1      -9.553  10.154  64.760  1.00  0.00    -0.378 A  
HETATM   29  O   UNL     1      -9.431  10.574  62.418  1.00  0.00    -0.262 OA 
HETATM   30  C   UNL     1      -9.110   9.888  63.371  1.00  0.00    -0.261 C  
ENDBRANCH  21  22
ENDBRANCH   9  21
ENDBRANCH   4   5
ENDBRANCH   3   4
ENDBRANCH   2   3
TORSDOF 8
ENDMDL
MODEL      150
REMARK 921   NORMALIZED FREE ENERGY PREDICTED BY IDOCK:   -4.25 KCAL/MOL
REMARK 922        TOTAL FREE ENERGY PREDICTED BY IDOCK:   -8.35 KCAL/MOL
REMARK 923 INTER-LIGAND FREE ENERGY PREDICTED BY IDOCK:   -7.55 KCAL/MOL
REMARK 924 INTRA-LIGAND FREE ENERGY PREDICTED BY IDOCK:   -0.80 KCAL/MOL
REMARK 927      BINDING AFFINITY PREDICTED BY RF-SCORE:    0.00 PKD
ROOT
HETATM    1  C   UNL     1      -9.884  20.397  67.954  1.00  0.00    -0.433 C  
HETATM    2  C   UNL     1      -8.495  20.080  67.413  1.00  0.00    -0.391 C  
ENDROOT
BRANCH   2   3
HETATM    3  C   UNL     1      -7.803  19.048  68.304  1.00  0.00    -0.350 C  
BRANCH   3   4
HETATM    4  C   UNL     1      -8.651  17.853  68.726  1.00  0.00    -0.208 C  
BRANCH   4   5
HETATM    5  C   UNL     1      -9.160  17.023  67.590  1.00  0.00    -0.229 A  
HETATM    6  N   UNL     1      -8.474  16.878  66.474  1.00  0.00    -0.247 NA 
HETATM    7  C   UNL     1      -9.187  16.024  65.696  1.00  0.00    -0.035 A  
HETATM    8  C   UNL     1     -10.347  15.635  66.324  1.00  0.00    -0.306 A  
HETATM    9  N   UNL     1     -10.366  16.329  67.530  1.00  0.00    -0.282 NA 
BRANCH   8  10
HETATM   10  C   UNL     1     -11.331  14.699  65.959  1.00  0.00    -0.344 C  
HETATM   11  O   UNL     1     -12.058  11.356  64.972  1.00  0.00     0.107 OA 
HETATM   12  C   UNL     1     -11.048  13.488  65.436  1.00  0.00    -0.302 C  
HETATM   13  C   UNL     1     -12.261  12.677  65.123  1.00  0.00    -0.481 C  
HETATM   14  O   UNL     1     -13.373  13.168  64.989  1.00  0.00    -0.634 OA 
BRANCH  12  15
HETATM   15  C   UNL     1      -9.670  12.967  65.123  1.00  0.00     0.021 C  
BRANCH  15  16
HETATM   16  C   UNL     1      -9.115  11.911  66.043  1.00  0.00    -0.119 A  
HETATM   17  C   UNL     1      -8.156  10.789  67.849  1.00  0.00    -0.112 A  
HETATM   18  C   UNL     1      -8.779  11.982  67.382  1.00  0.00    -0.170 A  
HETATM   19  C   UNL     1      -8.099   9.821  66.874  1.00  0.00    -0.113 A  
HETATM   20  S   UNL     1      -8.796  10.347  65.406  1.00  0.00    -0.188 SA 
ENDBRANCH  15  16
ENDBRANCH  12  15
ENDBRANCH   8  10
BRANCH   9  21
HETATM   21  C   UNL     1     -11.520  16.501  68.427  1.00  0.00    -0.104 C  
BRANCH  21  22
HETATM   22  C   UNL     1     -11.798  15.328  69.345  1.00  0.00    -0.367 A  
HETATM   23  C   UNL     1     -12.674  15.439  70.434  1.00  0.00    -0.407 A  
HETATM   24  C   UNL     1     -13.052  14.318  71.178  1.00  0.00    -0.412 A  
HETATM   25  C   UNL     1     -11.160  14.094  69.152  1.00  0.00    -0.295 A  
HETATM   26  O   UNL     1     -13.186  10.800  70.728  1.00  0.00    -0.247 OA 
HETATM   27  C   UNL     1     -11.534  12.965  69.886  1.00  0.00    -0.147 A  
HETATM   28  C   UNL     1     -12.536  13.065  70.853  1.00  0.00    -0.396 A  
HETATM   29  O   UNL     1     -13.448  11.875  72.704  1.00  0.00    -0.085 OA 
HETATM   30  C   UNL     1     -13.078  11.872  71.544  1.00  0.00    -0.275 C  
ENDBRANCH  21  22
ENDBRANCH   9  21
ENDBRANCH   4   5
ENDBRANCH   3   4
ENDBRANCH   2   3
TORSDOF 8
ENDMDL
MODEL      151
REMARK 921   NORMALIZED FREE ENERGY PREDICTED BY IDOCK:   -4.24 KCAL/MOL
REMARK 922        TOTAL FREE ENERGY PREDICTED BY IDOCK:   -8.33 KCAL/MOL
REMARK 923 INTER-LIGAND FREE ENERGY PREDICTED BY IDOCK:   -6.43 KCAL/MOL
REMARK 924 INTRA-LIGAND FREE ENERGY PREDICTED BY IDOCK:   -1.90 KCAL/MOL
REMARK 927      BINDING AFFINITY PREDICTED BY RF-SCORE:    0.00 PKD
ROOT
HETATM    1  C   UNL     1     -11.792  14.803  67.202  1.00  0.00    -0.307 C  
HETATM    2  C   UNL     1     -12.180  13.726  66.197  1.00  0.00    -0.499 C  
ENDROOT
BRANCH   2   3
HETATM    3  C   UNL     1     -10.981  12.825  65.898  1.00  0.00    -0.303 C  
BRANCH   3   4
HETATM    4  C   UNL     1     -11.147  11.351  66.254  1.00  0.00    -0.281 C  
BRANCH   4   5
HETATM    5  C   UNL     1     -11.127  11.064  67.722  1.00  0.00    -0.295 A  
HETATM    6  N   UNL     1     -12.148  11.356  68.502  1.00  0.00    -0.567 NA 
HETATM    7  C   UNL     1     -11.822  10.909  69.741  1.00  0.00    -0.345 A  
HETATM    8  C   UNL     1     -10.571  10.338  69.748  1.00  0.00    -0.271 A  
HETATM    9  N   UNL     1     -10.088  10.490  68.452  1.00  0.00    -0.158 NA 
BRANCH   8  10
HETATM   10  C   UNL     1      -9.866   9.658  70.757  1.00  0.00    -0.224 C  
HETATM   11  O   UNL     1      -8.899   6.522  72.138  1.00  0.00    -0.135 OA 
HETATM   12  C   UNL     1      -9.976   8.333  70.979  1.00  0.00    -0.226 C  
HETATM   13  C   UNL     1      -9.134   7.846  72.111  1.00  0.00    -0.150 C  
HETATM   14  O   UNL     1      -8.694   8.587  72.978  1.00  0.00    -0.343 OA 
BRANCH  12  15
HETATM   15  C   UNL     1     -10.881   7.390  70.231  1.00  0.00    -0.260 C  
BRANCH  15  16
HETATM   16  C   UNL     1     -10.429   6.952  68.862  1.00  0.00    -0.208 A  
HETATM   17  C   UNL     1     -10.358   6.332  66.614  1.00  0.00    -0.235 A  
HETATM   18  C   UNL     1     -11.102   6.960  67.655  1.00  0.00    -0.251 A  
HETATM   19  C   UNL     1      -9.115   5.926  67.042  1.00  0.00    -0.116 A  
HETATM   20  S   UNL     1      -8.846   6.306  68.685  1.00  0.00    -0.118 SA 
ENDBRANCH  15  16
ENDBRANCH  12  15
ENDBRANCH   8  10
BRANCH   9  21
HETATM   21  C   UNL     1      -8.694  10.325  68.008  1.00  0.00    -0.122 C  
BRANCH  21  22
HETATM   22  C   UNL     1      -7.822  11.555  68.170  1.00  0.00    -0.128 A  
HETATM   23  C   UNL     1      -7.802  12.572  67.206  1.00  0.00    -0.160 A  
HETATM   24  C   UNL     1      -7.125  13.773  67.433  1.00  0.00    -0.093 A  
HETATM   25  C   UNL     1      -6.978  11.700  69.281  1.00  0.00    -0.083 A  
HETATM   26  O   UNL     1      -5.973  15.643  70.221  1.00  0.00    -0.157 OA 
HETATM   27  C   UNL     1      -6.301  12.899  69.522  1.00  0.00    -0.103 A  
HETATM   28  C   UNL     1      -6.435  13.964  68.629  1.00  0.00    -0.092 A  
HETATM   29  O   UNL     1      -5.419  16.043  68.062  1.00  0.00    -0.103 OA 
HETATM   30  C   UNL     1      -5.869  15.302  68.917  1.00  0.00    -0.097 C  
ENDBRANCH  21  22
ENDBRANCH   9  21
ENDBRANCH   4   5
ENDBRANCH   3   4
ENDBRANCH   2   3
TORSDOF 8
ENDMDL
MODEL      152
REMARK 921   NORMALIZED FREE ENERGY PREDICTED BY IDOCK:   -4.22 KCAL/MOL
REMARK 922        TOTAL FREE ENERGY PREDICTED BY IDOCK:   -8.31 KCAL/MOL
REMARK 923 INTER-LIGAND FREE ENERGY PREDICTED BY IDOCK:   -6.49 KCAL/MOL
REMARK 924 INTRA-LIGAND FREE ENERGY PREDICTED BY IDOCK:   -1.82 KCAL/MOL
REMARK 927      BINDING AFFINITY PREDICTED BY RF-SCORE:    0.00 PKD
ROOT
HETATM    1  C   UNL     1      -7.425  17.992  67.474  1.00  0.00    -0.217 C  
HETATM    2  C   UNL     1      -8.460  17.333  66.571  1.00  0.00    -0.306 C  
ENDROOT
BRANCH   2   3
HETATM    3  C   UNL     1      -9.744  17.054  67.354  1.00  0.00    -0.252 C  
BRANCH   3   4
HETATM    4  C   UNL     1      -9.576  16.288  68.662  1.00  0.00    -0.237 C  
BRANCH   4   5
HETATM    5  C   UNL     1     -10.175  14.917  68.658  1.00  0.00    -0.236 A  
HETATM    6  N   UNL     1     -11.240  14.622  69.376  1.00  0.00    -0.268 NA 
HETATM    7  C   UNL     1     -11.546  13.331  69.089  1.00  0.00    -0.319 A  
HETATM    8  C   UNL     1     -10.654  12.798  68.189  1.00  0.00    -0.229 A  
HETATM    9  N   UNL     1      -9.723  13.805  67.951  1.00  0.00    -0.222 NA 
BRANCH   8  10
HETATM   10  C   UNL     1     -10.628  11.555  67.532  1.00  0.00    -0.243 C  
HETATM   11  O   UNL     1     -10.586   8.009  67.844  1.00  0.00    -0.209 OA 
HETATM   12  C   UNL     1     -10.403  10.384  68.163  1.00  0.00    -0.202 C  
HETATM   13  C   UNL     1     -10.417   9.203  67.251  1.00  0.00    -0.265 C  
HETATM   14  O   UNL     1     -10.266   9.297  66.041  1.00  0.00    -0.269 OA 
BRANCH  12  15
HETATM   15  C   UNL     1     -10.107  10.222  69.631  1.00  0.00    -0.257 C  
BRANCH  15  16
HETATM   16  C   UNL     1     -11.260   9.838  70.521  1.00  0.00    -0.315 A  
HETATM   17  C   UNL     1     -13.209   9.861  71.803  1.00  0.00    -0.535 A  
HETATM   18  C   UNL     1     -12.437  10.509  70.796  1.00  0.00    -0.472 A  
HETATM   19  C   UNL     1     -12.633   8.682  72.215  1.00  0.00    -0.395 A  
HETATM   20  S   UNL     1     -11.174   8.357  71.389  1.00  0.00    -0.277 SA 
ENDBRANCH  15  16
ENDBRANCH  12  15
ENDBRANCH   8  10
BRANCH   9  21
HETATM   21  C   UNL     1      -8.408  13.653  67.307  1.00  0.00    -0.171 C  
BRANCH  21  22
HETATM   22  C   UNL     1      -7.612  12.443  67.756  1.00  0.00    -0.134 A  
HETATM   23  C   UNL     1      -7.178  12.301  69.081  1.00  0.00     0.041 A  
HETATM   24  C   UNL     1      -6.588  11.116  69.528  1.00  0.00    -0.126 A  
HETATM   25  C   UNL     1      -7.255  11.437  66.847  1.00  0.00    -0.144 A  
HETATM   26  O   UNL     1      -6.516   7.702  68.563  1.00  0.00    -0.045 OA 
HETATM   27  C   UNL     1      -6.671  10.244  67.283  1.00  0.00    -0.073 A  
HETATM   28  C   UNL     1      -6.404  10.057  68.641  1.00  0.00    -0.048 A  
HETATM   29  O   UNL     1      -5.157   8.651  70.106  1.00  0.00    -0.022 OA 
HETATM   30  C   UNL     1      -5.933   8.758  69.174  1.00  0.00    -0.042 C  
ENDBRANCH  21  22
ENDBRANCH   9  21
ENDBRANCH   4   5
ENDBRANCH   3   4
ENDBRANCH   2   3
TORSDOF 8
ENDMDL
MODEL      153
REMARK 921   NORMALIZED FREE ENERGY PREDICTED BY IDOCK:   -4.22 KCAL/MOL
REMARK 922        TOTAL FREE ENERGY PREDICTED BY IDOCK:   -8.31 KCAL/MOL
REMARK 923 INTER-LIGAND FREE ENERGY PREDICTED BY IDOCK:   -8.09 KCAL/MOL
REMARK 924 INTRA-LIGAND FREE ENERGY PREDICTED BY IDOCK:   -0.22 KCAL/MOL
REMARK 927      BINDING AFFINITY PREDICTED BY RF-SCORE:    0.00 PKD
ROOT
HETATM    1  C   UNL     1     -10.546  12.496  63.752  1.00  0.00    -0.471 C  
HETATM    2  C   UNL     1     -11.571  13.183  64.646  1.00  0.00    -0.384 C  
ENDROOT
BRANCH   2   3
HETATM    3  C   UNL     1     -12.041  12.227  65.743  1.00  0.00    -0.287 C  
BRANCH   3   4
HETATM    4  C   UNL     1     -11.661  12.609  67.170  1.00  0.00    -0.438 C  
BRANCH   4   5
HETATM    5  C   UNL     1     -10.953  11.533  67.931  1.00  0.00    -0.233 A  
HETATM    6  N   UNL     1      -9.882  10.932  67.451  1.00  0.00    -0.171 NA 
HETATM    7  C   UNL     1      -9.466  10.070  68.414  1.00  0.00    -0.141 A  
HETATM    8  C   UNL     1     -10.293  10.116  69.511  1.00  0.00    -0.240 A  
HETATM    9  N   UNL     1     -11.298  11.020  69.179  1.00  0.00    -0.254 NA 
BRANCH   8  10
HETATM   10  C   UNL     1     -10.205   9.490  70.767  1.00  0.00    -0.363 C  
HETATM   11  O   UNL     1      -8.088   8.219  73.332  1.00  0.00    -0.215 OA 
HETATM   12  C   UNL     1      -9.056   8.997  71.274  1.00  0.00    -0.302 C  
HETATM   13  C   UNL     1      -9.218   8.374  72.620  1.00  0.00    -0.254 C  
HETATM   14  O   UNL     1     -10.299   8.004  73.055  1.00  0.00    -0.329 OA 
BRANCH  12  15
HETATM   15  C   UNL     1      -7.720   8.995  70.578  1.00  0.00    -0.123 C  
BRANCH  15  16
HETATM   16  C   UNL     1      -7.416   7.817  69.689  1.00  0.00    -0.090 A  
HETATM   17  C   UNL     1      -7.242   5.672  68.789  1.00  0.00    -0.081 A  
HETATM   18  C   UNL     1      -7.883   6.517  69.740  1.00  0.00    -0.115 A  
HETATM   19  C   UNL     1      -6.358   6.367  67.996  1.00  0.00    -0.036 A  
HETATM   20  S   UNL     1      -6.306   8.027  68.394  1.00  0.00    -0.051 SA 
ENDBRANCH  15  16
ENDBRANCH  12  15
ENDBRANCH   8  10
BRANCH   9  21
HETATM   21  C   UNL     1     -12.582  11.201  69.875  1.00  0.00    -0.105 C  
BRANCH  21  22
HETATM   22  C   UNL     1     -12.720  12.505  70.636  1.00  0.00    -0.132 A  
HETATM   23  C   UNL     1     -13.075  12.531  71.992  1.00  0.00    -0.472 A  
HETATM   24  C   UNL     1     -13.042  13.717  72.728  1.00  0.00    -0.432 A  
HETATM   25  C   UNL     1     -12.525  13.738  69.995  1.00  0.00    -0.301 A  
HETATM   26  O   UNL     1     -11.449  16.882  72.524  1.00  0.00    -0.110 OA 
HETATM   27  C   UNL     1     -12.484  14.931  70.722  1.00  0.00    -0.401 A  
HETATM   28  C   UNL     1     -12.672  14.908  72.105  1.00  0.00    -0.398 A  
HETATM   29  O   UNL     1     -13.143  16.362  73.934  1.00  0.00    -0.680 OA 
HETATM   30  C   UNL     1     -12.483  16.117  72.940  1.00  0.00    -0.475 C  
ENDBRANCH  21  22
ENDBRANCH   9  21
ENDBRANCH   4   5
ENDBRANCH   3   4
ENDBRANCH   2   3
TORSDOF 8
ENDMDL
MODEL      154
REMARK 921   NORMALIZED FREE ENERGY PREDICTED BY IDOCK:   -4.21 KCAL/MOL
REMARK 922        TOTAL FREE ENERGY PREDICTED BY IDOCK:   -8.30 KCAL/MOL
REMARK 923 INTER-LIGAND FREE ENERGY PREDICTED BY IDOCK:   -6.27 KCAL/MOL
REMARK 924 INTRA-LIGAND FREE ENERGY PREDICTED BY IDOCK:   -2.03 KCAL/MOL
REMARK 927      BINDING AFFINITY PREDICTED BY RF-SCORE:    0.00 PKD
ROOT
HETATM    1  C   UNL     1     -12.740  11.435  71.315  1.00  0.00    -0.498 C  
HETATM    2  C   UNL     1     -11.637  11.053  70.336  1.00  0.00    -0.389 C  
ENDROOT
BRANCH   2   3
HETATM    3  C   UNL     1     -12.243  10.614  69.002  1.00  0.00     0.045 C  
BRANCH   3   4
HETATM    4  C   UNL     1     -11.281  10.552  67.820  1.00  0.00    -0.344 C  
BRANCH   4   5
HETATM    5  C   UNL     1     -11.192  11.820  67.029  1.00  0.00    -0.322 A  
HETATM    6  N   UNL     1     -11.977  12.052  65.996  1.00  0.00    -0.535 NA 
HETATM    7  C   UNL     1     -11.674  13.301  65.561  1.00  0.00    -0.346 A  
HETATM    8  C   UNL     1     -10.674  13.861  66.320  1.00  0.00    -0.285 A  
HETATM    9  N   UNL     1     -10.313  12.880  67.239  1.00  0.00    -0.233 NA 
BRANCH   8  10
HETATM   10  C   UNL     1     -10.113  15.151  66.311  1.00  0.00    -0.299 C  
HETATM   11  O   UNL     1      -9.980  18.366  67.834  1.00  0.00    -0.318 OA 
HETATM   12  C   UNL     1     -10.582  16.172  67.056  1.00  0.00    -0.292 C  
HETATM   13  C   UNL     1      -9.823  17.444  66.868  1.00  0.00    -0.289 C  
HETATM   14  O   UNL     1      -9.117  17.658  65.893  1.00  0.00    -0.515 OA 
BRANCH  12  15
HETATM   15  C   UNL     1     -11.781  16.117  67.965  1.00  0.00     0.058 C  
BRANCH  15  16
HETATM   16  C   UNL     1     -11.532  15.729  69.400  1.00  0.00    -0.355 A  
HETATM   17  C   UNL     1     -10.536  15.093  71.411  1.00  0.00     0.429 A  
HETATM   18  C   UNL     1     -10.346  15.623  70.102  1.00  0.00    -0.268 A  
HETATM   19  C   UNL     1     -11.865  14.875  71.691  1.00  0.00    -0.366 A  
HETATM   20  S   UNL     1     -12.876  15.313  70.386  1.00  0.00    -0.250 SA 
ENDBRANCH  15  16
ENDBRANCH  12  15
ENDBRANCH   8  10
BRANCH   9  21
HETATM   21  C   UNL     1      -9.099  12.860  68.072  1.00  0.00    -0.211 C  
BRANCH  21  22
HETATM   22  C   UNL     1      -8.170  11.689  67.819  1.00  0.00    -0.141 A  
HETATM   23  C   UNL     1      -7.820  10.795  68.841  1.00  0.00    -0.136 A  
HETATM   24  C   UNL     1      -7.098   9.631  68.569  1.00  0.00    -0.069 A  
HETATM   25  C   UNL     1      -7.601  11.480  66.554  1.00  0.00    -0.036 A  
HETATM   26  O   UNL     1      -6.450   7.542  65.774  1.00  0.00    -0.044 OA 
HETATM   27  C   UNL     1      -6.882  10.316  66.269  1.00  0.00    -0.110 A  
HETATM   28  C   UNL     1      -6.693   9.355  67.265  1.00  0.00    -0.075 A  
HETATM   29  O   UNL     1      -5.367   7.439  67.760  1.00  0.00    -0.023 OA 
HETATM   30  C   UNL     1      -6.077   8.039  66.975  1.00  0.00    -0.054 C  
ENDBRANCH  21  22
ENDBRANCH   9  21
ENDBRANCH   4   5
ENDBRANCH   3   4
ENDBRANCH   2   3
TORSDOF 8
ENDMDL
MODEL      155
REMARK 921   NORMALIZED FREE ENERGY PREDICTED BY IDOCK:   -4.20 KCAL/MOL
REMARK 922        TOTAL FREE ENERGY PREDICTED BY IDOCK:   -8.28 KCAL/MOL
REMARK 923 INTER-LIGAND FREE ENERGY PREDICTED BY IDOCK:   -5.67 KCAL/MOL
REMARK 924 INTRA-LIGAND FREE ENERGY PREDICTED BY IDOCK:   -2.62 KCAL/MOL
REMARK 927      BINDING AFFINITY PREDICTED BY RF-SCORE:    0.00 PKD
ROOT
HETATM    1  C   UNL     1      -9.579  10.668  63.018  1.00  0.00    -0.379 C  
HETATM    2  C   UNL     1     -10.416  11.938  63.083  1.00  0.00    -0.327 C  
ENDROOT
BRANCH   2   3
HETATM    3  C   UNL     1     -10.754  12.276  64.535  1.00  0.00    -0.358 C  
BRANCH   3   4
HETATM    4  C   UNL     1     -11.132  11.096  65.425  1.00  0.00    -0.074 C  
BRANCH   4   5
HETATM    5  C   UNL     1     -10.627  11.194  66.830  1.00  0.00    -0.263 A  
HETATM    6  N   UNL     1     -11.380  11.653  67.810  1.00  0.00    -0.269 NA 
HETATM    7  C   UNL     1     -10.640  11.545  68.942  1.00  0.00    -0.204 A  
HETATM    8  C   UNL     1      -9.396  11.023  68.673  1.00  0.00    -0.194 A  
HETATM    9  N   UNL     1      -9.358  10.850  67.293  1.00  0.00    -0.155 NA 
BRANCH   8  10
HETATM   10  C   UNL     1      -8.345  10.642  69.526  1.00  0.00    -0.013 C  
HETATM   11  O   UNL     1      -6.526   7.970  71.019  1.00  0.00    -0.037 OA 
HETATM   12  C   UNL     1      -8.164   9.379  69.964  1.00  0.00    -0.171 C  
HETATM   13  C   UNL     1      -6.983   9.225  70.864  1.00  0.00    -0.104 C  
HETATM   14  O   UNL     1      -6.466  10.167  71.448  1.00  0.00    -0.315 OA 
BRANCH  12  15
HETATM   15  C   UNL     1      -9.058   8.207  69.658  1.00  0.00    -0.151 C  
BRANCH  15  16
HETATM   16  C   UNL     1     -10.126   7.881  70.669  1.00  0.00    -0.194 A  
HETATM   17  C   UNL     1     -11.432   7.780  72.599  1.00  0.00    -0.430 A  
HETATM   18  C   UNL     1     -10.424   8.482  71.878  1.00  0.00    -0.387 A  
HETATM   19  C   UNL     1     -11.921   6.708  71.890  1.00  0.00    -0.341 A  
HETATM   20  S   UNL     1     -11.172   6.552  70.364  1.00  0.00    -0.382 SA 
ENDBRANCH  15  16
ENDBRANCH  12  15
ENDBRANCH   8  10
BRANCH   9  21
HETATM   21  C   UNL     1      -8.162  10.611  66.469  1.00  0.00    -0.138 C  
BRANCH  21  22
HETATM   22  C   UNL     1      -7.771   9.154  66.317  1.00  0.00    -0.096 A  
HETATM   23  C   UNL     1      -6.526   8.679  66.751  1.00  0.00    -0.060 A  
HETATM   24  C   UNL     1      -6.233   7.313  66.759  1.00  0.00    -0.043 A  
HETATM   25  C   UNL     1      -8.636   8.235  65.706  1.00  0.00    -0.182 A  
HETATM   26  O   UNL     1      -8.028   4.251  66.799  1.00  0.00    -0.097 OA 
HETATM   27  C   UNL     1      -8.358   6.865  65.713  1.00  0.00    -0.142 A  
HETATM   28  C   UNL     1      -7.184   6.399  66.307  1.00  0.00    -0.072 A  
HETATM   29  O   UNL     1      -5.806   4.458  66.411  1.00  0.00    -0.021 OA 
HETATM   30  C   UNL     1      -6.917   4.952  66.481  1.00  0.00    -0.067 C  
ENDBRANCH  21  22
ENDBRANCH   9  21
ENDBRANCH   4   5
ENDBRANCH   3   4
ENDBRANCH   2   3
TORSDOF 8
ENDMDL
MODEL      156
REMARK 921   NORMALIZED FREE ENERGY PREDICTED BY IDOCK:   -4.20 KCAL/MOL
REMARK 922        TOTAL FREE ENERGY PREDICTED BY IDOCK:   -8.27 KCAL/MOL
REMARK 923 INTER-LIGAND FREE ENERGY PREDICTED BY IDOCK:   -6.51 KCAL/MOL
REMARK 924 INTRA-LIGAND FREE ENERGY PREDICTED BY IDOCK:   -1.77 KCAL/MOL
REMARK 927      BINDING AFFINITY PREDICTED BY RF-SCORE:    0.00 PKD
ROOT
HETATM    1  C   UNL     1     -11.764   6.277  72.374  1.00  0.00    -0.301 C  
HETATM    2  C   UNL     1     -11.576   7.763  72.655  1.00  0.00    -0.398 C  
ENDROOT
BRANCH   2   3
HETATM    3  C   UNL     1     -12.568   8.586  71.833  1.00  0.00    -0.400 C  
BRANCH   3   4
HETATM    4  C   UNL     1     -12.159  10.026  71.539  1.00  0.00    -0.475 C  
BRANCH   4   5
HETATM    5  C   UNL     1     -11.733  10.272  70.126  1.00  0.00    -0.284 A  
HETATM    6  N   UNL     1     -12.515  10.886  69.261  1.00  0.00    -0.333 NA 
HETATM    7  C   UNL     1     -11.800  10.995  68.112  1.00  0.00    -0.118 A  
HETATM    8  C   UNL     1     -10.554  10.430  68.249  1.00  0.00    -0.212 A  
HETATM    9  N   UNL     1     -10.526   9.903  69.537  1.00  0.00    -0.224 NA 
BRANCH   8  10
HETATM   10  C   UNL     1      -9.450  10.396  67.379  1.00  0.00    -0.170 C  
HETATM   11  O   UNL     1      -6.306  11.803  66.480  1.00  0.00    -0.081 OA 
HETATM   12  C   UNL     1      -8.512  11.363  67.328  1.00  0.00    -0.148 C  
HETATM   13  C   UNL     1      -7.443  11.104  66.319  1.00  0.00    -0.064 C  
HETATM   14  O   UNL     1      -7.583  10.324  65.388  1.00  0.00    -0.140 OA 
BRANCH  12  15
HETATM   15  C   UNL     1      -8.513  12.631  68.141  1.00  0.00    -0.177 C  
BRANCH  15  16
HETATM   16  C   UNL     1      -9.550  13.666  67.789  1.00  0.00    -0.224 A  
HETATM   17  C   UNL     1     -11.302  15.203  67.870  1.00  0.00    -0.346 A  
HETATM   18  C   UNL     1     -10.355  14.436  68.608  1.00  0.00    -0.245 A  
HETATM   19  C   UNL     1     -11.145  15.049  66.512  1.00  0.00    -0.329 A  
HETATM   20  S   UNL     1      -9.861  13.990  66.131  1.00  0.00    -0.288 SA 
ENDBRANCH  15  16
ENDBRANCH  12  15
ENDBRANCH   8  10
BRANCH   9  21
HETATM   21  C   UNL     1      -9.548   8.941  70.072  1.00  0.00    -0.178 C  
BRANCH  21  22
HETATM   22  C   UNL     1      -9.400   7.665  69.267  1.00  0.00    -0.148 A  
HETATM   23  C   UNL     1      -8.171   7.287  68.709  1.00  0.00    -0.129 A  
HETATM   24  C   UNL     1      -8.001   6.037  68.110  1.00  0.00    -0.110 A  
HETATM   25  C   UNL     1     -10.503   6.833  69.027  1.00  0.00    -0.229 A  
HETATM   26  O   UNL     1      -9.552   2.847  68.219  1.00  0.00    -0.184 OA 
HETATM   27  C   UNL     1     -10.344   5.577  68.433  1.00  0.00    -0.243 A  
HETATM   28  C   UNL     1      -9.074   5.150  68.040  1.00  0.00    -0.123 A  
HETATM   29  O   UNL     1      -8.011   3.497  66.693  1.00  0.00    -0.087 OA 
HETATM   30  C   UNL     1      -8.827   3.773  67.553  1.00  0.00    -0.122 C  
ENDBRANCH  21  22
ENDBRANCH   9  21
ENDBRANCH   4   5
ENDBRANCH   3   4
ENDBRANCH   2   3
TORSDOF 8
ENDMDL
MODEL      157
REMARK 921   NORMALIZED FREE ENERGY PREDICTED BY IDOCK:   -4.18 KCAL/MOL
REMARK 922        TOTAL FREE ENERGY PREDICTED BY IDOCK:   -8.25 KCAL/MOL
REMARK 923 INTER-LIGAND FREE ENERGY PREDICTED BY IDOCK:   -7.00 KCAL/MOL
REMARK 924 INTRA-LIGAND FREE ENERGY PREDICTED BY IDOCK:   -1.25 KCAL/MOL
REMARK 927      BINDING AFFINITY PREDICTED BY RF-SCORE:    0.00 PKD
ROOT
HETATM    1  C   UNL     1      -8.993   7.989  65.924  1.00  0.00    -0.181 C  
HETATM    2  C   UNL     1      -8.658   7.496  67.325  1.00  0.00    -0.118 C  
ENDROOT
BRANCH   2   3
HETATM    3  C   UNL     1      -9.892   7.581  68.225  1.00  0.00    -0.177 C  
BRANCH   3   4
HETATM    4  C   UNL     1     -10.979   8.554  67.779  1.00  0.00     0.093 C  
BRANCH   4   5
HETATM    5  C   UNL     1     -10.871   9.920  68.381  1.00  0.00    -0.221 A  
HETATM    6  N   UNL     1      -9.978  10.795  67.965  1.00  0.00    -0.161 NA 
HETATM    7  C   UNL     1     -10.200  11.932  68.673  1.00  0.00    -0.191 A  
HETATM    8  C   UNL     1     -11.238  11.768  69.560  1.00  0.00    -0.195 A  
HETATM    9  N   UNL     1     -11.640  10.443  69.419  1.00  0.00    -0.230 NA 
BRANCH   8  10
HETATM   10  C   UNL     1     -11.883  12.681  70.414  1.00  0.00    -0.238 C  
HETATM   11  O   UNL     1     -13.578  15.796  70.729  1.00  0.00    -0.477 OA 
HETATM   12  C   UNL     1     -12.219  13.934  70.045  1.00  0.00    -0.408 C  
HETATM   13  C   UNL     1     -12.887  14.714  71.129  1.00  0.00    -0.343 C  
HETATM   14  O   UNL     1     -12.803  14.414  72.311  1.00  0.00    -0.328 OA 
BRANCH  12  15
HETATM   15  C   UNL     1     -11.929  14.564  68.708  1.00  0.00    -0.315 C  
BRANCH  15  16
HETATM   16  C   UNL     1     -10.612  15.282  68.564  1.00  0.00    -0.237 A  
HETATM   17  C   UNL     1      -8.513  16.218  68.958  1.00  0.00    -0.244 A  
HETATM   18  C   UNL     1      -9.509  15.299  69.397  1.00  0.00    -0.231 A  
HETATM   19  C   UNL     1      -8.854  16.821  67.770  1.00  0.00    -0.208 A  
HETATM   20  S   UNL     1     -10.364  16.279  67.186  1.00  0.00    -0.285 SA 
ENDBRANCH  15  16
ENDBRANCH  12  15
ENDBRANCH   8  10
BRANCH   9  21
HETATM   21  C   UNL     1     -12.501   9.683  70.339  1.00  0.00     0.108 C  
BRANCH  21  22
HETATM   22  C   UNL     1     -11.790   8.613  71.144  1.00  0.00    -0.331 A  
HETATM   23  C   UNL     1     -12.314   7.318  71.268  1.00  0.00    -0.401 A  
HETATM   24  C   UNL     1     -11.580   6.294  71.871  1.00  0.00    -0.369 A  
HETATM   25  C   UNL     1     -10.594   8.894  71.820  1.00  0.00    -0.432 A  
HETATM   26  O   UNL     1      -8.175   5.573  72.569  1.00  0.00    -0.113 OA 
HETATM   27  C   UNL     1      -9.848   7.877  72.421  1.00  0.00    -0.287 A  
HETATM   28  C   UNL     1     -10.310   6.560  72.382  1.00  0.00    -0.210 A  
HETATM   29  O   UNL     1      -9.948   4.439  73.406  1.00  0.00    -0.130 OA 
HETATM   30  C   UNL     1      -9.487   5.427  72.863  1.00  0.00    -0.144 C  
ENDBRANCH  21  22
ENDBRANCH   9  21
ENDBRANCH   4   5
ENDBRANCH   3   4
ENDBRANCH   2   3
TORSDOF 8
ENDMDL
MODEL      158
REMARK 921   NORMALIZED FREE ENERGY PREDICTED BY IDOCK:   -4.18 KCAL/MOL
REMARK 922        TOTAL FREE ENERGY PREDICTED BY IDOCK:   -8.24 KCAL/MOL
REMARK 923 INTER-LIGAND FREE ENERGY PREDICTED BY IDOCK:   -6.19 KCAL/MOL
REMARK 924 INTRA-LIGAND FREE ENERGY PREDICTED BY IDOCK:   -2.06 KCAL/MOL
REMARK 927      BINDING AFFINITY PREDICTED BY RF-SCORE:    0.00 PKD
ROOT
HETATM    1  C   UNL     1      -9.923  19.071  68.928  1.00  0.00    -0.460 C  
HETATM    2  C   UNL     1     -10.520  18.399  67.698  1.00  0.00    -0.445 C  
ENDROOT
BRANCH   2   3
HETATM    3  C   UNL     1     -11.157  17.063  68.083  1.00  0.00    -0.163 C  
BRANCH   3   4
HETATM    4  C   UNL     1     -10.393  16.228  69.105  1.00  0.00    -0.272 C  
BRANCH   4   5
HETATM    5  C   UNL     1     -10.181  14.802  68.703  1.00  0.00    -0.236 A  
HETATM    6  N   UNL     1     -11.171  13.933  68.674  1.00  0.00    -0.255 NA 
HETATM    7  C   UNL     1     -10.645  12.771  68.210  1.00  0.00    -0.238 A  
HETATM    8  C   UNL     1      -9.300  12.903  67.956  1.00  0.00    -0.213 A  
HETATM    9  N   UNL     1      -8.978  14.204  68.333  1.00  0.00    -0.188 NA 
BRANCH   8  10
HETATM   10  C   UNL     1      -8.372  12.017  67.380  1.00  0.00    -0.171 C  
HETATM   11  O   UNL     1      -6.535   8.985  67.702  1.00  0.00    -0.059 OA 
HETATM   12  C   UNL     1      -7.795  11.002  68.054  1.00  0.00    -0.112 C  
HETATM   13  C   UNL     1      -6.840  10.205  67.228  1.00  0.00    -0.078 C  
HETATM   14  O   UNL     1      -6.342  10.629  66.195  1.00  0.00    -0.107 OA 
BRANCH  12  15
HETATM   15  C   UNL     1      -8.007  10.682  69.510  1.00  0.00    -0.079 C  
BRANCH  15  16
HETATM   16  C   UNL     1      -9.022   9.617  69.834  1.00  0.00    -0.221 A  
HETATM   17  C   UNL     1     -10.908   8.244  69.843  1.00  0.00    -0.213 A  
HETATM   18  C   UNL     1     -10.125   9.189  69.119  1.00  0.00    -0.199 A  
HETATM   19  C   UNL     1     -10.342   7.927  71.056  1.00  0.00    -0.201 A  
HETATM   20  S   UNL     1      -8.875   8.762  71.317  1.00  0.00    -0.235 SA 
ENDBRANCH  15  16
ENDBRANCH  12  15
ENDBRANCH   8  10
BRANCH   9  21
HETATM   21  C   UNL     1      -7.627  14.749  68.546  1.00  0.00    -0.120 C  
BRANCH  21  22
HETATM   22  C   UNL     1      -7.389  16.120  67.945  1.00  0.00    -0.142 A  
HETATM   23  C   UNL     1      -6.824  17.162  68.694  1.00  0.00    -0.197 A  
HETATM   24  C   UNL     1      -6.457  18.370  68.095  1.00  0.00    -0.200 A  
HETATM   25  C   UNL     1      -7.759  16.402  66.622  1.00  0.00    -0.310 A  
HETATM   26  O   UNL     1      -5.661  19.544  64.842  1.00  0.00    -0.167 OA 
HETATM   27  C   UNL     1      -7.393  17.605  66.010  1.00  0.00    -0.301 A  
HETATM   28  C   UNL     1      -6.675  18.561  66.732  1.00  0.00    -0.211 A  
HETATM   29  O   UNL     1      -6.047  20.857  66.646  1.00  0.00    -0.214 OA 
HETATM   30  C   UNL     1      -6.128  19.778  66.089  1.00  0.00    -0.176 C  
ENDBRANCH  21  22
ENDBRANCH   9  21
ENDBRANCH   4   5
ENDBRANCH   3   4
ENDBRANCH   2   3
TORSDOF 8
ENDMDL
MODEL      159
REMARK 921   NORMALIZED FREE ENERGY PREDICTED BY IDOCK:   -4.17 KCAL/MOL
REMARK 922        TOTAL FREE ENERGY PREDICTED BY IDOCK:   -8.23 KCAL/MOL
REMARK 923 INTER-LIGAND FREE ENERGY PREDICTED BY IDOCK:   -6.60 KCAL/MOL
REMARK 924 INTRA-LIGAND FREE ENERGY PREDICTED BY IDOCK:   -1.63 KCAL/MOL
REMARK 927      BINDING AFFINITY PREDICTED BY RF-SCORE:    0.00 PKD
ROOT
HETATM    1  C   UNL     1      -9.535   6.968  68.324  1.00  0.00    -0.128 C  
HETATM    2  C   UNL     1      -9.714   7.757  69.615  1.00  0.00    -0.172 C  
ENDROOT
BRANCH   2   3
HETATM    3  C   UNL     1     -10.675   8.926  69.392  1.00  0.00    -0.192 C  
BRANCH   3   4
HETATM    4  C   UNL     1     -10.680   9.529  67.991  1.00  0.00    -0.266 C  
BRANCH   4   5
HETATM    5  C   UNL     1     -10.882  11.011  67.957  1.00  0.00    -0.229 A  
HETATM    6  N   UNL     1     -12.070  11.555  68.128  1.00  0.00    -0.591 NA 
HETATM    7  C   UNL     1     -11.882  12.899  68.101  1.00  0.00    -0.336 A  
HETATM    8  C   UNL     1     -10.558  13.209  67.897  1.00  0.00    -0.234 A  
HETATM    9  N   UNL     1      -9.911  11.987  67.741  1.00  0.00    -0.191 NA 
BRANCH   8  10
HETATM   10  C   UNL     1      -9.882  14.443  67.898  1.00  0.00    -0.224 C  
HETATM   11  O   UNL     1      -9.866  17.842  68.956  1.00  0.00    -0.309 OA 
HETATM   12  C   UNL     1     -10.441  15.596  68.319  1.00  0.00    -0.252 C  
HETATM   13  C   UNL     1      -9.527  16.772  68.216  1.00  0.00    -0.240 C  
HETATM   14  O   UNL     1      -8.540  16.786  67.494  1.00  0.00    -0.191 OA 
BRANCH  12  15
HETATM   15  C   UNL     1     -11.857  15.760  68.804  1.00  0.00    -0.321 C  
BRANCH  15  16
HETATM   16  C   UNL     1     -12.087  15.647  70.289  1.00  0.00    -0.385 A  
HETATM   17  C   UNL     1     -11.797  15.493  72.598  1.00  0.00    -0.575 A  
HETATM   18  C   UNL     1     -11.212  15.829  71.343  1.00  0.00    -0.354 A  
HETATM   19  C   UNL     1     -13.119  15.134  72.471  1.00  0.00    -0.394 A  
HETATM   20  S   UNL     1     -13.650  15.205  70.849  1.00  0.00    -0.261 SA 
ENDBRANCH  15  16
ENDBRANCH  12  15
ENDBRANCH   8  10
BRANCH   9  21
HETATM   21  C   UNL     1      -8.557  11.771  67.204  1.00  0.00    -0.168 C  
BRANCH  21  22
HETATM   22  C   UNL     1      -7.683  10.846  68.027  1.00  0.00    -0.101 A  
HETATM   23  C   UNL     1      -7.505  11.038  69.404  1.00  0.00    -0.074 A  
HETATM   24  C   UNL     1      -6.833  10.095  70.187  1.00  0.00    -0.146 A  
HETATM   25  C   UNL     1      -6.995   9.781  67.428  1.00  0.00    -0.084 A  
HETATM   26  O   UNL     1      -6.021   6.645  70.008  1.00  0.00    -0.022 OA 
HETATM   27  C   UNL     1      -6.325   8.828  68.201  1.00  0.00    -0.056 A  
HETATM   28  C   UNL     1      -6.307   8.950  69.592  1.00  0.00    -0.042 A  
HETATM   29  O   UNL     1      -5.169   8.111  71.509  1.00  0.00    -0.033 OA 
HETATM   30  C   UNL     1      -5.750   7.889  70.462  1.00  0.00    -0.029 C  
ENDBRANCH  21  22
ENDBRANCH   9  21
ENDBRANCH   4   5
ENDBRANCH   3   4
ENDBRANCH   2   3
TORSDOF 8
ENDMDL
MODEL      160
REMARK 921   NORMALIZED FREE ENERGY PREDICTED BY IDOCK:   -4.16 KCAL/MOL
REMARK 922        TOTAL FREE ENERGY PREDICTED BY IDOCK:   -8.22 KCAL/MOL
REMARK 923 INTER-LIGAND FREE ENERGY PREDICTED BY IDOCK:   -6.47 KCAL/MOL
REMARK 924 INTRA-LIGAND FREE ENERGY PREDICTED BY IDOCK:   -1.75 KCAL/MOL
REMARK 927      BINDING AFFINITY PREDICTED BY RF-SCORE:    0.00 PKD
ROOT
HETATM    1  C   UNL     1      -7.397   8.026  63.276  1.00  0.00    -0.107 C  
HETATM    2  C   UNL     1      -6.927   8.804  64.499  1.00  0.00    -0.084 C  
ENDROOT
BRANCH   2   3
HETATM    3  C   UNL     1      -7.866   9.980  64.771  1.00  0.00    -0.145 C  
BRANCH   3   4
HETATM    4  C   UNL     1      -9.355   9.650  64.813  1.00  0.00    -0.286 C  
BRANCH   4   5
HETATM    5  C   UNL     1     -10.198  10.682  65.492  1.00  0.00    -0.262 A  
HETATM    6  N   UNL     1     -10.966  11.510  64.812  1.00  0.00    -0.298 NA 
HETATM    7  C   UNL     1     -11.630  12.257  65.732  1.00  0.00    -0.388 A  
HETATM    8  C   UNL     1     -11.266  11.905  67.010  1.00  0.00    -0.323 A  
HETATM    9  N   UNL     1     -10.290  10.924  66.861  1.00  0.00    -0.228 NA 
BRANCH   8  10
HETATM   10  C   UNL     1     -11.753  12.322  68.262  1.00  0.00    -0.392 C  
HETATM   11  O   UNL     1     -11.553  14.694  70.910  1.00  0.00    -0.281 OA 
HETATM   12  C   UNL     1     -11.155  13.267  69.016  1.00  0.00    -0.291 C  
HETATM   13  C   UNL     1     -11.857  13.531  70.307  1.00  0.00    -0.257 C  
HETATM   14  O   UNL     1     -12.646  12.742  70.807  1.00  0.00    -0.310 OA 
BRANCH  12  15
HETATM   15  C   UNL     1      -9.875  13.983  68.674  1.00  0.00    -0.191 C  
BRANCH  15  16
HETATM   16  C   UNL     1      -9.970  15.112  67.681  1.00  0.00    -0.229 A  
HETATM   17  C   UNL     1     -10.706  16.919  66.402  1.00  0.00    -0.085 A  
HETATM   18  C   UNL     1     -10.904  16.125  67.569  1.00  0.00    -0.284 A  
HETATM   19  C   UNL     1      -9.588  16.533  65.700  1.00  0.00    -0.028 A  
HETATM   20  S   UNL     1      -8.782  15.225  66.445  1.00  0.00    -0.141 SA 
ENDBRANCH  15  16
ENDBRANCH  12  15
ENDBRANCH   8  10
BRANCH   9  21
HETATM   21  C   UNL     1      -9.368  10.436  67.900  1.00  0.00    -0.138 C  
BRANCH  21  22
HETATM   22  C   UNL     1      -9.731   9.092  68.497  1.00  0.00    -0.171 A  
HETATM   23  C   UNL     1      -9.048   7.921  68.140  1.00  0.00    -0.133 A  
HETATM   24  C   UNL     1      -9.275   6.716  68.810  1.00  0.00    -0.129 A  
HETATM   25  C   UNL     1     -10.790   8.970  69.409  1.00  0.00    -0.152 A  
HETATM   26  O   UNL     1     -10.549   5.665  71.951  1.00  0.00    -0.218 OA 
HETATM   27  C   UNL     1     -11.023   7.771  70.090  1.00  0.00    -0.246 A  
HETATM   28  C   UNL     1     -10.214   6.661  69.839  1.00  0.00    -0.214 A  
HETATM   29  O   UNL     1     -10.143   4.305  70.186  1.00  0.00    -0.194 OA 
HETATM   30  C   UNL     1     -10.316   5.421  70.642  1.00  0.00    -0.262 C  
ENDBRANCH  21  22
ENDBRANCH   9  21
ENDBRANCH   4   5
ENDBRANCH   3   4
ENDBRANCH   2   3
TORSDOF 8
ENDMDL
MODEL      161
REMARK 921   NORMALIZED FREE ENERGY PREDICTED BY IDOCK:   -4.16 KCAL/MOL
REMARK 922        TOTAL FREE ENERGY PREDICTED BY IDOCK:   -8.22 KCAL/MOL
REMARK 923 INTER-LIGAND FREE ENERGY PREDICTED BY IDOCK:   -7.26 KCAL/MOL
REMARK 924 INTRA-LIGAND FREE ENERGY PREDICTED BY IDOCK:   -0.97 KCAL/MOL
REMARK 927      BINDING AFFINITY PREDICTED BY RF-SCORE:    0.00 PKD
ROOT
HETATM    1  C   UNL     1     -12.174  13.774  71.100  1.00  0.00    -0.362 C  
HETATM    2  C   UNL     1     -13.102  13.407  72.251  1.00  0.00    -0.484 C  
ENDROOT
BRANCH   2   3
HETATM    3  C   UNL     1     -13.723  12.031  72.011  1.00  0.00    -0.053 C  
BRANCH   3   4
HETATM    4  C   UNL     1     -12.933  11.089  71.108  1.00  0.00    -0.421 C  
BRANCH   4   5
HETATM    5  C   UNL     1     -12.859   9.678  71.599  1.00  0.00    -0.405 A  
HETATM    6  N   UNL     1     -13.905   9.067  72.120  1.00  0.00    -0.454 NA 
HETATM    7  C   UNL     1     -13.507   7.799  72.396  1.00  0.00     0.164 A  
HETATM    8  C   UNL     1     -12.187   7.610  72.059  1.00  0.00    -0.293 A  
HETATM    9  N   UNL     1     -11.742   8.845  71.597  1.00  0.00    -0.316 NA 
BRANCH   8  10
HETATM   10  C   UNL     1     -11.383   6.456  72.067  1.00  0.00    -0.338 C  
HETATM   11  O   UNL     1      -9.449   4.145  70.170  1.00  0.00    -0.147 OA 
HETATM   12  C   UNL     1     -11.007   5.803  70.948  1.00  0.00    -0.305 C  
HETATM   13  C   UNL     1     -10.162   4.602  71.215  1.00  0.00    -0.135 C  
HETATM   14  O   UNL     1     -10.124   4.045  72.302  1.00  0.00    -0.166 OA 
BRANCH  12  15
HETATM   15  C   UNL     1     -11.410   6.166  69.543  1.00  0.00    -0.426 C  
BRANCH  15  16
HETATM   16  C   UNL     1     -10.317   6.637  68.620  1.00  0.00    -0.188 A  
HETATM   17  C   UNL     1      -8.314   7.458  67.750  1.00  0.00    -0.118 A  
HETATM   18  C   UNL     1      -8.984   6.898  68.876  1.00  0.00    -0.131 A  
HETATM   19  C   UNL     1      -9.137   7.543  66.651  1.00  0.00    -0.158 A  
HETATM   20  S   UNL     1     -10.704   6.947  66.974  1.00  0.00    -0.336 SA 
ENDBRANCH  15  16
ENDBRANCH  12  15
ENDBRANCH   8  10
BRANCH   9  21
HETATM   21  C   UNL     1     -10.343   9.257  71.400  1.00  0.00    -0.321 C  
BRANCH  21  22
HETATM   22  C   UNL     1     -10.051   9.912  70.064  1.00  0.00    -0.308 A  
HETATM   23  C   UNL     1     -11.026   9.997  69.060  1.00  0.00    -0.249 A  
HETATM   24  C   UNL     1     -10.807  10.740  67.898  1.00  0.00    -0.313 A  
HETATM   25  C   UNL     1      -8.780  10.428  69.777  1.00  0.00     0.027 A  
HETATM   26  O   UNL     1      -8.715  13.409  66.852  1.00  0.00    -0.210 OA 
HETATM   27  C   UNL     1      -8.550  11.179  68.620  1.00  0.00    -0.151 A  
HETATM   28  C   UNL     1      -9.590  11.395  67.714  1.00  0.00    -0.177 A  
HETATM   29  O   UNL     1      -9.977  12.125  65.479  1.00  0.00    -0.246 OA 
HETATM   30  C   UNL     1      -9.443  12.310  66.558  1.00  0.00    -0.236 C  
ENDBRANCH  21  22
ENDBRANCH   9  21
ENDBRANCH   4   5
ENDBRANCH   3   4
ENDBRANCH   2   3
TORSDOF 8
ENDMDL
MODEL      162
REMARK 921   NORMALIZED FREE ENERGY PREDICTED BY IDOCK:   -4.16 KCAL/MOL
REMARK 922        TOTAL FREE ENERGY PREDICTED BY IDOCK:   -8.21 KCAL/MOL
REMARK 923 INTER-LIGAND FREE ENERGY PREDICTED BY IDOCK:   -5.97 KCAL/MOL
REMARK 924 INTRA-LIGAND FREE ENERGY PREDICTED BY IDOCK:   -2.24 KCAL/MOL
REMARK 927      BINDING AFFINITY PREDICTED BY RF-SCORE:    0.00 PKD
ROOT
HETATM    1  C   UNL     1      -6.424  14.834  71.025  1.00  0.00     0.311 C  
HETATM    2  C   UNL     1      -5.144  15.258  70.316  1.00  0.00    -0.115 C  
ENDROOT
BRANCH   2   3
HETATM    3  C   UNL     1      -5.343  15.222  68.800  1.00  0.00    -0.094 C  
BRANCH   3   4
HETATM    4  C   UNL     1      -5.827  13.896  68.221  1.00  0.00    -0.114 C  
BRANCH   4   5
HETATM    5  C   UNL     1      -7.199  13.945  67.627  1.00  0.00    -0.174 A  
HETATM    6  N   UNL     1      -7.974  15.004  67.753  1.00  0.00    -0.131 NA 
HETATM    7  C   UNL     1      -9.103  14.736  67.049  1.00  0.00    -0.239 A  
HETATM    8  C   UNL     1      -9.048  13.484  66.483  1.00  0.00    -0.113 A  
HETATM    9  N   UNL     1      -7.839  12.940  66.905  1.00  0.00     0.023 NA 
BRANCH   8  10
HETATM   10  C   UNL     1      -9.922  12.825  65.600  1.00  0.00    -0.249 C  
HETATM   11  O   UNL     1     -13.287  12.295  64.566  1.00  0.00    -0.769 OA 
HETATM   12  C   UNL     1     -11.262  12.808  65.755  1.00  0.00    -0.341 C  
HETATM   13  C   UNL     1     -11.974  12.037  64.694  1.00  0.00    -0.249 C  
HETATM   14  O   UNL     1     -11.418  11.205  63.991  1.00  0.00    -0.118 OA 
BRANCH  12  15
HETATM   15  C   UNL     1     -12.022  13.436  66.893  1.00  0.00    -0.437 C  
BRANCH  15  16
HETATM   16  C   UNL     1     -12.015  12.700  68.207  1.00  0.00    -0.222 A  
HETATM   17  C   UNL     1     -12.142  11.060  69.860  1.00  0.00    -0.435 A  
HETATM   18  C   UNL     1     -12.014  11.343  68.470  1.00  0.00    -0.295 A  
HETATM   19  C   UNL     1     -12.168  12.206  70.620  1.00  0.00    -0.300 A  
HETATM   20  S   UNL     1     -12.032  13.614  69.663  1.00  0.00    -0.337 SA 
ENDBRANCH  15  16
ENDBRANCH  12  15
ENDBRANCH   8  10
BRANCH   9  21
HETATM   21  C   UNL     1      -7.438  11.525  66.832  1.00  0.00    -0.145 C  
BRANCH  21  22
HETATM   22  C   UNL     1      -8.193  10.597  67.762  1.00  0.00    -0.111 A  
HETATM   23  C   UNL     1      -8.964   9.533  67.271  1.00  0.00    -0.143 A  
HETATM   24  C   UNL     1      -9.524   8.586  68.132  1.00  0.00    -0.152 A  
HETATM   25  C   UNL     1      -8.171  10.793  69.150  1.00  0.00    -0.124 A  
HETATM   26  O   UNL     1      -8.957   7.377  71.420  1.00  0.00    -0.136 OA 
HETATM   27  C   UNL     1      -8.723   9.849  70.022  1.00  0.00    -0.188 A  
HETATM   28  C   UNL     1      -9.338   8.706  69.508  1.00  0.00    -0.153 A  
HETATM   29  O   UNL     1     -10.787   6.931  70.162  1.00  0.00    -0.239 OA 
HETATM   30  C   UNL     1      -9.797   7.604  70.385  1.00  0.00    -0.183 C  
ENDBRANCH  21  22
ENDBRANCH   9  21
ENDBRANCH   4   5
ENDBRANCH   3   4
ENDBRANCH   2   3
TORSDOF 8
ENDMDL
MODEL      163
REMARK 921   NORMALIZED FREE ENERGY PREDICTED BY IDOCK:   -4.14 KCAL/MOL
REMARK 922        TOTAL FREE ENERGY PREDICTED BY IDOCK:   -8.19 KCAL/MOL
REMARK 923 INTER-LIGAND FREE ENERGY PREDICTED BY IDOCK:   -6.45 KCAL/MOL
REMARK 924 INTRA-LIGAND FREE ENERGY PREDICTED BY IDOCK:   -1.74 KCAL/MOL
REMARK 927      BINDING AFFINITY PREDICTED BY RF-SCORE:    0.00 PKD
ROOT
HETATM    1  C   UNL     1      -7.175  19.027  68.896  1.00  0.00    -0.364 C  
HETATM    2  C   UNL     1      -6.731  18.100  67.772  1.00  0.00    -0.204 C  
ENDROOT
BRANCH   2   3
HETATM    3  C   UNL     1      -6.780  16.644  68.237  1.00  0.00    -0.143 C  
BRANCH   3   4
HETATM    4  C   UNL     1      -6.877  15.593  67.135  1.00  0.00    -0.127 C  
BRANCH   4   5
HETATM    5  C   UNL     1      -7.138  14.204  67.626  1.00  0.00    -0.183 A  
HETATM    6  N   UNL     1      -6.188  13.468  68.167  1.00  0.00    -0.100 NA 
HETATM    7  C   UNL     1      -6.778  12.308  68.553  1.00  0.00    -0.076 A  
HETATM    8  C   UNL     1      -8.117  12.306  68.240  1.00  0.00    -0.166 A  
HETATM    9  N   UNL     1      -8.346  13.510  67.582  1.00  0.00    -0.165 NA 
BRANCH   8  10
HETATM   10  C   UNL     1      -9.137  11.383  68.533  1.00  0.00    -0.169 C  
HETATM   11  O   UNL     1     -10.362   8.061  68.156  1.00  0.00    -0.201 OA 
HETATM   12  C   UNL     1      -9.244  10.178  67.936  1.00  0.00    -0.144 C  
HETATM   13  C   UNL     1     -10.413   9.381  68.409  1.00  0.00    -0.218 C  
HETATM   14  O   UNL     1     -11.374   9.882  68.974  1.00  0.00    -0.147 OA 
BRANCH  12  15
HETATM   15  C   UNL     1      -8.339   9.652  66.853  1.00  0.00    -0.117 C  
BRANCH  15  16
HETATM   16  C   UNL     1      -8.675  10.038  65.436  1.00  0.00    -0.159 A  
HETATM   17  C   UNL     1      -8.558  10.563  63.166  1.00  0.00    -0.186 A  
HETATM   18  C   UNL     1      -7.910   9.968  64.287  1.00  0.00    -0.144 A  
HETATM   19  C   UNL     1      -9.823  11.005  63.477  1.00  0.00    -0.359 A  
HETATM   20  S   UNL     1     -10.227  10.700  65.108  1.00  0.00    -0.272 SA 
ENDBRANCH  15  16
ENDBRANCH  12  15
ENDBRANCH   8  10
BRANCH   9  21
HETATM   21  C   UNL     1      -9.530  13.864  66.782  1.00  0.00    -0.279 C  
BRANCH  21  22
HETATM   22  C   UNL     1      -9.921  15.327  66.833  1.00  0.00    -0.243 A  
HETATM   23  C   UNL     1     -10.256  15.957  68.040  1.00  0.00    -0.238 A  
HETATM   24  C   UNL     1     -10.458  17.337  68.106  1.00  0.00    -0.382 A  
HETATM   25  C   UNL     1      -9.994  16.095  65.662  1.00  0.00    -0.330 A  
HETATM   26  O   UNL     1      -9.553  20.209  66.228  1.00  0.00    -0.398 OA 
HETATM   27  C   UNL     1     -10.189  17.479  65.716  1.00  0.00    -0.184 A  
HETATM   28  C   UNL     1     -10.349  18.109  66.951  1.00  0.00    -0.386 A  
HETATM   29  O   UNL     1     -11.084  20.169  67.896  1.00  0.00     0.085 OA 
HETATM   30  C   UNL     1     -10.401  19.585  67.075  1.00  0.00    -0.453 C  
ENDBRANCH  21  22
ENDBRANCH   9  21
ENDBRANCH   4   5
ENDBRANCH   3   4
ENDBRANCH   2   3
TORSDOF 8
ENDMDL
MODEL      164
REMARK 921   NORMALIZED FREE ENERGY PREDICTED BY IDOCK:   -4.12 KCAL/MOL
REMARK 922        TOTAL FREE ENERGY PREDICTED BY IDOCK:   -8.16 KCAL/MOL
REMARK 923 INTER-LIGAND FREE ENERGY PREDICTED BY IDOCK:   -6.80 KCAL/MOL
REMARK 924 INTRA-LIGAND FREE ENERGY PREDICTED BY IDOCK:   -1.36 KCAL/MOL
REMARK 927      BINDING AFFINITY PREDICTED BY RF-SCORE:    0.00 PKD
ROOT
HETATM    1  C   UNL     1      -5.814  14.568  72.341  1.00  0.00     0.200 C  
HETATM    2  C   UNL     1      -5.182  14.214  71.000  1.00  0.00    -0.136 C  
ENDROOT
BRANCH   2   3
HETATM    3  C   UNL     1      -6.087  14.666  69.853  1.00  0.00    -0.141 C  
BRANCH   3   4
HETATM    4  C   UNL     1      -6.850  13.562  69.129  1.00  0.00    -0.084 C  
BRANCH   4   5
HETATM    5  C   UNL     1      -8.271  13.903  68.805  1.00  0.00    -0.028 A  
HETATM    6  N   UNL     1      -8.919  14.858  69.440  1.00  0.00    -0.101 NA 
HETATM    7  C   UNL     1     -10.143  14.940  68.859  1.00  0.00    -0.236 A  
HETATM    8  C   UNL     1     -10.275  14.014  67.851  1.00  0.00    -0.240 A  
HETATM    9  N   UNL     1      -9.084  13.294  67.851  1.00  0.00    -0.194 NA 
BRANCH   8  10
HETATM   10  C   UNL     1     -11.305  13.798  66.918  1.00  0.00    -0.345 C  
HETATM   11  O   UNL     1     -12.281  13.765  63.494  1.00  0.00    -0.594 OA 
HETATM   12  C   UNL     1     -11.214  14.138  65.616  1.00  0.00    -0.308 C  
HETATM   13  C   UNL     1     -12.439  13.814  64.828  1.00  0.00    -0.349 C  
HETATM   14  O   UNL     1     -13.530  13.622  65.346  1.00  0.00    -0.550 OA 
BRANCH  12  15
HETATM   15  C   UNL     1     -10.041  14.828  64.969  1.00  0.00    -0.308 C  
BRANCH  15  16
HETATM   16  C   UNL     1      -9.530  16.076  65.640  1.00  0.00    -0.140 A  
HETATM   17  C   UNL     1      -8.231  17.629  66.799  1.00  0.00    -0.270 A  
HETATM   18  C   UNL     1      -8.265  16.386  66.103  1.00  0.00    -0.250 A  
HETATM   19  C   UNL     1      -9.453  18.260  66.786  1.00  0.00    -0.300 A  
HETATM   20  S   UNL     1     -10.631  17.363  65.935  1.00  0.00    -0.085 SA 
ENDBRANCH  15  16
ENDBRANCH  12  15
ENDBRANCH   8  10
BRANCH   9  21
HETATM   21  C   UNL     1      -8.833  12.009  67.179  1.00  0.00    -0.188 C  
BRANCH  21  22
HETATM   22  C   UNL     1      -9.467  10.804  67.846  1.00  0.00    -0.165 A  
HETATM   23  C   UNL     1     -10.061   9.779  67.098  1.00  0.00    -0.267 A  
HETATM   24  C   UNL     1     -10.498   8.598  67.704  1.00  0.00    -0.311 A  
HETATM   25  C   UNL     1      -9.507  10.692  69.243  1.00  0.00    -0.152 A  
HETATM   26  O   UNL     1      -9.839   6.786  70.684  1.00  0.00    -0.179 OA 
HETATM   27  C   UNL     1      -9.936   9.514  69.861  1.00  0.00    -0.259 A  
HETATM   28  C   UNL     1     -10.364   8.437  69.082  1.00  0.00    -0.229 A  
HETATM   29  O   UNL     1     -11.553   6.380  69.261  1.00  0.00    -0.354 OA 
HETATM   30  C   UNL     1     -10.678   7.117  69.677  1.00  0.00    -0.239 C  
ENDBRANCH  21  22
ENDBRANCH   9  21
ENDBRANCH   4   5
ENDBRANCH   3   4
ENDBRANCH   2   3
TORSDOF 8
ENDMDL
MODEL      165
REMARK 921   NORMALIZED FREE ENERGY PREDICTED BY IDOCK:   -4.11 KCAL/MOL
REMARK 922        TOTAL FREE ENERGY PREDICTED BY IDOCK:   -8.14 KCAL/MOL
REMARK 923 INTER-LIGAND FREE ENERGY PREDICTED BY IDOCK:   -5.35 KCAL/MOL
REMARK 924 INTRA-LIGAND FREE ENERGY PREDICTED BY IDOCK:   -2.79 KCAL/MOL
REMARK 927      BINDING AFFINITY PREDICTED BY RF-SCORE:    0.00 PKD
ROOT
HETATM    1  C   UNL     1      -7.859  10.597  62.558  1.00  0.00    -0.173 C  
HETATM    2  C   UNL     1      -9.213  11.247  62.810  1.00  0.00    -0.354 C  
ENDROOT
BRANCH   2   3
HETATM    3  C   UNL     1      -9.425  11.462  64.309  1.00  0.00    -0.153 C  
BRANCH   3   4
HETATM    4  C   UNL     1     -10.491  10.589  64.965  1.00  0.00    -0.221 C  
BRANCH   4   5
HETATM    5  C   UNL     1     -10.466  10.601  66.461  1.00  0.00    -0.224 A  
HETATM    6  N   UNL     1     -11.471  11.077  67.169  1.00  0.00    -0.442 NA 
HETATM    7  C   UNL     1     -11.147  10.877  68.472  1.00  0.00    -0.256 A  
HETATM    8  C   UNL     1      -9.914  10.279  68.589  1.00  0.00    -0.173 A  
HETATM    9  N   UNL     1      -9.438  10.153  67.288  1.00  0.00    -0.152 NA 
BRANCH   8  10
HETATM   10  C   UNL     1      -9.221   9.794  69.712  1.00  0.00    -0.248 C  
HETATM   11  O   UNL     1      -8.705   7.090  71.970  1.00  0.00    -0.123 OA 
HETATM   12  C   UNL     1      -9.557   8.661  70.363  1.00  0.00    -0.196 C  
HETATM   13  C   UNL     1      -8.676   8.359  71.529  1.00  0.00    -0.176 C  
HETATM   14  O   UNL     1      -7.980   9.205  72.072  1.00  0.00    -0.323 OA 
BRANCH  12  15
HETATM   15  C   UNL     1     -10.728   7.773  70.031  1.00  0.00    -0.245 C  
BRANCH  15  16
HETATM   16  C   UNL     1     -10.495   6.693  69.007  1.00  0.00    -0.214 A  
HETATM   17  C   UNL     1     -10.522   5.397  67.068  1.00  0.00    -0.319 A  
HETATM   18  C   UNL     1     -10.779   6.670  67.654  1.00  0.00    -0.373 A  
HETATM   19  C   UNL     1      -9.987   4.510  67.973  1.00  0.00    -0.037 A  
HETATM   20  S   UNL     1      -9.791   5.211  69.518  1.00  0.00    -0.228 SA 
ENDBRANCH  15  16
ENDBRANCH  12  15
ENDBRANCH   8  10
BRANCH   9  21
HETATM   21  C   UNL     1      -8.054   9.858  66.882  1.00  0.00    -0.113 C  
BRANCH  21  22
HETATM   22  C   UNL     1      -7.764   8.395  66.613  1.00  0.00    -0.090 A  
HETATM   23  C   UNL     1      -8.012   7.816  65.361  1.00  0.00    -0.125 A  
HETATM   24  C   UNL     1      -7.594   6.515  65.068  1.00  0.00    -0.092 A  
HETATM   25  C   UNL     1      -7.265   7.561  67.624  1.00  0.00    -0.090 A  
HETATM   26  O   UNL     1      -5.177   4.209  66.266  1.00  0.00    -0.008 OA 
HETATM   27  C   UNL     1      -6.838   6.260  67.342  1.00  0.00    -0.063 A  
HETATM   28  C   UNL     1      -6.938   5.763  66.041  1.00  0.00    -0.059 A  
HETATM   29  O   UNL     1      -6.858   3.712  64.832  1.00  0.00    -0.046 OA 
HETATM   30  C   UNL     1      -6.359   4.455  65.657  1.00  0.00    -0.036 C  
ENDBRANCH  21  22
ENDBRANCH   9  21
ENDBRANCH   4   5
ENDBRANCH   3   4
ENDBRANCH   2   3
TORSDOF 8
ENDMDL
MODEL      166
REMARK 921   NORMALIZED FREE ENERGY PREDICTED BY IDOCK:   -4.07 KCAL/MOL
REMARK 922        TOTAL FREE ENERGY PREDICTED BY IDOCK:   -8.09 KCAL/MOL
REMARK 923 INTER-LIGAND FREE ENERGY PREDICTED BY IDOCK:   -5.97 KCAL/MOL
REMARK 924 INTRA-LIGAND FREE ENERGY PREDICTED BY IDOCK:   -2.12 KCAL/MOL
REMARK 927      BINDING AFFINITY PREDICTED BY RF-SCORE:    0.00 PKD
ROOT
HETATM    1  C   UNL     1     -11.705  12.649  63.455  1.00  0.00    -0.604 C  
HETATM    2  C   UNL     1     -10.447  11.898  63.872  1.00  0.00    -0.441 C  
ENDROOT
BRANCH   2   3
HETATM    3  C   UNL     1     -10.432  11.693  65.388  1.00  0.00    -0.324 C  
BRANCH   3   4
HETATM    4  C   UNL     1      -9.144  11.119  65.971  1.00  0.00    -0.217 C  
BRANCH   4   5
HETATM    5  C   UNL     1      -9.289  10.553  67.349  1.00  0.00    -0.142 A  
HETATM    6  N   UNL     1      -8.603  11.026  68.370  1.00  0.00    -0.143 NA 
HETATM    7  C   UNL     1      -9.020  10.336  69.462  1.00  0.00    -0.157 A  
HETATM    8  C   UNL     1      -9.973   9.404  69.123  1.00  0.00    -0.182 A  
HETATM    9  N   UNL     1     -10.108   9.497  67.742  1.00  0.00    -0.185 NA 
BRANCH   8  10
HETATM   10  C   UNL     1     -10.754   8.545  69.917  1.00  0.00    -0.224 C  
HETATM   11  O   UNL     1     -10.834   5.713  72.073  1.00  0.00    -0.231 OA 
HETATM   12  C   UNL     1     -10.296   7.386  70.432  1.00  0.00    -0.215 C  
HETATM   13  C   UNL     1     -11.315   6.646  71.234  1.00  0.00    -0.299 C  
HETATM   14  O   UNL     1     -12.517   6.851  71.132  1.00  0.00    -0.378 OA 
BRANCH  12  15
HETATM   15  C   UNL     1      -8.922   6.809  70.212  1.00  0.00    -0.152 C  
BRANCH  15  16
HETATM   16  C   UNL     1      -7.887   7.090  71.270  1.00  0.00    -0.099 A  
HETATM   17  C   UNL     1      -6.638   8.060  72.984  1.00  0.00    -0.090 A  
HETATM   18  C   UNL     1      -7.872   8.042  72.272  1.00  0.00    -0.151 A  
HETATM   19  C   UNL     1      -5.778   7.078  72.551  1.00  0.00    -0.038 A  
HETATM   20  S   UNL     1      -6.457   6.138  71.297  1.00  0.00    -0.051 SA 
ENDBRANCH  15  16
ENDBRANCH  12  15
ENDBRANCH   8  10
BRANCH   9  21
HETATM   21  C   UNL     1     -10.768   8.525  66.855  1.00  0.00    -0.086 C  
BRANCH  21  22
HETATM   22  C   UNL     1     -10.041   7.203  66.702  1.00  0.00    -0.229 A  
HETATM   23  C   UNL     1     -10.665   5.984  67.000  1.00  0.00    -0.412 A  
HETATM   24  C   UNL     1     -10.051   4.764  66.705  1.00  0.00    -0.276 A  
HETATM   25  C   UNL     1      -8.703   7.160  66.285  1.00  0.00    -0.156 A  
HETATM   26  O   UNL     1      -7.529   3.564  64.515  1.00  0.00    -0.069 OA 
HETATM   27  C   UNL     1      -8.080   5.946  65.980  1.00  0.00    -0.115 A  
HETATM   28  C   UNL     1      -8.784   4.749  66.124  1.00  0.00    -0.116 A  
HETATM   29  O   UNL     1      -8.431   2.396  66.232  1.00  0.00    -0.090 OA 
HETATM   30  C   UNL     1      -8.227   3.455  65.668  1.00  0.00    -0.097 C  
ENDBRANCH  21  22
ENDBRANCH   9  21
ENDBRANCH   4   5
ENDBRANCH   3   4
ENDBRANCH   2   3
TORSDOF 8
ENDMDL
MODEL      167
REMARK 921   NORMALIZED FREE ENERGY PREDICTED BY IDOCK:   -4.07 KCAL/MOL
REMARK 922        TOTAL FREE ENERGY PREDICTED BY IDOCK:   -8.09 KCAL/MOL
REMARK 923 INTER-LIGAND FREE ENERGY PREDICTED BY IDOCK:   -6.68 KCAL/MOL
REMARK 924 INTRA-LIGAND FREE ENERGY PREDICTED BY IDOCK:   -1.41 KCAL/MOL
REMARK 927      BINDING AFFINITY PREDICTED BY RF-SCORE:    0.00 PKD
ROOT
HETATM    1  C   UNL     1      -5.333   9.383  68.920  1.00  0.00    -0.037 C  
HETATM    2  C   UNL     1      -5.591  10.512  69.910  1.00  0.00    -0.048 C  
ENDROOT
BRANCH   2   3
HETATM    3  C   UNL     1      -5.447  11.867  69.215  1.00  0.00    -0.057 C  
BRANCH   3   4
HETATM    4  C   UNL     1      -6.046  11.968  67.816  1.00  0.00    -0.081 C  
BRANCH   4   5
HETATM    5  C   UNL     1      -7.269  12.826  67.728  1.00  0.00    -0.132 A  
HETATM    6  N   UNL     1      -7.368  13.965  68.384  1.00  0.00    -0.106 NA 
HETATM    7  C   UNL     1      -8.562  14.505  68.031  1.00  0.00    -0.162 A  
HETATM    8  C   UNL     1      -9.233  13.690  67.149  1.00  0.00    -0.244 A  
HETATM    9  N   UNL     1      -8.425  12.567  66.995  1.00  0.00    -0.180 NA 
BRANCH   8  10
HETATM   10  C   UNL     1     -10.435  13.877  66.443  1.00  0.00    -0.284 C  
HETATM   11  O   UNL     1     -12.237  15.826  64.070  1.00  0.00    -0.664 OA 
HETATM   12  C   UNL     1     -10.715  14.989  65.733  1.00  0.00    -0.351 C  
HETATM   13  C   UNL     1     -12.056  14.954  65.078  1.00  0.00    -0.216 C  
HETATM   14  O   UNL     1     -12.951  14.202  65.436  1.00  0.00    -0.706 OA 
BRANCH  12  15
HETATM   15  C   UNL     1      -9.832  16.203  65.617  1.00  0.00    -0.290 C  
BRANCH  15  16
HETATM   16  C   UNL     1     -10.103  17.338  66.570  1.00  0.00    -0.309 A  
HETATM   17  C   UNL     1     -10.972  18.685  68.264  1.00  0.00     0.267 A  
HETATM   18  C   UNL     1     -10.864  17.371  67.724  1.00  0.00    -0.257 A  
HETATM   19  C   UNL     1     -10.236  19.600  67.548  1.00  0.00    -0.432 A  
HETATM   20  S   UNL     1      -9.416  18.877  66.236  1.00  0.00    -0.235 SA 
ENDBRANCH  15  16
ENDBRANCH  12  15
ENDBRANCH   8  10
BRANCH   9  21
HETATM   21  C   UNL     1      -8.817  11.277  66.405  1.00  0.00    -0.182 C  
BRANCH  21  22
HETATM   22  C   UNL     1      -9.155  10.191  67.407  1.00  0.00    -0.149 A  
HETATM   23  C   UNL     1      -9.380  10.484  68.759  1.00  0.00    -0.181 A  
HETATM   24  C   UNL     1      -9.848   9.510  69.645  1.00  0.00    -0.220 A  
HETATM   25  C   UNL     1      -9.222   8.846  67.017  1.00  0.00    -0.171 A  
HETATM   26  O   UNL     1     -11.593   6.426  69.460  1.00  0.00    -0.404 OA 
HETATM   27  C   UNL     1      -9.695   7.863  67.892  1.00  0.00    -0.184 A  
HETATM   28  C   UNL     1     -10.077   8.213  69.189  1.00  0.00    -0.204 A  
HETATM   29  O   UNL     1     -10.558   7.232  71.306  1.00  0.00    -0.219 OA 
HETATM   30  C   UNL     1     -10.729   7.245  70.100  1.00  0.00    -0.244 C  
ENDBRANCH  21  22
ENDBRANCH   9  21
ENDBRANCH   4   5
ENDBRANCH   3   4
ENDBRANCH   2   3
TORSDOF 8
ENDMDL
MODEL      168
REMARK 921   NORMALIZED FREE ENERGY PREDICTED BY IDOCK:   -4.03 KCAL/MOL
REMARK 922        TOTAL FREE ENERGY PREDICTED BY IDOCK:   -8.03 KCAL/MOL
REMARK 923 INTER-LIGAND FREE ENERGY PREDICTED BY IDOCK:   -7.06 KCAL/MOL
REMARK 924 INTRA-LIGAND FREE ENERGY PREDICTED BY IDOCK:   -0.97 KCAL/MOL
REMARK 927      BINDING AFFINITY PREDICTED BY RF-SCORE:    0.00 PKD
ROOT
HETATM    1  C   UNL     1      -5.303  16.750  70.472  1.00  0.00    -0.203 C  
HETATM    2  C   UNL     1      -5.551  17.362  69.100  1.00  0.00    -0.180 C  
ENDROOT
BRANCH   2   3
HETATM    3  C   UNL     1      -7.026  17.231  68.720  1.00  0.00    -0.230 C  
BRANCH   3   4
HETATM    4  C   UNL     1      -7.315  16.567  67.378  1.00  0.00    -0.176 C  
BRANCH   4   5
HETATM    5  C   UNL     1      -7.751  15.139  67.476  1.00  0.00    -0.181 A  
HETATM    6  N   UNL     1      -6.899  14.141  67.350  1.00  0.00    -0.241 NA 
HETATM    7  C   UNL     1      -7.612  13.004  67.554  1.00  0.00    -0.165 A  
HETATM    8  C   UNL     1      -8.935  13.286  67.799  1.00  0.00    -0.196 A  
HETATM    9  N   UNL     1      -9.046  14.668  67.688  1.00  0.00    -0.188 NA 
BRANCH   8  10
HETATM   10  C   UNL     1     -10.010  12.454  68.161  1.00  0.00    -0.215 C  
HETATM   11  O   UNL     1     -11.055   9.420  69.703  1.00  0.00    -0.222 OA 
HETATM   12  C   UNL     1      -9.856  11.189  68.601  1.00  0.00    -0.207 C  
HETATM   13  C   UNL     1     -11.146  10.506  68.916  1.00  0.00    -0.261 C  
HETATM   14  O   UNL     1     -12.222  10.886  68.477  1.00  0.00    -0.535 OA 
BRANCH  12  15
HETATM   15  C   UNL     1      -8.545  10.458  68.733  1.00  0.00    -0.141 C  
BRANCH  15  16
HETATM   16  C   UNL     1      -8.277   9.354  67.743  1.00  0.00    -0.114 A  
HETATM   17  C   UNL     1      -7.415   7.484  66.649  1.00  0.00    -0.092 A  
HETATM   18  C   UNL     1      -7.522   8.204  67.873  1.00  0.00    -0.098 A  
HETATM   19  C   UNL     1      -8.146   8.068  65.641  1.00  0.00    -0.121 A  
HETATM   20  S   UNL     1      -8.961   9.473  66.171  1.00  0.00    -0.168 SA 
ENDBRANCH  15  16
ENDBRANCH  12  15
ENDBRANCH   8  10
BRANCH   9  21
HETATM   21  C   UNL     1     -10.291  15.444  67.560  1.00  0.00    -0.264 C  
BRANCH  21  22
HETATM   22  C   UNL     1     -11.081  15.601  68.843  1.00  0.00    -0.290 A  
HETATM   23  C   UNL     1     -12.364  15.054  68.987  1.00  0.00    -0.056 A  
HETATM   24  C   UNL     1     -13.021  15.061  70.220  1.00  0.00    -0.206 A  
HETATM   25  C   UNL     1     -10.565  16.332  69.923  1.00  0.00    -0.280 A  
HETATM   26  O   UNL     1     -12.148  15.313  73.651  1.00  0.00    -0.479 OA 
HETATM   27  C   UNL     1     -11.210  16.341  71.163  1.00  0.00    -0.184 A  
HETATM   28  C   UNL     1     -12.407  15.641  71.329  1.00  0.00    -0.484 A  
HETATM   29  O   UNL     1     -14.252  15.457  72.825  1.00  0.00    -0.427 OA 
HETATM   30  C   UNL     1     -13.046  15.488  72.656  1.00  0.00    -0.459 C  
ENDBRANCH  21  22
ENDBRANCH   9  21
ENDBRANCH   4   5
ENDBRANCH   3   4
ENDBRANCH   2   3
TORSDOF 8
ENDMDL
MODEL      169
REMARK 921   NORMALIZED FREE ENERGY PREDICTED BY IDOCK:   -4.03 KCAL/MOL
REMARK 922        TOTAL FREE ENERGY PREDICTED BY IDOCK:   -8.03 KCAL/MOL
REMARK 923 INTER-LIGAND FREE ENERGY PREDICTED BY IDOCK:   -5.90 KCAL/MOL
REMARK 924 INTRA-LIGAND FREE ENERGY PREDICTED BY IDOCK:   -2.13 KCAL/MOL
REMARK 927      BINDING AFFINITY PREDICTED BY RF-SCORE:    0.00 PKD
ROOT
HETATM    1  C   UNL     1      -9.005   1.960  64.912  1.00  0.00    -0.122 C  
HETATM    2  C   UNL     1      -7.661   2.673  64.996  1.00  0.00    -0.077 C  
ENDROOT
BRANCH   2   3
HETATM    3  C   UNL     1      -7.603   3.545  66.252  1.00  0.00    -0.081 C  
BRANCH   3   4
HETATM    4  C   UNL     1      -8.528   4.758  66.266  1.00  0.00    -0.111 C  
BRANCH   4   5
HETATM    5  C   UNL     1      -9.314   4.921  67.529  1.00  0.00    -0.133 A  
HETATM    6  N   UNL     1      -9.250   4.040  68.507  1.00  0.00    -0.138 NA 
HETATM    7  C   UNL     1     -10.027   4.525  69.509  1.00  0.00    -0.165 A  
HETATM    8  C   UNL     1     -10.602   5.722  69.153  1.00  0.00    -0.294 A  
HETATM    9  N   UNL     1     -10.192   5.956  67.844  1.00  0.00    -0.166 NA 
BRANCH   8  10
HETATM   10  C   UNL     1     -11.385   6.630  69.888  1.00  0.00    -0.422 C  
HETATM   11  O   UNL     1     -11.534   9.746  71.604  1.00  0.00    -0.364 OA 
HETATM   12  C   UNL     1     -10.874   7.688  70.550  1.00  0.00    -0.249 C  
HETATM   13  C   UNL     1     -11.905   8.500  71.261  1.00  0.00    -0.291 C  
HETATM   14  O   UNL     1     -13.014   8.068  71.541  1.00  0.00    -0.321 OA 
BRANCH  12  15
HETATM   15  C   UNL     1      -9.414   8.041  70.647  1.00  0.00    -0.167 C  
BRANCH  15  16
HETATM   16  C   UNL     1      -8.694   7.628  71.904  1.00  0.00    -0.113 A  
HETATM   17  C   UNL     1      -7.907   7.488  74.096  1.00  0.00    -0.184 A  
HETATM   18  C   UNL     1      -8.898   8.012  73.216  1.00  0.00    -0.330 A  
HETATM   19  C   UNL     1      -7.020   6.667  73.441  1.00  0.00    -0.076 A  
HETATM   20  S   UNL     1      -7.383   6.524  71.779  1.00  0.00    -0.088 SA 
ENDBRANCH  15  16
ENDBRANCH  12  15
ENDBRANCH   8  10
BRANCH   9  21
HETATM   21  C   UNL     1     -10.764   6.935  66.905  1.00  0.00    -0.316 C  
BRANCH  21  22
HETATM   22  C   UNL     1     -10.245   8.350  67.062  1.00  0.00    -0.377 A  
HETATM   23  C   UNL     1      -8.899   8.669  66.831  1.00  0.00    -0.147 A  
HETATM   24  C   UNL     1      -8.460   9.995  66.818  1.00  0.00    -0.125 A  
HETATM   25  C   UNL     1     -11.092   9.387  67.478  1.00  0.00     0.080 A  
HETATM   26  O   UNL     1      -9.871  13.217  66.344  1.00  0.00    -0.267 OA 
HETATM   27  C   UNL     1     -10.666  10.719  67.463  1.00  0.00    -0.312 A  
HETATM   28  C   UNL     1      -9.365  11.027  67.062  1.00  0.00    -0.186 A  
HETATM   29  O   UNL     1      -7.782  12.807  67.118  1.00  0.00    -0.146 OA 
HETATM   30  C   UNL     1      -8.914  12.426  66.878  1.00  0.00    -0.212 C  
ENDBRANCH  21  22
ENDBRANCH   9  21
ENDBRANCH   4   5
ENDBRANCH   3   4
ENDBRANCH   2   3
TORSDOF 8
ENDMDL
MODEL      170
REMARK 921   NORMALIZED FREE ENERGY PREDICTED BY IDOCK:   -4.02 KCAL/MOL
REMARK 922        TOTAL FREE ENERGY PREDICTED BY IDOCK:   -8.02 KCAL/MOL
REMARK 923 INTER-LIGAND FREE ENERGY PREDICTED BY IDOCK:   -6.53 KCAL/MOL
REMARK 924 INTRA-LIGAND FREE ENERGY PREDICTED BY IDOCK:   -1.49 KCAL/MOL
REMARK 927      BINDING AFFINITY PREDICTED BY RF-SCORE:    0.00 PKD
ROOT
HETATM    1  C   UNL     1      -7.681   8.819  71.860  1.00  0.00    -0.058 C  
HETATM    2  C   UNL     1      -8.846   7.843  71.760  1.00  0.00    -0.163 C  
ENDROOT
BRANCH   2   3
HETATM    3  C   UNL     1     -10.141   8.516  72.217  1.00  0.00    -0.386 C  
BRANCH   3   4
HETATM    4  C   UNL     1     -11.141   8.858  71.118  1.00  0.00    -0.354 C  
BRANCH   4   5
HETATM    5  C   UNL     1     -10.791   8.309  69.771  1.00  0.00    -0.185 A  
HETATM    6  N   UNL     1     -10.972   7.039  69.469  1.00  0.00    -0.238 NA 
HETATM    7  C   UNL     1     -10.614   6.902  68.167  1.00  0.00    -0.216 A  
HETATM    8  C   UNL     1     -10.188   8.100  67.642  1.00  0.00    -0.234 A  
HETATM    9  N   UNL     1     -10.242   9.006  68.696  1.00  0.00    -0.200 NA 
BRANCH   8  10
HETATM   10  C   UNL     1      -9.825   8.462  66.332  1.00  0.00    -0.310 C  
HETATM   11  O   UNL     1      -7.234   8.682  63.901  1.00  0.00    -0.093 OA 
HETATM   12  C   UNL     1      -8.546   8.541  65.910  1.00  0.00    -0.183 C  
HETATM   13  C   UNL     1      -8.416   8.953  64.481  1.00  0.00    -0.161 C  
HETATM   14  O   UNL     1      -9.309   9.520  63.869  1.00  0.00    -0.155 OA 
BRANCH  12  15
HETATM   15  C   UNL     1      -7.325   8.304  66.759  1.00  0.00    -0.083 C  
BRANCH  15  16
HETATM   16  C   UNL     1      -7.173   6.933  67.366  1.00  0.00    -0.090 A  
HETATM   17  C   UNL     1      -6.626   5.147  68.762  1.00  0.00    -0.048 A  
HETATM   18  C   UNL     1      -6.762   6.559  68.632  1.00  0.00    -0.068 A  
HETATM   19  C   UNL     1      -7.003   4.484  67.618  1.00  0.00    -0.060 A  
HETATM   20  S   UNL     1      -7.522   5.558  66.396  1.00  0.00    -0.088 SA 
ENDBRANCH  15  16
ENDBRANCH  12  15
ENDBRANCH   8  10
BRANCH   9  21
HETATM   21  C   UNL     1      -9.613  10.336  68.745  1.00  0.00    -0.175 C  
BRANCH  21  22
HETATM   22  C   UNL     1     -10.089  11.309  67.685  1.00  0.00    -0.201 A  
HETATM   23  C   UNL     1     -11.452  11.479  67.405  1.00  0.00    -0.349 A  
HETATM   24  C   UNL     1     -11.895  12.488  66.546  1.00  0.00    -0.434 A  
HETATM   25  C   UNL     1      -9.175  12.050  66.924  1.00  0.00    -0.197 A  
HETATM   26  O   UNL     1     -10.694  15.592  65.314  1.00  0.00    -0.368 OA 
HETATM   27  C   UNL     1      -9.606  13.067  66.067  1.00  0.00    -0.175 A  
HETATM   28  C   UNL     1     -10.970  13.332  65.934  1.00  0.00    -0.288 A  
HETATM   29  O   UNL     1     -12.504  14.485  64.522  1.00  0.00    -0.600 OA 
HETATM   30  C   UNL     1     -11.470  14.495  65.165  1.00  0.00    -0.368 C  
ENDBRANCH  21  22
ENDBRANCH   9  21
ENDBRANCH   4   5
ENDBRANCH   3   4
ENDBRANCH   2   3
TORSDOF 8
ENDMDL
MODEL      171
REMARK 921   NORMALIZED FREE ENERGY PREDICTED BY IDOCK:   -4.01 KCAL/MOL
REMARK 922        TOTAL FREE ENERGY PREDICTED BY IDOCK:   -8.00 KCAL/MOL
REMARK 923 INTER-LIGAND FREE ENERGY PREDICTED BY IDOCK:   -5.38 KCAL/MOL
REMARK 924 INTRA-LIGAND FREE ENERGY PREDICTED BY IDOCK:   -2.62 KCAL/MOL
REMARK 927      BINDING AFFINITY PREDICTED BY RF-SCORE:    0.00 PKD
ROOT
HETATM    1  C   UNL     1     -10.648   3.760  64.274  1.00  0.00    -0.241 C  
HETATM    2  C   UNL     1      -9.179   4.160  64.334  1.00  0.00    -0.150 C  
ENDROOT
BRANCH   2   3
HETATM    3  C   UNL     1      -8.789   4.526  65.767  1.00  0.00    -0.124 C  
BRANCH   3   4
HETATM    4  C   UNL     1      -9.926   4.992  66.670  1.00  0.00    -0.246 C  
BRANCH   4   5
HETATM    5  C   UNL     1      -9.701   4.740  68.128  1.00  0.00    -0.143 A  
HETATM    6  N   UNL     1      -8.915   3.770  68.552  1.00  0.00    -0.113 NA 
HETATM    7  C   UNL     1      -8.889   3.866  69.906  1.00  0.00    -0.086 A  
HETATM    8  C   UNL     1      -9.680   4.902  70.344  1.00  0.00    -0.214 A  
HETATM    9  N   UNL     1     -10.260   5.436  69.198  1.00  0.00    -0.223 NA 
BRANCH   8  10
HETATM   10  C   UNL     1      -9.879   5.438  71.629  1.00  0.00    -0.223 C  
HETATM   11  O   UNL     1      -8.697   7.637  74.168  1.00  0.00    -0.228 OA 
HETATM   12  C   UNL     1      -8.950   6.164  72.285  1.00  0.00    -0.137 C  
HETATM   13  C   UNL     1      -9.393   6.617  73.636  1.00  0.00    -0.152 C  
HETATM   14  O   UNL     1     -10.315   6.092  74.243  1.00  0.00    -0.281 OA 
BRANCH  12  15
HETATM   15  C   UNL     1      -7.565   6.475  71.783  1.00  0.00    -0.094 C  
BRANCH  15  16
HETATM   16  C   UNL     1      -7.413   7.694  70.910  1.00  0.00    -0.071 A  
HETATM   17  C   UNL     1      -7.386   9.878  70.092  1.00  0.00    -0.166 A  
HETATM   18  C   UNL     1      -7.429   9.036  71.240  1.00  0.00    -0.098 A  
HETATM   19  C   UNL     1      -7.268   9.156  68.927  1.00  0.00    -0.073 A  
HETATM   20  S   UNL     1      -7.205   7.474  69.218  1.00  0.00    -0.089 SA 
ENDBRANCH  15  16
ENDBRANCH  12  15
ENDBRANCH   8  10
BRANCH   9  21
HETATM   21  C   UNL     1     -11.409   6.354  69.139  1.00  0.00    -0.296 C  
BRANCH  21  22
HETATM   22  C   UNL     1     -11.049   7.826  69.087  1.00  0.00     0.139 A  
HETATM   23  C   UNL     1     -10.591   8.428  67.907  1.00  0.00    -0.218 A  
HETATM   24  C   UNL     1     -10.416   9.812  67.820  1.00  0.00    -0.297 A  
HETATM   25  C   UNL     1     -11.133   8.630  70.233  1.00  0.00    -0.230 A  
HETATM   26  O   UNL     1     -11.604  12.711  69.486  1.00  0.00    -0.287 OA 
HETATM   27  C   UNL     1     -10.967  10.016  70.157  1.00  0.00    -0.368 A  
HETATM   28  C   UNL     1     -10.678  10.614  68.929  1.00  0.00    -0.254 A  
HETATM   29  O   UNL     1      -9.888  12.665  68.010  1.00  0.00    -0.205 OA 
HETATM   30  C   UNL     1     -10.648  12.086  68.764  1.00  0.00    -0.209 C  
ENDBRANCH  21  22
ENDBRANCH   9  21
ENDBRANCH   4   5
ENDBRANCH   3   4
ENDBRANCH   2   3
TORSDOF 8
ENDMDL
MODEL      172
REMARK 921   NORMALIZED FREE ENERGY PREDICTED BY IDOCK:   -4.00 KCAL/MOL
REMARK 922        TOTAL FREE ENERGY PREDICTED BY IDOCK:   -7.98 KCAL/MOL
REMARK 923 INTER-LIGAND FREE ENERGY PREDICTED BY IDOCK:   -5.69 KCAL/MOL
REMARK 924 INTRA-LIGAND FREE ENERGY PREDICTED BY IDOCK:   -2.29 KCAL/MOL
REMARK 927      BINDING AFFINITY PREDICTED BY RF-SCORE:    0.00 PKD
ROOT
HETATM    1  C   UNL     1      -7.298  11.112  66.579  1.00  0.00    -0.129 C  
HETATM    2  C   UNL     1      -8.741  10.967  67.045  1.00  0.00    -0.141 C  
ENDROOT
BRANCH   2   3
HETATM    3  C   UNL     1      -9.022  11.926  68.202  1.00  0.00    -0.185 C  
BRANCH   3   4
HETATM    4  C   UNL     1      -8.236  13.233  68.194  1.00  0.00    -0.160 C  
BRANCH   4   5
HETATM    5  C   UNL     1      -9.058  14.450  68.478  1.00  0.00    -0.193 A  
HETATM    6  N   UNL     1      -9.671  14.621  69.632  1.00  0.00     0.124 NA 
HETATM    7  C   UNL     1     -10.261  15.842  69.573  1.00  0.00    -0.279 A  
HETATM    8  C   UNL     1     -10.029  16.446  68.360  1.00  0.00    -0.238 A  
HETATM    9  N   UNL     1      -9.299  15.521  67.620  1.00  0.00    -0.202 NA 
BRANCH   8  10
HETATM   10  C   UNL     1     -10.347  17.732  67.887  1.00  0.00    -0.388 C  
HETATM   11  O   UNL     1      -9.192  21.021  67.163  1.00  0.00    -0.241 OA 
HETATM   12  C   UNL     1      -9.520  18.791  68.001  1.00  0.00    -0.349 C  
HETATM   13  C   UNL     1     -10.084  20.050  67.429  1.00  0.00    -0.428 C  
HETATM   14  O   UNL     1     -11.279  20.212  67.229  1.00  0.00     0.052 OA 
BRANCH  12  15
HETATM   15  C   UNL     1      -8.173  18.785  68.674  1.00  0.00    -0.363 C  
BRANCH  15  16
HETATM   16  C   UNL     1      -7.037  18.144  67.921  1.00  0.00    -0.218 A  
HETATM   17  C   UNL     1      -5.522  17.498  66.270  1.00  0.00    -0.234 A  
HETATM   18  C   UNL     1      -6.515  18.435  66.675  1.00  0.00    -0.216 A  
HETATM   19  C   UNL     1      -5.267  16.563  67.246  1.00  0.00    -0.118 A  
HETATM   20  S   UNL     1      -6.215  16.818  68.642  1.00  0.00    -0.157 SA 
ENDBRANCH  15  16
ENDBRANCH  12  15
ENDBRANCH   8  10
BRANCH   9  21
HETATM   21  C   UNL     1      -9.060  15.549  66.167  1.00  0.00    -0.324 C  
BRANCH  21  22
HETATM   22  C   UNL     1     -10.005  14.693  65.347  1.00  0.00    -0.365 A  
HETATM   23  C   UNL     1      -9.589  13.484  64.773  1.00  0.00     0.428 A  
HETATM   24  C   UNL     1     -10.500  12.622  64.158  1.00  0.00    -0.438 A  
HETATM   25  C   UNL     1     -11.325  15.102  65.108  1.00  0.00    -0.357 A  
HETATM   26  O   UNL     1     -13.994  12.008  64.247  1.00  0.00     0.342 OA 
HETATM   27  C   UNL     1     -12.247  14.246  64.499  1.00  0.00    -0.476 A  
HETATM   28  C   UNL     1     -11.847  12.973  64.088  1.00  0.00    -0.478 A  
HETATM   29  O   UNL     1     -12.559  11.163  62.713  1.00  0.00     0.385 OA 
HETATM   30  C   UNL     1     -12.817  11.973  63.584  1.00  0.00    -0.346 C  
ENDBRANCH  21  22
ENDBRANCH   9  21
ENDBRANCH   4   5
ENDBRANCH   3   4
ENDBRANCH   2   3
TORSDOF 8
ENDMDL
MODEL      173
REMARK 921   NORMALIZED FREE ENERGY PREDICTED BY IDOCK:   -3.97 KCAL/MOL
REMARK 922        TOTAL FREE ENERGY PREDICTED BY IDOCK:   -7.95 KCAL/MOL
REMARK 923 INTER-LIGAND FREE ENERGY PREDICTED BY IDOCK:   -6.49 KCAL/MOL
REMARK 924 INTRA-LIGAND FREE ENERGY PREDICTED BY IDOCK:   -1.45 KCAL/MOL
REMARK 927      BINDING AFFINITY PREDICTED BY RF-SCORE:    0.00 PKD
ROOT
HETATM    1  C   UNL     1     -13.453   9.219  72.340  1.00  0.00    -0.526 C  
HETATM    2  C   UNL     1     -12.566   9.564  71.150  1.00  0.00    -0.383 C  
ENDROOT
BRANCH   2   3
HETATM    3  C   UNL     1     -12.666  11.057  70.832  1.00  0.00    -0.452 C  
BRANCH   3   4
HETATM    4  C   UNL     1     -12.399  11.450  69.383  1.00  0.00    -0.184 C  
BRANCH   4   5
HETATM    5  C   UNL     1     -11.816  12.818  69.210  1.00  0.00    -0.303 A  
HETATM    6  N   UNL     1     -12.014  13.775  70.095  1.00  0.00    -0.325 NA 
HETATM    7  C   UNL     1     -11.300  14.845  69.664  1.00  0.00    -0.282 A  
HETATM    8  C   UNL     1     -10.653  14.566  68.483  1.00  0.00    -0.252 A  
HETATM    9  N   UNL     1     -11.033  13.270  68.150  1.00  0.00    -0.246 NA 
BRANCH   8  10
HETATM   10  C   UNL     1      -9.733  15.316  67.729  1.00  0.00    -0.215 C  
HETATM   11  O   UNL     1      -6.325  15.865  66.855  1.00  0.00    -0.301 OA 
HETATM   12  C   UNL     1      -8.398  15.258  67.912  1.00  0.00    -0.152 C  
HETATM   13  C   UNL     1      -7.632  16.152  66.995  1.00  0.00    -0.225 C  
HETATM   14  O   UNL     1      -8.139  17.101  66.415  1.00  0.00    -0.256 OA 
BRANCH  12  15
HETATM   15  C   UNL     1      -7.690  14.435  68.956  1.00  0.00    -0.093 C  
BRANCH  15  16
HETATM   16  C   UNL     1      -6.963  13.204  68.477  1.00  0.00    -0.103 A  
HETATM   17  C   UNL     1      -6.193  11.406  67.208  1.00  0.00    -0.093 A  
HETATM   18  C   UNL     1      -6.871  12.659  67.211  1.00  0.00    -0.102 A  
HETATM   19  C   UNL     1      -5.729  11.068  68.458  1.00  0.00    -0.043 A  
HETATM   20  S   UNL     1      -6.105  12.256  69.625  1.00  0.00    -0.135 SA 
ENDBRANCH  15  16
ENDBRANCH  12  15
ENDBRANCH   8  10
BRANCH   9  21
HETATM   21  C   UNL     1     -10.865  12.612  66.844  1.00  0.00    -0.254 C  
BRANCH  21  22
HETATM   22  C   UNL     1     -10.273  11.218  66.902  1.00  0.00    -0.254 A  
HETATM   23  C   UNL     1     -10.311  10.358  65.795  1.00  0.00    -0.257 A  
HETATM   24  C   UNL     1      -9.625   9.141  65.799  1.00  0.00    -0.323 A  
HETATM   25  C   UNL     1      -9.693  10.729  68.081  1.00  0.00    -0.169 A  
HETATM   26  O   UNL     1      -6.892   7.681  67.529  1.00  0.00    -0.065 OA 
HETATM   27  C   UNL     1      -8.998   9.516  68.095  1.00  0.00    -0.123 A  
HETATM   28  C   UNL     1      -8.904   8.755  66.928  1.00  0.00    -0.142 A  
HETATM   29  O   UNL     1      -8.334   6.564  66.187  1.00  0.00    -0.117 OA 
HETATM   30  C   UNL     1      -8.052   7.547  66.848  1.00  0.00    -0.116 C  
ENDBRANCH  21  22
ENDBRANCH   9  21
ENDBRANCH   4   5
ENDBRANCH   3   4
ENDBRANCH   2   3
TORSDOF 8
ENDMDL
MODEL      174
REMARK 921   NORMALIZED FREE ENERGY PREDICTED BY IDOCK:   -3.97 KCAL/MOL
REMARK 922        TOTAL FREE ENERGY PREDICTED BY IDOCK:   -7.94 KCAL/MOL
REMARK 923 INTER-LIGAND FREE ENERGY PREDICTED BY IDOCK:   -7.42 KCAL/MOL
REMARK 924 INTRA-LIGAND FREE ENERGY PREDICTED BY IDOCK:   -0.53 KCAL/MOL
REMARK 927      BINDING AFFINITY PREDICTED BY RF-SCORE:    0.00 PKD
ROOT
HETATM    1  C   UNL     1      -8.830   8.778  62.571  1.00  0.00    -0.043 C  
HETATM    2  C   UNL     1      -8.357   9.950  63.421  1.00  0.00    -0.168 C  
ENDROOT
BRANCH   2   3
HETATM    3  C   UNL     1      -9.404  11.064  63.417  1.00  0.00    -0.296 C  
BRANCH   3   4
HETATM    4  C   UNL     1     -10.545  10.912  64.418  1.00  0.00    -0.343 C  
BRANCH   4   5
HETATM    5  C   UNL     1     -11.065  12.205  64.963  1.00  0.00    -0.320 A  
HETATM    6  N   UNL     1     -12.276  12.642  64.680  1.00  0.00    -0.428 NA 
HETATM    7  C   UNL     1     -12.439  13.793  65.381  1.00  0.00    -0.500 A  
HETATM    8  C   UNL     1     -11.311  14.095  66.107  1.00  0.00    -0.337 A  
HETATM    9  N   UNL     1     -10.391  13.099  65.792  1.00  0.00    -0.285 NA 
BRANCH   8  10
HETATM   10  C   UNL     1     -11.054  15.112  67.044  1.00  0.00    -0.328 C  
HETATM   11  O   UNL     1     -10.542  15.970  70.461  1.00  0.00    -0.213 OA 
HETATM   12  C   UNL     1     -11.152  14.937  68.377  1.00  0.00    -0.282 C  
HETATM   13  C   UNL     1     -10.837  16.166  69.164  1.00  0.00    -0.298 C  
HETATM   14  O   UNL     1     -10.860  17.288  68.680  1.00  0.00    -0.307 OA 
BRANCH  12  15
HETATM   15  C   UNL     1     -11.585  13.670  69.067  1.00  0.00    -0.356 C  
BRANCH  15  16
HETATM   16  C   UNL     1     -12.520  13.817  70.239  1.00  0.00    -0.289 A  
HETATM   17  C   UNL     1     -13.915  14.670  71.903  1.00  0.00    -0.573 A  
HETATM   18  C   UNL     1     -13.254  14.909  70.663  1.00  0.00    -0.319 A  
HETATM   19  C   UNL     1     -13.722  13.383  72.351  1.00  0.00    -0.597 A  
HETATM   20  S   UNL     1     -12.754  12.470  71.280  1.00  0.00    -0.147 SA 
ENDBRANCH  15  16
ENDBRANCH  12  15
ENDBRANCH   8  10
BRANCH   9  21
HETATM   21  C   UNL     1      -8.943  13.123  66.060  1.00  0.00     0.343 C  
BRANCH  21  22
HETATM   22  C   UNL     1      -8.506  12.335  67.278  1.00  0.00    -0.181 A  
HETATM   23  C   UNL     1      -9.409  11.549  68.008  1.00  0.00    -0.175 A  
HETATM   24  C   UNL     1      -8.972  10.700  69.028  1.00  0.00    -0.165 A  
HETATM   25  C   UNL     1      -7.181  12.392  67.736  1.00  0.00    -0.119 A  
HETATM   26  O   UNL     1      -5.956   9.092  69.984  1.00  0.00    -0.030 OA 
HETATM   27  C   UNL     1      -6.731  11.543  68.751  1.00  0.00    -0.079 A  
HETATM   28  C   UNL     1      -7.617  10.643  69.348  1.00  0.00    -0.135 A  
HETATM   29  O   UNL     1      -7.820   9.240  71.262  1.00  0.00    -0.322 OA 
HETATM   30  C   UNL     1      -7.157   9.618  70.313  1.00  0.00    -0.127 C  
ENDBRANCH  21  22
ENDBRANCH   9  21
ENDBRANCH   4   5
ENDBRANCH   3   4
ENDBRANCH   2   3
TORSDOF 8
ENDMDL
MODEL      175
REMARK 921   NORMALIZED FREE ENERGY PREDICTED BY IDOCK:   -3.93 KCAL/MOL
REMARK 922        TOTAL FREE ENERGY PREDICTED BY IDOCK:   -7.89 KCAL/MOL
REMARK 923 INTER-LIGAND FREE ENERGY PREDICTED BY IDOCK:   -5.81 KCAL/MOL
REMARK 924 INTRA-LIGAND FREE ENERGY PREDICTED BY IDOCK:   -2.08 KCAL/MOL
REMARK 927      BINDING AFFINITY PREDICTED BY RF-SCORE:    0.00 PKD
ROOT
HETATM    1  C   UNL     1     -10.247   7.038  71.579  1.00  0.00    -0.211 C  
HETATM    2  C   UNL     1     -11.438   7.579  70.797  1.00  0.00    -0.305 C  
ENDROOT
BRANCH   2   3
HETATM    3  C   UNL     1     -11.624   9.070  71.082  1.00  0.00    -0.372 C  
BRANCH   3   4
HETATM    4  C   UNL     1     -10.621  10.008  70.417  1.00  0.00    -0.343 C  
BRANCH   4   5
HETATM    5  C   UNL     1     -11.226  10.977  69.452  1.00  0.00    -0.268 A  
HETATM    6  N   UNL     1     -11.762  12.114  69.852  1.00  0.00    -0.311 NA 
HETATM    7  C   UNL     1     -12.151  12.767  68.727  1.00  0.00    -0.128 A  
HETATM    8  C   UNL     1     -11.870  12.028  67.603  1.00  0.00    -0.224 A  
HETATM    9  N   UNL     1     -11.325  10.836  68.069  1.00  0.00    -0.380 NA 
BRANCH   8  10
HETATM   10  C   UNL     1     -11.995  12.334  66.235  1.00  0.00    -0.307 C  
HETATM   11  O   UNL     1     -10.417  13.563  63.290  1.00  0.00     0.852 OA 
HETATM   12  C   UNL     1     -11.071  13.029  65.541  1.00  0.00    -0.300 C  
HETATM   13  C   UNL     1     -11.432  13.233  64.107  1.00  0.00    -0.396 C  
HETATM   14  O   UNL     1     -12.577  13.130  63.690  1.00  0.00    -0.705 OA 
BRANCH  12  15
HETATM   15  C   UNL     1      -9.806  13.617  66.108  1.00  0.00    -0.304 C  
BRANCH  15  16
HETATM   16  C   UNL     1      -9.851  15.066  66.518  1.00  0.00    -0.260 A  
HETATM   17  C   UNL     1     -10.552  17.184  67.198  1.00  0.00    -0.244 A  
HETATM   18  C   UNL     1     -10.873  15.800  67.090  1.00  0.00    -0.289 A  
HETATM   19  C   UNL     1      -9.272  17.452  66.772  1.00  0.00    -0.260 A  
HETATM   20  S   UNL     1      -8.462  16.042  66.249  1.00  0.00    -0.212 SA 
ENDBRANCH  15  16
ENDBRANCH  12  15
ENDBRANCH   8  10
BRANCH   9  21
HETATM   21  C   UNL     1     -11.137   9.594  67.301  1.00  0.00     0.120 C  
BRANCH  21  22
HETATM   22  C   UNL     1      -9.695   9.242  66.997  1.00  0.00    -0.241 A  
HETATM   23  C   UNL     1      -9.242   7.915  67.024  1.00  0.00    -0.181 A  
HETATM   24  C   UNL     1      -7.958   7.579  66.587  1.00  0.00    -0.110 A  
HETATM   25  C   UNL     1      -8.754  10.241  66.709  1.00  0.00    -0.132 A  
HETATM   26  O   UNL     1      -5.463   8.963  64.477  1.00  0.00    -0.053 OA 
HETATM   27  C   UNL     1      -7.469   9.916  66.264  1.00  0.00    -0.102 A  
HETATM   28  C   UNL     1      -7.096   8.576  66.135  1.00  0.00    -0.077 A  
HETATM   29  O   UNL     1      -5.162   7.209  65.878  1.00  0.00    -0.022 OA 
HETATM   30  C   UNL     1      -5.808   8.178  65.523  1.00  0.00    -0.041 C  
ENDBRANCH  21  22
ENDBRANCH   9  21
ENDBRANCH   4   5
ENDBRANCH   3   4
ENDBRANCH   2   3
TORSDOF 8
ENDMDL
MODEL      176
REMARK 921   NORMALIZED FREE ENERGY PREDICTED BY IDOCK:   -3.89 KCAL/MOL
REMARK 922        TOTAL FREE ENERGY PREDICTED BY IDOCK:   -7.83 KCAL/MOL
REMARK 923 INTER-LIGAND FREE ENERGY PREDICTED BY IDOCK:   -6.39 KCAL/MOL
REMARK 924 INTRA-LIGAND FREE ENERGY PREDICTED BY IDOCK:   -1.44 KCAL/MOL
REMARK 927      BINDING AFFINITY PREDICTED BY RF-SCORE:    0.00 PKD
ROOT
HETATM    1  C   UNL     1     -11.816   8.382  72.284  1.00  0.00    -0.456 C  
HETATM    2  C   UNL     1     -12.099   9.847  71.976  1.00  0.00    -0.103 C  
ENDROOT
BRANCH   2   3
HETATM    3  C   UNL     1     -12.360  10.033  70.481  1.00  0.00    -0.282 C  
BRANCH   3   4
HETATM    4  C   UNL     1     -11.342  10.881  69.725  1.00  0.00    -0.374 C  
BRANCH   4   5
HETATM    5  C   UNL     1     -10.624  10.155  68.631  1.00  0.00    -0.210 A  
HETATM    6  N   UNL     1     -10.838   8.878  68.387  1.00  0.00    -0.065 NA 
HETATM    7  C   UNL     1     -10.081   8.565  67.304  1.00  0.00    -0.251 A  
HETATM    8  C   UNL     1      -9.369   9.657  66.866  1.00  0.00    -0.146 A  
HETATM    9  N   UNL     1      -9.670  10.679  67.761  1.00  0.00    -0.160 NA 
BRANCH   8  10
HETATM   10  C   UNL     1      -8.547   9.837  65.739  1.00  0.00    -0.147 C  
HETATM   11  O   UNL     1      -5.322   9.413  64.291  1.00  0.00    -0.057 OA 
HETATM   12  C   UNL     1      -7.209   9.668  65.759  1.00  0.00    -0.100 C  
HETATM   13  C   UNL     1      -6.556   9.925  64.441  1.00  0.00    -0.125 C  
HETATM   14  O   UNL     1      -7.088  10.574  63.552  1.00  0.00    -0.058 OA 
BRANCH  12  15
HETATM   15  C   UNL     1      -6.388   9.310  66.969  1.00  0.00    -0.066 C  
BRANCH  15  16
HETATM   16  C   UNL     1      -5.868  10.452  67.803  1.00  0.00    -0.044 A  
HETATM   17  C   UNL     1      -5.234  11.828  69.577  1.00  0.00    -0.058 A  
HETATM   18  C   UNL     1      -5.580  10.512  69.154  1.00  0.00    -0.041 A  
HETATM   19  C   UNL     1      -5.201  12.715  68.527  1.00  0.00    -0.058 A  
HETATM   20  S   UNL     1      -5.580  11.965  67.041  1.00  0.00    -0.099 SA 
ENDBRANCH  15  16
ENDBRANCH  12  15
ENDBRANCH   8  10
BRANCH   9  21
HETATM   21  C   UNL     1      -8.945  11.950  67.919  1.00  0.00    -0.179 C  
BRANCH  21  22
HETATM   22  C   UNL     1      -9.387  13.059  66.984  1.00  0.00    -0.236 A  
HETATM   23  C   UNL     1     -10.440  12.877  66.077  1.00  0.00    -0.290 A  
HETATM   24  C   UNL     1     -10.950  13.946  65.334  1.00  0.00    -0.316 A  
HETATM   25  C   UNL     1      -8.732  14.298  66.975  1.00  0.00    -0.231 A  
HETATM   26  O   UNL     1     -11.024  17.487  65.553  1.00  0.00    -0.296 OA 
HETATM   27  C   UNL     1      -9.236  15.376  66.241  1.00  0.00    -0.354 A  
HETATM   28  C   UNL     1     -10.392  15.215  65.475  1.00  0.00    -0.399 A  
HETATM   29  O   UNL     1     -11.622  16.278  63.734  1.00  0.00    -0.952 OA 
HETATM   30  C   UNL     1     -11.054  16.360  64.807  1.00  0.00    -0.235 C  
ENDBRANCH  21  22
ENDBRANCH   9  21
ENDBRANCH   4   5
ENDBRANCH   3   4
ENDBRANCH   2   3
TORSDOF 8
ENDMDL
MODEL      177
REMARK 921   NORMALIZED FREE ENERGY PREDICTED BY IDOCK:   -3.86 KCAL/MOL
REMARK 922        TOTAL FREE ENERGY PREDICTED BY IDOCK:   -7.78 KCAL/MOL
REMARK 923 INTER-LIGAND FREE ENERGY PREDICTED BY IDOCK:   -6.13 KCAL/MOL
REMARK 924 INTRA-LIGAND FREE ENERGY PREDICTED BY IDOCK:   -1.66 KCAL/MOL
REMARK 927      BINDING AFFINITY PREDICTED BY RF-SCORE:    0.00 PKD
ROOT
HETATM    1  C   UNL     1     -12.185   7.299  71.670  1.00  0.00    -0.377 C  
HETATM    2  C   UNL     1     -11.754   8.616  72.301  1.00  0.00    -0.428 C  
ENDROOT
BRANCH   2   3
HETATM    3  C   UNL     1     -11.429   9.642  71.214  1.00  0.00    -0.463 C  
BRANCH   3   4
HETATM    4  C   UNL     1     -10.047   9.529  70.580  1.00  0.00    -0.347 C  
BRANCH   4   5
HETATM    5  C   UNL     1     -10.060   9.136  69.136  1.00  0.00    -0.194 A  
HETATM    6  N   UNL     1     -10.655   8.036  68.720  1.00  0.00    -0.165 NA 
HETATM    7  C   UNL     1     -10.531   8.023  67.368  1.00  0.00    -0.287 A  
HETATM    8  C   UNL     1      -9.835   9.123  66.925  1.00  0.00    -0.217 A  
HETATM    9  N   UNL     1      -9.472   9.820  68.074  1.00  0.00    -0.131 NA 
BRANCH   8  10
HETATM   10  C   UNL     1      -9.554   9.582  65.625  1.00  0.00    -0.346 C  
HETATM   11  O   UNL     1      -7.495   9.302  62.735  1.00  0.00    -0.104 OA 
HETATM   12  C   UNL     1      -8.435   9.258  64.947  1.00  0.00    -0.182 C  
HETATM   13  C   UNL     1      -8.361   9.874  63.590  1.00  0.00    -0.164 C  
HETATM   14  O   UNL     1      -9.024  10.849  63.266  1.00  0.00    -0.205 OA 
BRANCH  12  15
HETATM   15  C   UNL     1      -7.307   8.408  65.471  1.00  0.00    -0.083 C  
BRANCH  15  16
HETATM   16  C   UNL     1      -7.429   6.919  65.281  1.00  0.00    -0.089 A  
HETATM   17  C   UNL     1      -7.969   4.797  64.476  1.00  0.00    -0.100 A  
HETATM   18  C   UNL     1      -7.891   6.193  64.199  1.00  0.00    -0.117 A  
HETATM   19  C   UNL     1      -7.500   4.494  65.733  1.00  0.00    -0.081 A  
HETATM   20  S   UNL     1      -6.966   5.882  66.571  1.00  0.00    -0.061 SA 
ENDBRANCH  15  16
ENDBRANCH  12  15
ENDBRANCH   8  10
BRANCH   9  21
HETATM   21  C   UNL     1      -8.469  10.893  68.172  1.00  0.00    -0.131 C  
BRANCH  21  22
HETATM   22  C   UNL     1      -9.014  12.296  67.993  1.00  0.00    -0.190 A  
HETATM   23  C   UNL     1     -10.354  12.604  68.267  1.00  0.00    -0.246 A  
HETATM   24  C   UNL     1     -10.812  13.924  68.257  1.00  0.00    -0.263 A  
HETATM   25  C   UNL     1      -8.198  13.331  67.514  1.00  0.00    -0.184 A  
HETATM   26  O   UNL     1      -9.429  17.176  68.580  1.00  0.00    -0.261 OA 
HETATM   27  C   UNL     1      -8.642  14.656  67.506  1.00  0.00    -0.196 A  
HETATM   28  C   UNL     1      -9.932  14.959  67.948  1.00  0.00    -0.219 A  
HETATM   29  O   UNL     1     -11.540  16.716  67.901  1.00  0.00    -0.008 OA 
HETATM   30  C   UNL     1     -10.395  16.357  68.108  1.00  0.00    -0.283 C  
ENDBRANCH  21  22
ENDBRANCH   9  21
ENDBRANCH   4   5
ENDBRANCH   3   4
ENDBRANCH   2   3
TORSDOF 8
ENDMDL
MODEL      178
REMARK 921   NORMALIZED FREE ENERGY PREDICTED BY IDOCK:   -3.86 KCAL/MOL
REMARK 922        TOTAL FREE ENERGY PREDICTED BY IDOCK:   -7.78 KCAL/MOL
REMARK 923 INTER-LIGAND FREE ENERGY PREDICTED BY IDOCK:   -6.33 KCAL/MOL
REMARK 924 INTRA-LIGAND FREE ENERGY PREDICTED BY IDOCK:   -1.45 KCAL/MOL
REMARK 927      BINDING AFFINITY PREDICTED BY RF-SCORE:    0.00 PKD
ROOT
HETATM    1  C   UNL     1      -6.403  19.481  67.616  1.00  0.00    -0.228 C  
HETATM    2  C   UNL     1      -7.296  18.484  66.889  1.00  0.00    -0.228 C  
ENDROOT
BRANCH   2   3
HETATM    3  C   UNL     1      -8.342  17.914  67.848  1.00  0.00    -0.247 C  
BRANCH   3   4
HETATM    4  C   UNL     1      -8.923  16.554  67.472  1.00  0.00    -0.201 C  
BRANCH   4   5
HETATM    5  C   UNL     1      -8.026  15.395  67.771  1.00  0.00    -0.146 A  
HETATM    6  N   UNL     1      -6.765  15.374  67.386  1.00  0.00    -0.233 NA 
HETATM    7  C   UNL     1      -6.237  14.221  67.872  1.00  0.00    -0.157 A  
HETATM    8  C   UNL     1      -7.181  13.497  68.562  1.00  0.00    -0.110 A  
HETATM    9  N   UNL     1      -8.362  14.225  68.448  1.00  0.00    -0.159 NA 
BRANCH   8  10
HETATM   10  C   UNL     1      -7.076  12.313  69.314  1.00  0.00     0.061 C  
HETATM   11  O   UNL     1      -5.877   8.964  69.465  1.00  0.00    -0.033 OA 
HETATM   12  C   UNL     1      -6.652  11.141  68.800  1.00  0.00    -0.059 C  
HETATM   13  C   UNL     1      -6.633  10.027  69.793  1.00  0.00    -0.074 C  
HETATM   14  O   UNL     1      -7.274  10.055  70.834  1.00  0.00    -0.326 OA 
BRANCH  12  15
HETATM   15  C   UNL     1      -6.272  10.899  67.363  1.00  0.00    -0.056 C  
BRANCH  15  16
HETATM   16  C   UNL     1      -7.209  10.049  66.544  1.00  0.00    -0.101 A  
HETATM   17  C   UNL     1      -8.776   8.466  65.852  1.00  0.00    -0.197 A  
HETATM   18  C   UNL     1      -8.207   9.181  66.945  1.00  0.00    -0.116 A  
HETATM   19  C   UNL     1      -8.245   8.860  64.646  1.00  0.00    -0.163 A  
HETATM   20  S   UNL     1      -7.072  10.087  64.831  1.00  0.00    -0.134 SA 
ENDBRANCH  15  16
ENDBRANCH  12  15
ENDBRANCH   8  10
BRANCH   9  21
HETATM   21  C   UNL     1      -9.722  13.745  68.744  1.00  0.00    -0.065 C  
BRANCH  21  22
HETATM   22  C   UNL     1     -10.480  13.197  67.552  1.00  0.00    -0.229 A  
HETATM   23  C   UNL     1     -11.580  13.874  67.006  1.00  0.00    -0.394 A  
HETATM   24  C   UNL     1     -12.173  13.452  65.814  1.00  0.00    -0.507 A  
HETATM   25  C   UNL     1     -10.124  11.971  66.973  1.00  0.00    -0.221 A  
HETATM   26  O   UNL     1     -11.268  11.514  62.982  1.00  0.00    -0.141 OA 
HETATM   27  C   UNL     1     -10.706  11.541  65.776  1.00  0.00    -0.325 A  
HETATM   28  C   UNL     1     -11.684  12.323  65.159  1.00  0.00    -0.414 A  
HETATM   29  O   UNL     1     -13.369  12.196  63.480  1.00  0.00    -0.628 OA 
HETATM   30  C   UNL     1     -12.217  11.994  63.817  1.00  0.00    -0.498 C  
ENDBRANCH  21  22
ENDBRANCH   9  21
ENDBRANCH   4   5
ENDBRANCH   3   4
ENDBRANCH   2   3
TORSDOF 8
ENDMDL
MODEL      179
REMARK 921   NORMALIZED FREE ENERGY PREDICTED BY IDOCK:   -3.82 KCAL/MOL
REMARK 922        TOTAL FREE ENERGY PREDICTED BY IDOCK:   -7.73 KCAL/MOL
REMARK 923 INTER-LIGAND FREE ENERGY PREDICTED BY IDOCK:   -6.25 KCAL/MOL
REMARK 924 INTRA-LIGAND FREE ENERGY PREDICTED BY IDOCK:   -1.47 KCAL/MOL
REMARK 927      BINDING AFFINITY PREDICTED BY RF-SCORE:    0.00 PKD
ROOT
HETATM    1  C   UNL     1      -9.621  11.082  62.932  1.00  0.00    -0.369 C  
HETATM    2  C   UNL     1      -9.865  11.184  64.432  1.00  0.00    -0.334 C  
ENDROOT
BRANCH   2   3
HETATM    3  C   UNL     1      -9.037  10.136  65.175  1.00  0.00    -0.242 C  
BRANCH   3   4
HETATM    4  C   UNL     1      -8.210  10.647  66.351  1.00  0.00    -0.146 C  
BRANCH   4   5
HETATM    5  C   UNL     1      -7.912   9.616  67.393  1.00  0.00    -0.106 A  
HETATM    6  N   UNL     1      -6.691   9.161  67.592  1.00  0.00    -0.068 NA 
HETATM    7  C   UNL     1      -6.771   8.299  68.637  1.00  0.00    -0.059 A  
HETATM    8  C   UNL     1      -8.063   8.197  69.097  1.00  0.00    -0.121 A  
HETATM    9  N   UNL     1      -8.821   9.003  68.253  1.00  0.00    -0.133 NA 
BRANCH   8  10
HETATM   10  C   UNL     1      -8.604   7.519  70.204  1.00  0.00    -0.141 C  
HETATM   11  O   UNL     1      -9.059   4.409  71.877  1.00  0.00    -0.121 OA 
HETATM   12  C   UNL     1      -8.679   6.175  70.290  1.00  0.00    -0.145 C  
HETATM   13  C   UNL     1      -9.299   5.694  71.559  1.00  0.00    -0.146 C  
HETATM   14  O   UNL     1     -10.001   6.402  72.267  1.00  0.00    -0.166 OA 
BRANCH  12  15
HETATM   15  C   UNL     1      -8.249   5.202  69.224  1.00  0.00    -0.084 C  
BRANCH  15  16
HETATM   16  C   UNL     1      -9.059   5.180  67.954  1.00  0.00    -0.112 A  
HETATM   17  C   UNL     1     -10.773   4.941  66.391  1.00  0.00    -0.170 A  
HETATM   18  C   UNL     1     -10.422   5.048  67.767  1.00  0.00    -0.053 A  
HETATM   19  C   UNL     1      -9.678   5.063  65.568  1.00  0.00    -0.063 A  
HETATM   20  S   UNL     1      -8.237   5.311  66.450  1.00  0.00    -0.109 SA 
ENDBRANCH  15  16
ENDBRANCH  12  15
ENDBRANCH   8  10
BRANCH   9  21
HETATM   21  C   UNL     1     -10.287   9.007  68.124  1.00  0.00    -0.214 C  
BRANCH  21  22
HETATM   22  C   UNL     1     -10.970  10.265  68.623  1.00  0.00    -0.289 A  
HETATM   23  C   UNL     1     -11.453  10.367  69.935  1.00  0.00    -0.368 A  
HETATM   24  C   UNL     1     -11.933  11.578  70.439  1.00  0.00    -0.459 A  
HETATM   25  C   UNL     1     -11.171  11.363  67.773  1.00  0.00    -0.346 A  
HETATM   26  O   UNL     1     -11.589  15.036  69.716  1.00  0.00    -0.267 OA 
HETATM   27  C   UNL     1     -11.644  12.582  68.267  1.00  0.00    -0.376 A  
HETATM   28  C   UNL     1     -11.958  12.707  69.622  1.00  0.00    -0.352 A  
HETATM   29  O   UNL     1     -13.117  14.143  71.129  1.00  0.00    -0.337 OA 
HETATM   30  C   UNL     1     -12.312  14.013  70.225  1.00  0.00    -0.358 C  
ENDBRANCH  21  22
ENDBRANCH   9  21
ENDBRANCH   4   5
ENDBRANCH   3   4
ENDBRANCH   2   3
TORSDOF 8
ENDMDL
MODEL      180
REMARK 921   NORMALIZED FREE ENERGY PREDICTED BY IDOCK:   -3.79 KCAL/MOL
REMARK 922        TOTAL FREE ENERGY PREDICTED BY IDOCK:   -7.68 KCAL/MOL
REMARK 923 INTER-LIGAND FREE ENERGY PREDICTED BY IDOCK:   -5.76 KCAL/MOL
REMARK 924 INTRA-LIGAND FREE ENERGY PREDICTED BY IDOCK:   -1.92 KCAL/MOL
REMARK 927      BINDING AFFINITY PREDICTED BY RF-SCORE:    0.00 PKD
ROOT
HETATM    1  C   UNL     1     -12.378  13.028  70.469  1.00  0.00    -0.365 C  
HETATM    2  C   UNL     1     -12.918  11.967  71.419  1.00  0.00    -0.385 C  
ENDROOT
BRANCH   2   3
HETATM    3  C   UNL     1     -12.566  10.570  70.905  1.00  0.00    -0.493 C  
BRANCH   3   4
HETATM    4  C   UNL     1     -11.508   9.812  71.699  1.00  0.00    -0.294 C  
BRANCH   4   5
HETATM    5  C   UNL     1     -11.156   8.470  71.138  1.00  0.00    -0.260 A  
HETATM    6  N   UNL     1     -12.081   7.609  70.764  1.00  0.00    -0.188 NA 
HETATM    7  C   UNL     1     -11.420   6.540  70.251  1.00  0.00    -0.411 A  
HETATM    8  C   UNL     1     -10.059   6.722  70.314  1.00  0.00    -0.179 A  
HETATM    9  N   UNL     1      -9.878   7.948  70.946  1.00  0.00    -0.178 NA 
BRANCH   8  10
HETATM   10  C   UNL     1      -8.994   5.947  69.821  1.00  0.00    -0.135 C  
HETATM   11  O   UNL     1      -7.242   4.749  66.963  1.00  0.00    -0.074 OA 
HETATM   12  C   UNL     1      -8.853   5.619  68.520  1.00  0.00    -0.108 C  
HETATM   13  C   UNL     1      -7.648   4.783  68.244  1.00  0.00    -0.077 C  
HETATM   14  O   UNL     1      -7.067   4.148  69.112  1.00  0.00    -0.049 OA 
BRANCH  12  15
HETATM   15  C   UNL     1      -9.810   5.981  67.415  1.00  0.00    -0.147 C  
BRANCH  15  16
HETATM   16  C   UNL     1      -9.718   7.380  66.864  1.00  0.00    -0.205 A  
HETATM   17  C   UNL     1     -10.137   9.610  66.323  1.00  0.00    -0.322 A  
HETATM   18  C   UNL     1     -10.451   8.511  67.173  1.00  0.00    -0.370 A  
HETATM   19  C   UNL     1      -9.128   9.307  65.439  1.00  0.00    -0.222 A  
HETATM   20  S   UNL     1      -8.560   7.709  65.638  1.00  0.00    -0.084 SA 
ENDBRANCH  15  16
ENDBRANCH  12  15
ENDBRANCH   8  10
BRANCH   9  21
HETATM   21  C   UNL     1      -8.627   8.464  71.525  1.00  0.00    -0.167 C  
BRANCH  21  22
HETATM   22  C   UNL     1      -7.907   9.494  70.679  1.00  0.00    -0.149 A  
HETATM   23  C   UNL     1      -8.550  10.156  69.623  1.00  0.00    -0.170 A  
HETATM   24  C   UNL     1      -7.938  11.217  68.951  1.00  0.00    -0.126 A  
HETATM   25  C   UNL     1      -6.557   9.799  70.905  1.00  0.00    -0.048 A  
HETATM   26  O   UNL     1      -5.360  13.573  69.579  1.00  0.00    -0.083 OA 
HETATM   27  C   UNL     1      -5.936  10.862  70.244  1.00  0.00    -0.130 A  
HETATM   28  C   UNL     1      -6.654  11.618  69.316  1.00  0.00    -0.111 A  
HETATM   29  O   UNL     1      -6.325  13.200  67.565  1.00  0.00    -0.158 OA 
HETATM   30  C   UNL     1      -6.094  12.847  68.707  1.00  0.00    -0.075 C  
ENDBRANCH  21  22
ENDBRANCH   9  21
ENDBRANCH   4   5
ENDBRANCH   3   4
ENDBRANCH   2   3
TORSDOF 8
ENDMDL
MODEL      181
REMARK 921   NORMALIZED FREE ENERGY PREDICTED BY IDOCK:   -3.79 KCAL/MOL
REMARK 922        TOTAL FREE ENERGY PREDICTED BY IDOCK:   -7.67 KCAL/MOL
REMARK 923 INTER-LIGAND FREE ENERGY PREDICTED BY IDOCK:   -5.98 KCAL/MOL
REMARK 924 INTRA-LIGAND FREE ENERGY PREDICTED BY IDOCK:   -1.70 KCAL/MOL
REMARK 927      BINDING AFFINITY PREDICTED BY RF-SCORE:    0.00 PKD
ROOT
HETATM    1  C   UNL     1     -10.085   6.575  70.722  1.00  0.00    -0.211 C  
HETATM    2  C   UNL     1     -10.613   7.477  71.830  1.00  0.00    -0.237 C  
ENDROOT
BRANCH   2   3
HETATM    3  C   UNL     1     -11.319   8.693  71.230  1.00  0.00    -0.341 C  
BRANCH   3   4
HETATM    4  C   UNL     1     -11.138   8.898  69.729  1.00  0.00    -0.099 C  
BRANCH   4   5
HETATM    5  C   UNL     1     -11.046  10.331  69.308  1.00  0.00    -0.245 A  
HETATM    6  N   UNL     1     -12.120  11.060  69.083  1.00  0.00    -0.434 NA 
HETATM    7  C   UNL     1     -11.678  12.309  68.786  1.00  0.00    -0.340 A  
HETATM    8  C   UNL     1     -10.304  12.366  68.810  1.00  0.00    -0.121 A  
HETATM    9  N   UNL     1      -9.884  11.069  69.089  1.00  0.00    -0.149 NA 
BRANCH   8  10
HETATM   10  C   UNL     1      -9.418  13.449  68.672  1.00  0.00    -0.039 C  
HETATM   11  O   UNL     1      -7.875  15.789  66.476  1.00  0.00    -0.220 OA 
HETATM   12  C   UNL     1      -8.979  13.904  67.481  1.00  0.00    -0.197 C  
HETATM   13  C   UNL     1      -8.040  15.059  67.593  1.00  0.00    -0.169 C  
HETATM   14  O   UNL     1      -7.435  15.325  68.622  1.00  0.00    -0.115 OA 
BRANCH  12  15
HETATM   15  C   UNL     1      -9.321  13.316  66.137  1.00  0.00    -0.081 C  
BRANCH  15  16
HETATM   16  C   UNL     1     -10.680  13.644  65.575  1.00  0.00    -0.296 A  
HETATM   17  C   UNL     1     -12.844  13.508  64.716  1.00  0.00    -0.196 A  
HETATM   18  C   UNL     1     -11.796  12.844  65.416  1.00  0.00    -0.444 A  
HETATM   19  C   UNL     1     -12.523  14.813  64.424  1.00  0.00    -0.252 A  
HETATM   20  S   UNL     1     -10.970  15.235  64.995  1.00  0.00    -0.436 SA 
ENDBRANCH  15  16
ENDBRANCH  12  15
ENDBRANCH   8  10
BRANCH   9  21
HETATM   21  C   UNL     1      -8.523  10.532  68.927  1.00  0.00    -0.152 C  
BRANCH  21  22
HETATM   22  C   UNL     1      -8.268   9.823  67.612  1.00  0.00    -0.114 A  
HETATM   23  C   UNL     1      -8.661   8.493  67.405  1.00  0.00    -0.127 A  
HETATM   24  C   UNL     1      -8.570   7.898  66.145  1.00  0.00    -0.164 A  
HETATM   25  C   UNL     1      -7.597  10.469  66.563  1.00  0.00    -0.128 A  
HETATM   26  O   UNL     1      -8.403   8.948  62.759  1.00  0.00    -0.184 OA 
HETATM   27  C   UNL     1      -7.506   9.886  65.296  1.00  0.00    -0.131 A  
HETATM   28  C   UNL     1      -8.060   8.625  65.070  1.00  0.00    -0.143 A  
HETATM   29  O   UNL     1      -8.019   6.840  63.492  1.00  0.00    -0.119 OA 
HETATM   30  C   UNL     1      -8.130   8.032  63.715  1.00  0.00    -0.096 C  
ENDBRANCH  21  22
ENDBRANCH   9  21
ENDBRANCH   4   5
ENDBRANCH   3   4
ENDBRANCH   2   3
TORSDOF 8
ENDMDL
MODEL      182
REMARK 921   NORMALIZED FREE ENERGY PREDICTED BY IDOCK:   -3.77 KCAL/MOL
REMARK 922        TOTAL FREE ENERGY PREDICTED BY IDOCK:   -7.64 KCAL/MOL
REMARK 923 INTER-LIGAND FREE ENERGY PREDICTED BY IDOCK:   -6.92 KCAL/MOL
REMARK 924 INTRA-LIGAND FREE ENERGY PREDICTED BY IDOCK:   -0.72 KCAL/MOL
REMARK 927      BINDING AFFINITY PREDICTED BY RF-SCORE:    0.00 PKD
ROOT
HETATM    1  C   UNL     1      -9.189  20.191  67.442  1.00  0.00    -0.495 C  
HETATM    2  C   UNL     1     -10.529  19.682  66.928  1.00  0.00    -0.606 C  
ENDROOT
BRANCH   2   3
HETATM    3  C   UNL     1     -10.349  18.338  66.223  1.00  0.00    -0.422 C  
BRANCH   3   4
HETATM    4  C   UNL     1      -9.094  17.553  66.591  1.00  0.00    -0.287 C  
BRANCH   4   5
HETATM    5  C   UNL     1      -9.272  16.602  67.732  1.00  0.00    -0.214 A  
HETATM    6  N   UNL     1      -8.277  16.292  68.540  1.00  0.00    -0.185 NA 
HETATM    7  C   UNL     1      -8.797  15.468  69.485  1.00  0.00    -0.229 A  
HETATM    8  C   UNL     1     -10.136  15.243  69.264  1.00  0.00    -0.252 A  
HETATM    9  N   UNL     1     -10.437  15.928  68.090  1.00  0.00    -0.262 NA 
BRANCH   8  10
HETATM   10  C   UNL     1     -11.099  14.554  70.022  1.00  0.00    -0.170 C  
HETATM   11  O   UNL     1     -12.561  11.419  70.862  1.00  0.00    -0.367 OA 
HETATM   12  C   UNL     1     -11.419  13.260  69.821  1.00  0.00    -0.228 C  
HETATM   13  C   UNL     1     -12.475  12.755  70.747  1.00  0.00    -0.271 C  
HETATM   14  O   UNL     1     -13.234  13.496  71.354  1.00  0.00    -0.331 OA 
BRANCH  12  15
HETATM   15  C   UNL     1     -10.844  12.371  68.749  1.00  0.00    -0.263 C  
BRANCH  15  16
HETATM   16  C   UNL     1      -9.932  11.260  69.201  1.00  0.00    -0.035 A  
HETATM   17  C   UNL     1      -9.052   9.351  70.212  1.00  0.00    -0.283 A  
HETATM   18  C   UNL     1     -10.225  10.067  69.835  1.00  0.00    -0.304 A  
HETATM   19  C   UNL     1      -7.905   9.983  69.793  1.00  0.00    -0.177 A  
HETATM   20  S   UNL     1      -8.241  11.428  68.947  1.00  0.00     0.013 SA 
ENDBRANCH  15  16
ENDBRANCH  12  15
ENDBRANCH   8  10
BRANCH   9  21
HETATM   21  C   UNL     1     -11.644  15.766  67.263  1.00  0.00     0.146 C  
BRANCH  21  22
HETATM   22  C   UNL     1     -11.490  14.826  66.085  1.00  0.00    -0.311 A  
HETATM   23  C   UNL     1     -10.329  14.061  65.902  1.00  0.00    -0.327 A  
HETATM   24  C   UNL     1     -10.256  13.079  64.911  1.00  0.00    -0.304 A  
HETATM   25  C   UNL     1     -12.497  14.713  65.116  1.00  0.00    -0.206 A  
HETATM   26  O   UNL     1     -12.509  11.110  63.004  1.00  0.00     0.304 OA 
HETATM   27  C   UNL     1     -12.438  13.730  64.123  1.00  0.00    -0.293 A  
HETATM   28  C   UNL     1     -11.344  12.864  64.067  1.00  0.00    -0.466 A  
HETATM   29  O   UNL     1     -10.289  11.306  62.606  1.00  0.00    -0.041 OA 
HETATM   30  C   UNL     1     -11.306  11.711  63.139  1.00  0.00    -0.057 C  
ENDBRANCH  21  22
ENDBRANCH   9  21
ENDBRANCH   4   5
ENDBRANCH   3   4
ENDBRANCH   2   3
TORSDOF 8
ENDMDL
MODEL      183
REMARK 921   NORMALIZED FREE ENERGY PREDICTED BY IDOCK:   -3.73 KCAL/MOL
REMARK 922        TOTAL FREE ENERGY PREDICTED BY IDOCK:   -7.59 KCAL/MOL
REMARK 923 INTER-LIGAND FREE ENERGY PREDICTED BY IDOCK:   -6.73 KCAL/MOL
REMARK 924 INTRA-LIGAND FREE ENERGY PREDICTED BY IDOCK:   -0.86 KCAL/MOL
REMARK 927      BINDING AFFINITY PREDICTED BY RF-SCORE:    0.00 PKD
ROOT
HETATM    1  C   UNL     1     -11.202   9.934  70.917  1.00  0.00    -0.433 C  
HETATM    2  C   UNL     1     -10.760  10.348  69.519  1.00  0.00    -0.284 C  
ENDROOT
BRANCH   2   3
HETATM    3  C   UNL     1     -10.844   9.157  68.564  1.00  0.00    -0.089 C  
BRANCH   3   4
HETATM    4  C   UNL     1     -10.620   9.468  67.087  1.00  0.00    -0.295 C  
BRANCH   4   5
HETATM    5  C   UNL     1     -10.744  10.917  66.735  1.00  0.00    -0.252 A  
HETATM    6  N   UNL     1     -11.905  11.462  66.431  1.00  0.00    -0.181 NA 
HETATM    7  C   UNL     1     -11.665  12.783  66.231  1.00  0.00    -0.402 A  
HETATM    8  C   UNL     1     -10.332  13.074  66.397  1.00  0.00    -0.281 A  
HETATM    9  N   UNL     1      -9.717  11.856  66.664  1.00  0.00    -0.201 NA 
BRANCH   8  10
HETATM   10  C   UNL     1      -9.642  14.300  66.393  1.00  0.00    -0.317 C  
HETATM   11  O   UNL     1      -9.481  17.645  67.603  1.00  0.00    -0.253 OA 
HETATM   12  C   UNL     1     -10.143  15.438  66.917  1.00  0.00    -0.258 C  
HETATM   13  C   UNL     1      -9.226  16.608  66.785  1.00  0.00    -0.238 C  
HETATM   14  O   UNL     1      -8.310  16.646  65.976  1.00  0.00    -0.402 OA 
BRANCH  12  15
HETATM   15  C   UNL     1     -11.506  15.592  67.539  1.00  0.00    -0.184 C  
BRANCH  15  16
HETATM   16  C   UNL     1     -11.611  15.346  69.021  1.00  0.00    -0.347 A  
HETATM   17  C   UNL     1     -11.382  15.477  71.339  1.00  0.00    -0.458 A  
HETATM   18  C   UNL     1     -11.230  16.140  70.087  1.00  0.00    -0.374 A  
HETATM   19  C   UNL     1     -11.939  14.227  71.197  1.00  0.00    -0.282 A  
HETATM   20  S   UNL     1     -12.280  13.859  69.564  1.00  0.00    -0.239 SA 
ENDBRANCH  15  16
ENDBRANCH  12  15
ENDBRANCH   8  10
BRANCH   9  21
HETATM   21  C   UNL     1      -8.273  11.571  66.621  1.00  0.00    -0.156 C  
BRANCH  21  22
HETATM   22  C   UNL     1      -7.884  10.361  65.794  1.00  0.00    -0.150 A  
HETATM   23  C   UNL     1      -7.192   9.279  66.356  1.00  0.00    -0.088 A  
HETATM   24  C   UNL     1      -6.979   8.101  65.635  1.00  0.00    -0.066 A  
HETATM   25  C   UNL     1      -8.179  10.299  64.424  1.00  0.00    -0.159 A  
HETATM   26  O   UNL     1      -8.422   6.438  62.852  1.00  0.00     0.010 OA 
HETATM   27  C   UNL     1      -7.976   9.124  63.694  1.00  0.00    -0.146 A  
HETATM   28  C   UNL     1      -7.441   7.999  64.324  1.00  0.00    -0.106 A  
HETATM   29  O   UNL     1      -6.449   5.892  63.821  1.00  0.00    -0.028 OA 
HETATM   30  C   UNL     1      -7.353   6.688  63.641  1.00  0.00    -0.072 C  
ENDBRANCH  21  22
ENDBRANCH   9  21
ENDBRANCH   4   5
ENDBRANCH   3   4
ENDBRANCH   2   3
TORSDOF 8
ENDMDL
MODEL      184
REMARK 921   NORMALIZED FREE ENERGY PREDICTED BY IDOCK:   -3.73 KCAL/MOL
REMARK 922        TOTAL FREE ENERGY PREDICTED BY IDOCK:   -7.59 KCAL/MOL
REMARK 923 INTER-LIGAND FREE ENERGY PREDICTED BY IDOCK:   -5.38 KCAL/MOL
REMARK 924 INTRA-LIGAND FREE ENERGY PREDICTED BY IDOCK:   -2.21 KCAL/MOL
REMARK 927      BINDING AFFINITY PREDICTED BY RF-SCORE:    0.00 PKD
ROOT
HETATM    1  C   UNL     1     -10.258   2.313  63.661  1.00  0.00    -0.143 C  
HETATM    2  C   UNL     1      -8.773   2.300  64.003  1.00  0.00    -0.091 C  
ENDROOT
BRANCH   2   3
HETATM    3  C   UNL     1      -8.313   3.699  64.414  1.00  0.00    -0.093 C  
BRANCH   3   4
HETATM    4  C   UNL     1      -9.361   4.575  65.093  1.00  0.00    -0.160 C  
BRANCH   4   5
HETATM    5  C   UNL     1      -9.064   4.898  66.524  1.00  0.00    -0.124 A  
HETATM    6  N   UNL     1      -9.560   4.184  67.514  1.00  0.00    -0.182 NA 
HETATM    7  C   UNL     1      -9.045   4.706  68.656  1.00  0.00    -0.117 A  
HETATM    8  C   UNL     1      -8.222   5.774  68.384  1.00  0.00    -0.108 A  
HETATM    9  N   UNL     1      -8.279   5.943  67.004  1.00  0.00    -0.105 NA 
BRANCH   8  10
HETATM   10  C   UNL     1      -7.402   6.551  69.222  1.00  0.00    -0.093 C  
HETATM   11  O   UNL     1      -7.228   8.978  71.821  1.00  0.00    -0.286 OA 
HETATM   12  C   UNL     1      -7.863   7.565  69.983  1.00  0.00    -0.099 C  
HETATM   13  C   UNL     1      -6.799   8.243  70.780  1.00  0.00    -0.039 C  
HETATM   14  O   UNL     1      -5.610   8.162  70.506  1.00  0.00    -0.029 OA 
BRANCH  12  15
HETATM   15  C   UNL     1      -9.288   8.050  70.028  1.00  0.00    -0.156 C  
BRANCH  15  16
HETATM   16  C   UNL     1     -10.245   7.276  70.897  1.00  0.00    -0.196 A  
HETATM   17  C   UNL     1     -12.159   6.459  71.950  1.00  0.00    -0.362 A  
HETATM   18  C   UNL     1     -11.625   7.205  70.860  1.00  0.00    -0.350 A  
HETATM   19  C   UNL     1     -11.171   5.926  72.744  1.00  0.00    -0.276 A  
HETATM   20  S   UNL     1      -9.609   6.320  72.175  1.00  0.00    -0.148 SA 
ENDBRANCH  15  16
ENDBRANCH  12  15
ENDBRANCH   8  10
BRANCH   9  21
HETATM   21  C   UNL     1      -7.827   7.119  66.243  1.00  0.00    -0.107 C  
BRANCH  21  22
HETATM   22  C   UNL     1      -8.635   8.380  66.475  1.00  0.00    -0.128 A  
HETATM   23  C   UNL     1     -10.036   8.356  66.523  1.00  0.00    -0.335 A  
HETATM   24  C   UNL     1     -10.768   9.486  66.897  1.00  0.00    -0.184 A  
HETATM   25  C   UNL     1      -8.005   9.625  66.618  1.00  0.00    -0.109 A  
HETATM   26  O   UNL     1     -10.213  12.483  68.713  1.00  0.00    -0.188 OA 
HETATM   27  C   UNL     1      -8.726  10.761  66.997  1.00  0.00    -0.136 A  
HETATM   28  C   UNL     1     -10.103  10.671  67.207  1.00  0.00    -0.238 A  
HETATM   29  O   UNL     1     -12.034  12.046  67.441  1.00  0.00    -0.583 OA 
HETATM   30  C   UNL     1     -10.886  11.800  67.760  1.00  0.00    -0.213 C  
ENDBRANCH  21  22
ENDBRANCH   9  21
ENDBRANCH   4   5
ENDBRANCH   3   4
ENDBRANCH   2   3
TORSDOF 8
ENDMDL
MODEL      185
REMARK 921   NORMALIZED FREE ENERGY PREDICTED BY IDOCK:   -3.66 KCAL/MOL
REMARK 922        TOTAL FREE ENERGY PREDICTED BY IDOCK:   -7.49 KCAL/MOL
REMARK 923 INTER-LIGAND FREE ENERGY PREDICTED BY IDOCK:   -5.99 KCAL/MOL
REMARK 924 INTRA-LIGAND FREE ENERGY PREDICTED BY IDOCK:   -1.50 KCAL/MOL
REMARK 927      BINDING AFFINITY PREDICTED BY RF-SCORE:    0.00 PKD
ROOT
HETATM    1  C   UNL     1      -6.089  14.066  70.731  1.00  0.00    -0.141 C  
HETATM    2  C   UNL     1      -5.505  12.842  70.038  1.00  0.00    -0.113 C  
ENDROOT
BRANCH   2   3
HETATM    3  C   UNL     1      -6.266  12.554  68.743  1.00  0.00    -0.074 C  
BRANCH   3   4
HETATM    4  C   UNL     1      -6.893  11.168  68.629  1.00  0.00    -0.070 C  
BRANCH   4   5
HETATM    5  C   UNL     1      -8.343  11.174  68.261  1.00  0.00    -0.143 A  
HETATM    6  N   UNL     1      -9.288  10.950  69.153  1.00  0.00    -0.133 NA 
HETATM    7  C   UNL     1     -10.469  11.091  68.499  1.00  0.00    -0.189 A  
HETATM    8  C   UNL     1     -10.268  11.395  67.173  1.00  0.00    -0.202 A  
HETATM    9  N   UNL     1      -8.888  11.390  66.997  1.00  0.00    -0.163 NA 
BRANCH   8  10
HETATM   10  C   UNL     1     -11.174  11.727  66.150  1.00  0.00    -0.363 C  
HETATM   11  O   UNL     1     -12.294  14.184  63.829  1.00  0.00    -0.716 OA 
HETATM   12  C   UNL     1     -11.333  12.979  65.675  1.00  0.00    -0.330 C  
HETATM   13  C   UNL     1     -12.359  13.080  64.595  1.00  0.00    -0.422 C  
HETATM   14  O   UNL     1     -13.222  12.233  64.417  1.00  0.00    -0.806 OA 
BRANCH  12  15
HETATM   15  C   UNL     1     -10.620  14.206  66.178  1.00  0.00    -0.293 C  
BRANCH  15  16
HETATM   16  C   UNL     1     -10.900  14.625  67.598  1.00  0.00    -0.284 A  
HETATM   17  C   UNL     1     -11.900  15.442  69.540  1.00  0.00    -0.370 A  
HETATM   18  C   UNL     1     -12.089  14.981  68.205  1.00  0.00    -0.071 A  
HETATM   19  C   UNL     1     -10.585  15.357  69.933  1.00  0.00    -0.303 A  
HETATM   20  S   UNL     1      -9.587  14.722  68.702  1.00  0.00    -0.219 SA 
ENDBRANCH  15  16
ENDBRANCH  12  15
ENDBRANCH   8  10
BRANCH   9  21
HETATM   21  C   UNL     1      -8.165  11.356  65.715  1.00  0.00     0.153 C  
BRANCH  21  22
HETATM   22  C   UNL     1      -7.761   9.973  65.245  1.00  0.00    -0.139 A  
HETATM   23  C   UNL     1      -6.591   9.354  65.705  1.00  0.00    -0.073 A  
HETATM   24  C   UNL     1      -6.306   8.021  65.398  1.00  0.00    -0.048 A  
HETATM   25  C   UNL     1      -8.534   9.277  64.304  1.00  0.00    -0.202 A  
HETATM   26  O   UNL     1      -8.096   5.124  64.399  1.00  0.00    -0.107 OA 
HETATM   27  C   UNL     1      -8.262   7.941  63.993  1.00  0.00    -0.026 A  
HETATM   28  C   UNL     1      -7.185   7.292  64.600  1.00  0.00    -0.073 A  
HETATM   29  O   UNL     1      -5.841   5.337  64.382  1.00  0.00    -0.020 OA 
HETATM   30  C   UNL     1      -6.949   5.840  64.427  1.00  0.00    -0.051 C  
ENDBRANCH  21  22
ENDBRANCH   9  21
ENDBRANCH   4   5
ENDBRANCH   3   4
ENDBRANCH   2   3
TORSDOF 8
ENDMDL
MODEL      186
REMARK 921   NORMALIZED FREE ENERGY PREDICTED BY IDOCK:   -3.66 KCAL/MOL
REMARK 922        TOTAL FREE ENERGY PREDICTED BY IDOCK:   -7.48 KCAL/MOL
REMARK 923 INTER-LIGAND FREE ENERGY PREDICTED BY IDOCK:   -5.92 KCAL/MOL
REMARK 924 INTRA-LIGAND FREE ENERGY PREDICTED BY IDOCK:   -1.56 KCAL/MOL
REMARK 927      BINDING AFFINITY PREDICTED BY RF-SCORE:    0.00 PKD
ROOT
HETATM    1  C   UNL     1     -11.205   7.516  72.738  1.00  0.00    -0.403 C  
HETATM    2  C   UNL     1     -10.827   8.849  72.105  1.00  0.00    -0.339 C  
ENDROOT
BRANCH   2   3
HETATM    3  C   UNL     1     -11.948   9.335  71.186  1.00  0.00    -0.394 C  
BRANCH   3   4
HETATM    4  C   UNL     1     -11.770  10.728  70.592  1.00  0.00    -0.442 C  
BRANCH   4   5
HETATM    5  C   UNL     1     -11.186  10.744  69.215  1.00  0.00    -0.272 A  
HETATM    6  N   UNL     1     -11.860  11.204  68.179  1.00  0.00    -0.607 NA 
HETATM    7  C   UNL     1     -11.021  11.130  67.115  1.00  0.00    -0.291 A  
HETATM    8  C   UNL     1      -9.804  10.603  67.480  1.00  0.00    -0.168 A  
HETATM    9  N   UNL     1      -9.925  10.293  68.831  1.00  0.00    -0.190 NA 
BRANCH   8  10
HETATM   10  C   UNL     1      -8.611  10.435  66.755  1.00  0.00    -0.125 C  
HETATM   11  O   UNL     1      -5.314  11.614  66.108  1.00  0.00    -0.304 OA 
HETATM   12  C   UNL     1      -7.623  11.353  66.724  1.00  0.00    -0.143 C  
HETATM   13  C   UNL     1      -6.461  10.949  65.880  1.00  0.00    -0.056 C  
HETATM   14  O   UNL     1      -6.534  10.086  65.018  1.00  0.00    -0.103 OA 
BRANCH  12  15
HETATM   15  C   UNL     1      -7.651  12.695  67.407  1.00  0.00    -0.150 C  
BRANCH  15  16
HETATM   16  C   UNL     1      -6.854  12.831  68.678  1.00  0.00    -0.099 A  
HETATM   17  C   UNL     1      -5.742  12.409  70.684  1.00  0.00    -0.138 A  
HETATM   18  C   UNL     1      -6.313  11.860  69.500  1.00  0.00    -0.122 A  
HETATM   19  C   UNL     1      -5.801  13.783  70.697  1.00  0.00    -0.187 A  
HETATM   20  S   UNL     1      -6.537  14.407  69.287  1.00  0.00    -0.129 SA 
ENDBRANCH  15  16
ENDBRANCH  12  15
ENDBRANCH   8  10
BRANCH   9  21
HETATM   21  C   UNL     1      -9.025   9.437  69.621  1.00  0.00    -0.173 C  
BRANCH  21  22
HETATM   22  C   UNL     1      -8.830   8.037  69.074  1.00  0.00    -0.145 A  
HETATM   23  C   UNL     1      -9.896   7.131  68.978  1.00  0.00    -0.156 A  
HETATM   24  C   UNL     1      -9.748   5.904  68.327  1.00  0.00    -0.147 A  
HETATM   25  C   UNL     1      -7.563   7.589  68.673  1.00  0.00    -0.110 A  
HETATM   26  O   UNL     1      -7.599   4.473  65.892  1.00  0.00    -0.084 OA 
HETATM   27  C   UNL     1      -7.404   6.366  68.015  1.00  0.00    -0.089 A  
HETATM   28  C   UNL     1      -8.516   5.555  67.778  1.00  0.00    -0.098 A  
HETATM   29  O   UNL     1      -9.082   3.325  67.160  1.00  0.00    -0.149 OA 
HETATM   30  C   UNL     1      -8.428   4.330  66.950  1.00  0.00    -0.104 C  
ENDBRANCH  21  22
ENDBRANCH   9  21
ENDBRANCH   4   5
ENDBRANCH   3   4
ENDBRANCH   2   3
TORSDOF 8
ENDMDL
MODEL      187
REMARK 921   NORMALIZED FREE ENERGY PREDICTED BY IDOCK:   -3.63 KCAL/MOL
REMARK 922        TOTAL FREE ENERGY PREDICTED BY IDOCK:   -7.45 KCAL/MOL
REMARK 923 INTER-LIGAND FREE ENERGY PREDICTED BY IDOCK:   -5.48 KCAL/MOL
REMARK 924 INTRA-LIGAND FREE ENERGY PREDICTED BY IDOCK:   -1.97 KCAL/MOL
REMARK 927      BINDING AFFINITY PREDICTED BY RF-SCORE:    0.00 PKD
ROOT
HETATM    1  C   UNL     1      -8.781   9.366  63.824  1.00  0.00    -0.223 C  
HETATM    2  C   UNL     1      -9.363  10.561  64.569  1.00  0.00    -0.299 C  
ENDROOT
BRANCH   2   3
HETATM    3  C   UNL     1     -10.076  10.096  65.839  1.00  0.00    -0.325 C  
BRANCH   3   4
HETATM    4  C   UNL     1      -9.432  10.512  67.158  1.00  0.00    -0.182 C  
BRANCH   4   5
HETATM    5  C   UNL     1     -10.090   9.942  68.375  1.00  0.00    -0.167 A  
HETATM    6  N   UNL     1     -10.974  10.628  69.072  1.00  0.00    -0.229 NA 
HETATM    7  C   UNL     1     -11.409   9.799  70.055  1.00  0.00    -0.220 A  
HETATM    8  C   UNL     1     -10.782   8.577  69.986  1.00  0.00    -0.232 A  
HETATM    9  N   UNL     1      -9.878   8.684  68.934  1.00  0.00    -0.174 NA 
BRANCH   8  10
HETATM   10  C   UNL     1     -10.978   7.390  70.715  1.00  0.00    -0.272 C  
HETATM   11  O   UNL     1     -10.816   5.761  73.876  1.00  0.00    -0.230 OA 
HETATM   12  C   UNL     1     -10.545   7.213  71.980  1.00  0.00    -0.237 C  
HETATM   13  C   UNL     1     -10.867   5.866  72.537  1.00  0.00    -0.247 C  
HETATM   14  O   UNL     1     -11.142   4.905  71.833  1.00  0.00    -0.001 OA 
BRANCH  12  15
HETATM   15  C   UNL     1      -9.760   8.214  72.787  1.00  0.00    -0.351 C  
BRANCH  15  16
HETATM   16  C   UNL     1      -8.327   7.867  73.097  1.00  0.00    -0.179 A  
HETATM   17  C   UNL     1      -6.320   7.389  74.185  1.00  0.00    -0.077 A  
HETATM   18  C   UNL     1      -7.736   7.504  74.293  1.00  0.00    -0.178 A  
HETATM   19  C   UNL     1      -5.882   7.598  72.898  1.00  0.00    -0.044 A  
HETATM   20  S   UNL     1      -7.171   7.926  71.827  1.00  0.00    -0.077 SA 
ENDBRANCH  15  16
ENDBRANCH  12  15
ENDBRANCH   8  10
BRANCH   9  21
HETATM   21  C   UNL     1      -8.759   7.773  68.639  1.00  0.00    -0.128 C  
BRANCH  21  22
HETATM   22  C   UNL     1      -8.971   6.866  67.443  1.00  0.00    -0.116 A  
HETATM   23  C   UNL     1      -8.071   6.846  66.369  1.00  0.00    -0.113 A  
HETATM   24  C   UNL     1      -8.181   5.897  65.349  1.00  0.00    -0.139 A  
HETATM   25  C   UNL     1     -10.099   6.037  67.358  1.00  0.00    -0.196 A  
HETATM   26  O   UNL     1      -9.638   2.693  64.899  1.00  0.00    -0.128 OA 
HETATM   27  C   UNL     1     -10.216   5.079  66.346  1.00  0.00    -0.307 A  
HETATM   28  C   UNL     1      -9.215   4.964  65.380  1.00  0.00    -0.157 A  
HETATM   29  O   UNL     1      -8.809   3.994  63.242  1.00  0.00    -0.101 OA 
HETATM   30  C   UNL     1      -9.213   3.868  64.383  1.00  0.00    -0.147 C  
ENDBRANCH  21  22
ENDBRANCH   9  21
ENDBRANCH   4   5
ENDBRANCH   3   4
ENDBRANCH   2   3
TORSDOF 8
ENDMDL
MODEL      188
REMARK 921   NORMALIZED FREE ENERGY PREDICTED BY IDOCK:   -3.62 KCAL/MOL
REMARK 922        TOTAL FREE ENERGY PREDICTED BY IDOCK:   -7.43 KCAL/MOL
REMARK 923 INTER-LIGAND FREE ENERGY PREDICTED BY IDOCK:   -5.88 KCAL/MOL
REMARK 924 INTRA-LIGAND FREE ENERGY PREDICTED BY IDOCK:   -1.55 KCAL/MOL
REMARK 927      BINDING AFFINITY PREDICTED BY RF-SCORE:    0.00 PKD
ROOT
HETATM    1  C   UNL     1     -11.782   7.641  72.702  1.00  0.00    -0.323 C  
HETATM    2  C   UNL     1     -11.558   8.989  72.028  1.00  0.00    -0.413 C  
ENDROOT
BRANCH   2   3
HETATM    3  C   UNL     1     -11.293   8.796  70.534  1.00  0.00    -0.255 C  
BRANCH   3   4
HETATM    4  C   UNL     1      -9.938   9.280  70.028  1.00  0.00    -0.238 C  
BRANCH   4   5
HETATM    5  C   UNL     1      -9.695   9.025  68.573  1.00  0.00    -0.159 A  
HETATM    6  N   UNL     1     -10.474   8.230  67.867  1.00  0.00    -0.219 NA 
HETATM    7  C   UNL     1     -10.010   8.277  66.592  1.00  0.00    -0.278 A  
HETATM    8  C   UNL     1      -8.914   9.102  66.494  1.00  0.00    -0.148 A  
HETATM    9  N   UNL     1      -8.665   9.543  67.790  1.00  0.00    -0.116 NA 
BRANCH   8  10
HETATM   10  C   UNL     1      -8.173   9.533  65.379  1.00  0.00    -0.128 C  
HETATM   11  O   UNL     1      -8.147  11.396  62.345  1.00  0.00    -0.147 OA 
HETATM   12  C   UNL     1      -8.727  10.123  64.300  1.00  0.00    -0.218 C  
HETATM   13  C   UNL     1      -7.737  10.484  63.244  1.00  0.00    -0.025 C  
HETATM   14  O   UNL     1      -6.626   9.977  63.174  1.00  0.00    -0.122 OA 
BRANCH  12  15
HETATM   15  C   UNL     1     -10.199  10.373  64.096  1.00  0.00    -0.149 C  
BRANCH  15  16
HETATM   16  C   UNL     1     -10.735  11.703  64.555  1.00  0.00    -0.322 A  
HETATM   17  C   UNL     1     -11.251  13.970  64.742  1.00  0.00    -0.375 A  
HETATM   18  C   UNL     1     -10.782  12.920  63.901  1.00  0.00    -0.390 A  
HETATM   19  C   UNL     1     -11.613  13.511  65.987  1.00  0.00    -0.338 A  
HETATM   20  S   UNL     1     -11.392  11.825  66.139  1.00  0.00    -0.207 SA 
ENDBRANCH  15  16
ENDBRANCH  12  15
ENDBRANCH   8  10
BRANCH   9  21
HETATM   21  C   UNL     1      -7.439  10.196  68.277  1.00  0.00    -0.082 C  
BRANCH  21  22
HETATM   22  C   UNL     1      -7.562  11.687  68.520  1.00  0.00    -0.127 A  
HETATM   23  C   UNL     1      -6.659  12.374  69.343  1.00  0.00    -0.072 A  
HETATM   24  C   UNL     1      -6.676  13.768  69.436  1.00  0.00    -0.079 A  
HETATM   25  C   UNL     1      -8.608  12.427  67.950  1.00  0.00    -0.171 A  
HETATM   26  O   UNL     1      -7.832  16.506  67.496  1.00  0.00    -0.147 OA 
HETATM   27  C   UNL     1      -8.633  13.823  68.030  1.00  0.00    -0.177 A  
HETATM   28  C   UNL     1      -7.621  14.497  68.716  1.00  0.00    -0.131 A  
HETATM   29  O   UNL     1      -7.119  16.635  69.641  1.00  0.00    -0.154 OA 
HETATM   30  C   UNL     1      -7.515  15.974  68.698  1.00  0.00    -0.166 C  
ENDBRANCH  21  22
ENDBRANCH   9  21
ENDBRANCH   4   5
ENDBRANCH   3   4
ENDBRANCH   2   3
TORSDOF 8
ENDMDL
MODEL      189
REMARK 921   NORMALIZED FREE ENERGY PREDICTED BY IDOCK:   -3.61 KCAL/MOL
REMARK 922        TOTAL FREE ENERGY PREDICTED BY IDOCK:   -7.41 KCAL/MOL
REMARK 923 INTER-LIGAND FREE ENERGY PREDICTED BY IDOCK:   -6.33 KCAL/MOL
REMARK 924 INTRA-LIGAND FREE ENERGY PREDICTED BY IDOCK:   -1.08 KCAL/MOL
REMARK 927      BINDING AFFINITY PREDICTED BY RF-SCORE:    0.00 PKD
ROOT
HETATM    1  C   UNL     1     -13.150  12.065  63.682  1.00  0.00    -0.186 C  
HETATM    2  C   UNL     1     -11.980  12.705  64.418  1.00  0.00    -0.469 C  
ENDROOT
BRANCH   2   3
HETATM    3  C   UNL     1     -11.686  11.942  65.710  1.00  0.00    -0.210 C  
BRANCH   3   4
HETATM    4  C   UNL     1     -11.374  12.796  66.934  1.00  0.00    -0.371 C  
BRANCH   4   5
HETATM    5  C   UNL     1     -10.348  13.859  66.701  1.00  0.00    -0.278 A  
HETATM    6  N   UNL     1     -10.486  14.761  65.750  1.00  0.00    -0.314 NA 
HETATM    7  C   UNL     1      -9.422  15.597  65.860  1.00  0.00    -0.341 A  
HETATM    8  C   UNL     1      -8.593  15.210  66.887  1.00  0.00    -0.257 A  
HETATM    9  N   UNL     1      -9.157  14.045  67.399  1.00  0.00    -0.199 NA 
BRANCH   8  10
HETATM   10  C   UNL     1      -7.447  15.816  67.434  1.00  0.00    -0.225 C  
HETATM   11  O   UNL     1      -6.116  18.032  69.881  1.00  0.00    -0.231 OA 
HETATM   12  C   UNL     1      -7.493  16.833  68.318  1.00  0.00    -0.186 C  
HETATM   13  C   UNL     1      -6.146  17.311  68.747  1.00  0.00    -0.168 C  
HETATM   14  O   UNL     1      -5.128  17.087  68.108  1.00  0.00    -0.114 OA 
BRANCH  12  15
HETATM   15  C   UNL     1      -8.745  17.503  68.820  1.00  0.00    -0.214 C  
BRANCH  15  16
HETATM   16  C   UNL     1      -9.246  18.689  68.037  1.00  0.00    -0.304 A  
HETATM   17  C   UNL     1      -9.538  20.821  67.137  1.00  0.00    -0.465 A  
HETATM   18  C   UNL     1      -8.671  19.930  67.833  1.00  0.00    -0.348 A  
HETATM   19  C   UNL     1     -10.717  20.213  66.771  1.00  0.00    -0.103 A  
HETATM   20  S   UNL     1     -10.774  18.578  67.260  1.00  0.00    -0.290 SA 
ENDBRANCH  15  16
ENDBRANCH  12  15
ENDBRANCH   8  10
BRANCH   9  21
HETATM   21  C   UNL     1      -8.508  13.076  68.297  1.00  0.00    -0.159 C  
BRANCH  21  22
HETATM   22  C   UNL     1      -7.819  11.920  67.600  1.00  0.00    -0.142 A  
HETATM   23  C   UNL     1      -8.509  10.744  67.271  1.00  0.00    -0.124 A  
HETATM   24  C   UNL     1      -7.916   9.751  66.488  1.00  0.00    -0.112 A  
HETATM   25  C   UNL     1      -6.453  11.977  67.288  1.00  0.00    -0.149 A  
HETATM   26  O   UNL     1      -5.265   9.499  64.143  1.00  0.00    -0.057 OA 
HETATM   27  C   UNL     1      -5.851  10.992  66.499  1.00  0.00    -0.124 A  
HETATM   28  C   UNL     1      -6.607   9.912  66.039  1.00  0.00    -0.086 A  
HETATM   29  O   UNL     1      -6.349   7.746  65.081  1.00  0.00    -0.038 OA 
HETATM   30  C   UNL     1      -6.060   8.929  65.075  1.00  0.00    -0.060 C  
ENDBRANCH  21  22
ENDBRANCH   9  21
ENDBRANCH   4   5
ENDBRANCH   3   4
ENDBRANCH   2   3
TORSDOF 8
ENDMDL
MODEL      190
REMARK 921   NORMALIZED FREE ENERGY PREDICTED BY IDOCK:   -3.60 KCAL/MOL
REMARK 922        TOTAL FREE ENERGY PREDICTED BY IDOCK:   -7.40 KCAL/MOL
REMARK 923 INTER-LIGAND FREE ENERGY PREDICTED BY IDOCK:   -5.53 KCAL/MOL
REMARK 924 INTRA-LIGAND FREE ENERGY PREDICTED BY IDOCK:   -1.87 KCAL/MOL
REMARK 927      BINDING AFFINITY PREDICTED BY RF-SCORE:    0.00 PKD
ROOT
HETATM    1  C   UNL     1      -7.314   7.324  72.393  1.00  0.00    -0.075 C  
HETATM    2  C   UNL     1      -6.752   8.222  71.300  1.00  0.00    -0.050 C  
ENDROOT
BRANCH   2   3
HETATM    3  C   UNL     1      -7.805   9.240  70.858  1.00  0.00    -0.148 C  
BRANCH   3   4
HETATM    4  C   UNL     1      -7.343  10.283  69.846  1.00  0.00    -0.166 C  
BRANCH   4   5
HETATM    5  C   UNL     1      -7.805  10.033  68.445  1.00  0.00    -0.089 A  
HETATM    6  N   UNL     1      -8.253   8.854  68.062  1.00  0.00    -0.110 NA 
HETATM    7  C   UNL     1      -8.641   8.996  66.768  1.00  0.00    -0.123 A  
HETATM    8  C   UNL     1      -8.421  10.279  66.324  1.00  0.00    -0.135 A  
HETATM    9  N   UNL     1      -7.821  10.942  67.390  1.00  0.00    -0.110 NA 
BRANCH   8  10
HETATM   10  C   UNL     1      -8.753  10.911  65.113  1.00  0.00    -0.130 C  
HETATM   11  O   UNL     1     -11.270  12.503  63.161  1.00  0.00    -0.388 OA 
HETATM   12  C   UNL     1     -10.019  11.194  64.743  1.00  0.00    -0.339 C  
HETATM   13  C   UNL     1     -10.116  11.860  63.411  1.00  0.00    -0.438 C  
HETATM   14  O   UNL     1      -9.220  11.817  62.580  1.00  0.00    -0.236 OA 
BRANCH  12  15
HETATM   15  C   UNL     1     -11.259  10.849  65.525  1.00  0.00     0.201 C  
BRANCH  15  16
HETATM   16  C   UNL     1     -11.382  11.440  66.905  1.00  0.00    -0.210 A  
HETATM   17  C   UNL     1     -11.589  11.730  69.210  1.00  0.00    -0.378 A  
HETATM   18  C   UNL     1     -11.270  10.839  68.145  1.00  0.00    -0.365 A  
HETATM   19  C   UNL     1     -11.866  12.999  68.756  1.00  0.00    -0.317 A  
HETATM   20  S   UNL     1     -11.737  13.114  67.057  1.00  0.00    -0.380 SA 
ENDBRANCH  15  16
ENDBRANCH  12  15
ENDBRANCH   8  10
BRANCH   9  21
HETATM   21  C   UNL     1      -7.117  12.234  67.338  1.00  0.00    -0.151 C  
BRANCH  21  22
HETATM   22  C   UNL     1      -7.978  13.445  67.637  1.00  0.00    -0.174 A  
HETATM   23  C   UNL     1      -8.316  13.799  68.950  1.00  0.00     0.111 A  
HETATM   24  C   UNL     1      -8.971  15.001  69.232  1.00  0.00    -0.158 A  
HETATM   25  C   UNL     1      -8.495  14.236  66.600  1.00  0.00     0.067 A  
HETATM   26  O   UNL     1      -9.424  18.161  67.682  1.00  0.00    -0.260 OA 
HETATM   27  C   UNL     1      -9.146  15.443  66.869  1.00  0.00    -0.265 A  
HETATM   28  C   UNL     1      -9.319  15.860  68.191  1.00  0.00    -0.198 A  
HETATM   29  O   UNL     1     -10.564  17.419  69.492  1.00  0.00    -0.218 OA 
HETATM   30  C   UNL     1      -9.859  17.198  68.525  1.00  0.00    -0.297 C  
ENDBRANCH  21  22
ENDBRANCH   9  21
ENDBRANCH   4   5
ENDBRANCH   3   4
ENDBRANCH   2   3
TORSDOF 8
ENDMDL
MODEL      191
REMARK 921   NORMALIZED FREE ENERGY PREDICTED BY IDOCK:   -3.60 KCAL/MOL
REMARK 922        TOTAL FREE ENERGY PREDICTED BY IDOCK:   -7.40 KCAL/MOL
REMARK 923 INTER-LIGAND FREE ENERGY PREDICTED BY IDOCK:   -6.64 KCAL/MOL
REMARK 924 INTRA-LIGAND FREE ENERGY PREDICTED BY IDOCK:   -0.75 KCAL/MOL
REMARK 927      BINDING AFFINITY PREDICTED BY RF-SCORE:    0.00 PKD
ROOT
HETATM    1  C   UNL     1     -12.660  13.032  65.502  1.00  0.00    -0.422 C  
HETATM    2  C   UNL     1     -12.640  12.479  64.082  1.00  0.00    -0.474 C  
ENDROOT
BRANCH   2   3
HETATM    3  C   UNL     1     -11.380  11.642  63.859  1.00  0.00    -0.457 C  
BRANCH   3   4
HETATM    4  C   UNL     1     -10.052  12.360  64.077  1.00  0.00    -0.342 C  
BRANCH   4   5
HETATM    5  C   UNL     1      -9.146  11.699  65.067  1.00  0.00     0.140 A  
HETATM    6  N   UNL     1      -8.574  10.538  64.818  1.00  0.00    -0.178 NA 
HETATM    7  C   UNL     1      -7.781  10.267  65.886  1.00  0.00    -0.137 A  
HETATM    8  C   UNL     1      -7.864  11.264  66.829  1.00  0.00    -0.155 A  
HETATM    9  N   UNL     1      -8.797  12.169  66.331  1.00  0.00    -0.150 NA 
BRANCH   8  10
HETATM   10  C   UNL     1      -7.161  11.467  68.030  1.00  0.00    -0.079 C  
HETATM   11  O   UNL     1      -5.259  10.011  70.664  1.00  0.00    -0.038 OA 
HETATM   12  C   UNL     1      -6.740  10.462  68.825  1.00  0.00    -0.053 C  
HETATM   13  C   UNL     1      -6.022  10.930  70.047  1.00  0.00    -0.101 C  
HETATM   14  O   UNL     1      -6.126  12.067  70.484  1.00  0.00    -0.243 OA 
BRANCH  12  15
HETATM   15  C   UNL     1      -6.986   8.995  68.589  1.00  0.00    -0.063 C  
BRANCH  15  16
HETATM   16  C   UNL     1      -7.971   8.313  69.502  1.00  0.00    -0.112 A  
HETATM   17  C   UNL     1      -9.292   7.710  71.328  1.00  0.00    -0.161 A  
HETATM   18  C   UNL     1      -8.482   8.714  70.723  1.00  0.00    -0.181 A  
HETATM   19  C   UNL     1      -9.432   6.605  70.522  1.00  0.00    -0.166 A  
HETATM   20  S   UNL     1      -8.595   6.779  69.044  1.00  0.00    -0.130 SA 
ENDBRANCH  15  16
ENDBRANCH  12  15
ENDBRANCH   8  10
BRANCH   9  21
HETATM   21  C   UNL     1      -9.468  13.243  67.082  1.00  0.00    -0.240 C  
BRANCH  21  22
HETATM   22  C   UNL     1     -10.242  12.784  68.301  1.00  0.00    -0.245 A  
HETATM   23  C   UNL     1     -10.998  13.680  69.071  1.00  0.00    -0.271 A  
HETATM   24  C   UNL     1     -11.837  13.229  70.093  1.00  0.00    -0.333 A  
HETATM   25  C   UNL     1     -10.202  11.447  68.720  1.00  0.00    -0.209 A  
HETATM   26  O   UNL     1     -13.484  10.217  70.991  1.00  0.00    -0.318 OA 
HETATM   27  C   UNL     1     -11.042  10.983  69.737  1.00  0.00    -0.303 A  
HETATM   28  C   UNL     1     -11.914  11.867  70.375  1.00  0.00    -0.400 A  
HETATM   29  O   UNL     1     -13.279  12.039  72.320  1.00  0.00    -0.455 OA 
HETATM   30  C   UNL     1     -12.930  11.398  71.345  1.00  0.00    -0.365 C  
ENDBRANCH  21  22
ENDBRANCH   9  21
ENDBRANCH   4   5
ENDBRANCH   3   4
ENDBRANCH   2   3
TORSDOF 8
ENDMDL
MODEL      192
REMARK 921   NORMALIZED FREE ENERGY PREDICTED BY IDOCK:   -3.59 KCAL/MOL
REMARK 922        TOTAL FREE ENERGY PREDICTED BY IDOCK:   -7.39 KCAL/MOL
REMARK 923 INTER-LIGAND FREE ENERGY PREDICTED BY IDOCK:   -4.88 KCAL/MOL
REMARK 924 INTRA-LIGAND FREE ENERGY PREDICTED BY IDOCK:   -2.51 KCAL/MOL
REMARK 927      BINDING AFFINITY PREDICTED BY RF-SCORE:    0.00 PKD
ROOT
HETATM    1  C   UNL     1      -8.024   9.391  62.565  1.00  0.00    -0.125 C  
HETATM    2  C   UNL     1      -8.014   8.120  63.405  1.00  0.00    -0.147 C  
ENDROOT
BRANCH   2   3
HETATM    3  C   UNL     1      -6.577   7.649  63.635  1.00  0.00    -0.058 C  
BRANCH   3   4
HETATM    4  C   UNL     1      -5.774   8.433  64.668  1.00  0.00    -0.048 C  
BRANCH   4   5
HETATM    5  C   UNL     1      -6.001   8.003  66.083  1.00  0.00    -0.041 A  
HETATM    6  N   UNL     1      -6.253   6.747  66.396  1.00  0.00    -0.043 NA 
HETATM    7  C   UNL     1      -6.341   6.703  67.750  1.00  0.00    -0.044 A  
HETATM    8  C   UNL     1      -6.154   7.950  68.300  1.00  0.00    -0.041 A  
HETATM    9  N   UNL     1      -5.994   8.811  67.218  1.00  0.00    -0.046 NA 
BRANCH   8  10
HETATM   10  C   UNL     1      -6.056   8.369  69.639  1.00  0.00    -0.032 C  
HETATM   11  O   UNL     1      -7.724   8.879  72.742  1.00  0.00    -0.366 OA 
HETATM   12  C   UNL     1      -7.126   8.577  70.434  1.00  0.00    -0.038 C  
HETATM   13  C   UNL     1      -6.766   9.025  71.811  1.00  0.00     0.012 C  
HETATM   14  O   UNL     1      -5.680   9.515  72.087  1.00  0.00    -0.198 OA 
BRANCH  12  15
HETATM   15  C   UNL     1      -8.567   8.442  70.019  1.00  0.00    -0.131 C  
BRANCH  15  16
HETATM   16  C   UNL     1      -9.166   7.061  70.073  1.00  0.00    -0.148 A  
HETATM   17  C   UNL     1      -9.499   4.770  70.356  1.00  0.00    -0.241 A  
HETATM   18  C   UNL     1      -8.681   5.900  70.645  1.00  0.00    -0.137 A  
HETATM   19  C   UNL     1     -10.618   5.114  69.633  1.00  0.00    -0.086 A  
HETATM   20  S   UNL     1     -10.682   6.790  69.310  1.00  0.00    -0.265 SA 
ENDBRANCH  15  16
ENDBRANCH  12  15
ENDBRANCH   8  10
BRANCH   9  21
HETATM   21  C   UNL     1      -6.067  10.281  67.247  1.00  0.00    -0.054 C  
BRANCH  21  22
HETATM   22  C   UNL     1      -7.466  10.854  67.137  1.00  0.00    -0.109 A  
HETATM   23  C   UNL     1      -8.181  10.820  65.932  1.00  0.00    -0.155 A  
HETATM   24  C   UNL     1      -9.524  11.201  65.876  1.00  0.00    -0.241 A  
HETATM   25  C   UNL     1      -8.081  11.469  68.237  1.00  0.00    -0.148 A  
HETATM   26  O   UNL     1     -12.255  11.510  68.121  1.00  0.00    -0.576 OA 
HETATM   27  C   UNL     1      -9.426  11.848  68.195  1.00  0.00    -0.195 A  
HETATM   28  C   UNL     1     -10.168  11.645  67.029  1.00  0.00    -0.240 A  
HETATM   29  O   UNL     1     -12.213  12.301  65.999  1.00  0.00    -0.646 OA 
HETATM   30  C   UNL     1     -11.629  11.881  66.981  1.00  0.00    -0.291 C  
ENDBRANCH  21  22
ENDBRANCH   9  21
ENDBRANCH   4   5
ENDBRANCH   3   4
ENDBRANCH   2   3
TORSDOF 8
ENDMDL
MODEL      193
REMARK 921   NORMALIZED FREE ENERGY PREDICTED BY IDOCK:   -3.59 KCAL/MOL
REMARK 922        TOTAL FREE ENERGY PREDICTED BY IDOCK:   -7.38 KCAL/MOL
REMARK 923 INTER-LIGAND FREE ENERGY PREDICTED BY IDOCK:   -5.50 KCAL/MOL
REMARK 924 INTRA-LIGAND FREE ENERGY PREDICTED BY IDOCK:   -1.88 KCAL/MOL
REMARK 927      BINDING AFFINITY PREDICTED BY RF-SCORE:    0.00 PKD
ROOT
HETATM    1  C   UNL     1     -10.785   3.771  64.470  1.00  0.00    -0.133 C  
HETATM    2  C   UNL     1      -9.390   4.263  64.108  1.00  0.00    -0.145 C  
ENDROOT
BRANCH   2   3
HETATM    3  C   UNL     1      -8.742   4.948  65.312  1.00  0.00    -0.146 C  
BRANCH   3   4
HETATM    4  C   UNL     1      -9.368   4.647  66.669  1.00  0.00    -0.153 C  
BRANCH   4   5
HETATM    5  C   UNL     1      -8.483   4.944  67.839  1.00  0.00    -0.103 A  
HETATM    6  N   UNL     1      -7.169   4.952  67.731  1.00  0.00    -0.069 NA 
HETATM    7  C   UNL     1      -6.690   5.316  68.948  1.00  0.00    -0.053 A  
HETATM    8  C   UNL     1      -7.715   5.528  69.840  1.00  0.00    -0.082 A  
HETATM    9  N   UNL     1      -8.881   5.228  69.143  1.00  0.00    -0.099 NA 
BRANCH   8  10
HETATM   10  C   UNL     1      -7.710   6.008  71.162  1.00  0.00    -0.109 C  
HETATM   11  O   UNL     1      -7.075   8.748  73.346  1.00  0.00    -0.342 OA 
HETATM   12  C   UNL     1      -7.144   7.177  71.527  1.00  0.00    -0.069 C  
HETATM   13  C   UNL     1      -7.262   7.466  72.987  1.00  0.00    -0.074 C  
HETATM   14  O   UNL     1      -7.493   6.600  73.818  1.00  0.00    -0.084 OA 
BRANCH  12  15
HETATM   15  C   UNL     1      -6.404   8.117  70.612  1.00  0.00    -0.036 C  
BRANCH  15  16
HETATM   16  C   UNL     1      -7.238   9.046  69.769  1.00  0.00    -0.056 A  
HETATM   17  C   UNL     1      -8.859  10.545  69.016  1.00  0.00    -0.174 A  
HETATM   18  C   UNL     1      -8.212   9.955  70.140  1.00  0.00    -0.162 A  
HETATM   19  C   UNL     1      -8.314  10.122  67.826  1.00  0.00    -0.114 A  
HETATM   20  S   UNL     1      -7.027   9.025  68.064  1.00  0.00    -0.078 SA 
ENDBRANCH  15  16
ENDBRANCH  12  15
ENDBRANCH   8  10
BRANCH   9  21
HETATM   21  C   UNL     1     -10.216   5.002  69.720  1.00  0.00    -0.266 C  
BRANCH  21  22
HETATM   22  C   UNL     1     -10.844   6.216  70.374  1.00  0.00    -0.374 A  
HETATM   23  C   UNL     1     -10.892   7.458  69.725  1.00  0.00    -0.246 A  
HETATM   24  C   UNL     1     -11.612   8.529  70.260  1.00  0.00     0.004 A  
HETATM   25  C   UNL     1     -11.373   6.144  71.671  1.00  0.00    -0.341 A  
HETATM   26  O   UNL     1     -14.287   9.005  72.543  1.00  0.00    -0.570 OA 
HETATM   27  C   UNL     1     -12.101   7.207  72.215  1.00  0.00    -0.219 A  
HETATM   28  C   UNL     1     -12.280   8.376  71.474  1.00  0.00    -0.340 A  
HETATM   29  O   UNL     1     -12.954  10.647  71.733  1.00  0.00    -0.438 OA 
HETATM   30  C   UNL     1     -13.170   9.466  71.937  1.00  0.00    -0.429 C  
ENDBRANCH  21  22
ENDBRANCH   9  21
ENDBRANCH   4   5
ENDBRANCH   3   4
ENDBRANCH   2   3
TORSDOF 8
ENDMDL
MODEL      194
REMARK 921   NORMALIZED FREE ENERGY PREDICTED BY IDOCK:   -3.57 KCAL/MOL
REMARK 922        TOTAL FREE ENERGY PREDICTED BY IDOCK:   -7.36 KCAL/MOL
REMARK 923 INTER-LIGAND FREE ENERGY PREDICTED BY IDOCK:   -6.01 KCAL/MOL
REMARK 924 INTRA-LIGAND FREE ENERGY PREDICTED BY IDOCK:   -1.35 KCAL/MOL
REMARK 927      BINDING AFFINITY PREDICTED BY RF-SCORE:    0.00 PKD
ROOT
HETATM    1  C   UNL     1      -9.459  19.282  69.420  1.00  0.00    -0.079 C  
HETATM    2  C   UNL     1     -10.323  19.581  68.202  1.00  0.00    -0.550 C  
ENDROOT
BRANCH   2   3
HETATM    3  C   UNL     1     -11.035  18.311  67.734  1.00  0.00    -0.118 C  
BRANCH   3   4
HETATM    4  C   UNL     1     -10.447  16.994  68.229  1.00  0.00    -0.363 C  
BRANCH   4   5
HETATM    5  C   UNL     1     -10.729  15.819  67.346  1.00  0.00    -0.317 A  
HETATM    6  N   UNL     1     -11.935  15.295  67.251  1.00  0.00     0.025 NA 
HETATM    7  C   UNL     1     -11.847  14.303  66.329  1.00  0.00    -0.406 A  
HETATM    8  C   UNL     1     -10.565  14.189  65.845  1.00  0.00    -0.298 A  
HETATM    9  N   UNL     1      -9.819  15.131  66.547  1.00  0.00    -0.249 NA 
BRANCH   8  10
HETATM   10  C   UNL     1     -10.026  13.388  64.822  1.00  0.00    -0.158 C  
HETATM   11  O   UNL     1     -10.102  10.263  63.118  1.00  0.00    -0.067 OA 
HETATM   12  C   UNL     1     -10.291  12.072  64.690  1.00  0.00    -0.325 C  
HETATM   13  C   UNL     1      -9.596  11.439  63.530  1.00  0.00    -0.298 C  
HETATM   14  O   UNL     1      -8.617  11.933  62.992  1.00  0.00     0.178 OA 
BRANCH  12  15
HETATM   15  C   UNL     1     -11.148  11.252  65.617  1.00  0.00    -0.141 C  
BRANCH  15  16
HETATM   16  C   UNL     1     -10.482  10.695  66.848  1.00  0.00    -0.249 A  
HETATM   17  C   UNL     1      -9.256  10.444  68.816  1.00  0.00    -0.172 A  
HETATM   18  C   UNL     1      -9.894  11.346  67.916  1.00  0.00    -0.188 A  
HETATM   19  C   UNL     1      -9.436   9.132  68.446  1.00  0.00    -0.142 A  
HETATM   20  S   UNL     1     -10.372   8.989  67.025  1.00  0.00    -0.253 SA 
ENDBRANCH  15  16
ENDBRANCH  12  15
ENDBRANCH   8  10
BRANCH   9  21
HETATM   21  C   UNL     1      -8.351  15.209  66.626  1.00  0.00    -0.127 C  
BRANCH  21  22
HETATM   22  C   UNL     1      -7.793  16.607  66.796  1.00  0.00    -0.290 A  
HETATM   23  C   UNL     1      -7.030  16.962  67.917  1.00  0.00    -0.158 A  
HETATM   24  C   UNL     1      -6.384  18.199  67.993  1.00  0.00    -0.181 A  
HETATM   25  C   UNL     1      -8.051  17.607  65.847  1.00  0.00    -0.045 A  
HETATM   26  O   UNL     1      -5.247  20.701  65.747  1.00  0.00    -0.173 OA 
HETATM   27  C   UNL     1      -7.405  18.845  65.908  1.00  0.00    -0.260 A  
HETATM   28  C   UNL     1      -6.513  19.112  66.948  1.00  0.00    -0.195 A  
HETATM   29  O   UNL     1      -5.381  20.928  67.996  1.00  0.00    -0.233 OA 
HETATM   30  C   UNL     1      -5.687  20.342  66.974  1.00  0.00    -0.174 C  
ENDBRANCH  21  22
ENDBRANCH   9  21
ENDBRANCH   4   5
ENDBRANCH   3   4
ENDBRANCH   2   3
TORSDOF 8
ENDMDL
MODEL      195
REMARK 921   NORMALIZED FREE ENERGY PREDICTED BY IDOCK:   -3.56 KCAL/MOL
REMARK 922        TOTAL FREE ENERGY PREDICTED BY IDOCK:   -7.33 KCAL/MOL
REMARK 923 INTER-LIGAND FREE ENERGY PREDICTED BY IDOCK:   -5.83 KCAL/MOL
REMARK 924 INTRA-LIGAND FREE ENERGY PREDICTED BY IDOCK:   -1.50 KCAL/MOL
REMARK 927      BINDING AFFINITY PREDICTED BY RF-SCORE:    0.00 PKD
ROOT
HETATM    1  C   UNL     1      -7.105  17.753  68.225  1.00  0.00    -0.230 C  
HETATM    2  C   UNL     1      -6.513  16.536  67.526  1.00  0.00    -0.181 C  
ENDROOT
BRANCH   2   3
HETATM    3  C   UNL     1      -6.918  15.256  68.258  1.00  0.00    -0.119 C  
BRANCH   3   4
HETATM    4  C   UNL     1      -6.954  13.986  67.414  1.00  0.00    -0.067 C  
BRANCH   4   5
HETATM    5  C   UNL     1      -7.288  12.745  68.179  1.00  0.00    -0.118 A  
HETATM    6  N   UNL     1      -6.381  12.096  68.881  1.00  0.00    -0.076 NA 
HETATM    7  C   UNL     1      -7.031  11.071  69.489  1.00  0.00    -0.126 A  
HETATM    8  C   UNL     1      -8.365  11.063  69.154  1.00  0.00    -0.026 A  
HETATM    9  N   UNL     1      -8.527  12.112  68.255  1.00  0.00    -0.176 NA 
BRANCH   8  10
HETATM   10  C   UNL     1      -9.432  10.269  69.612  1.00  0.00    -0.180 C  
HETATM   11  O   UNL     1     -10.518   7.056  70.696  1.00  0.00    -0.207 OA 
HETATM   12  C   UNL     1      -9.370   8.925  69.712  1.00  0.00    -0.169 C  
HETATM   13  C   UNL     1     -10.632   8.307  70.215  1.00  0.00    -0.227 C  
HETATM   14  O   UNL     1     -11.712   8.879  70.181  1.00  0.00    -0.062 OA 
BRANCH  12  15
HETATM   15  C   UNL     1      -8.195   8.070  69.319  1.00  0.00    -0.127 C  
BRANCH  15  16
HETATM   16  C   UNL     1      -8.338   7.247  68.065  1.00  0.00    -0.123 A  
HETATM   17  C   UNL     1      -8.240   5.539  66.479  1.00  0.00    -0.105 A  
HETATM   18  C   UNL     1      -8.115   5.899  67.852  1.00  0.00    -0.105 A  
HETATM   19  C   UNL     1      -8.621   6.606  65.699  1.00  0.00    -0.123 A  
HETATM   20  S   UNL     1      -8.832   8.030  66.618  1.00  0.00    -0.153 SA 
ENDBRANCH  15  16
ENDBRANCH  12  15
ENDBRANCH   8  10
BRANCH   9  21
HETATM   21  C   UNL     1      -9.683  12.343  67.373  1.00  0.00    -0.193 C  
BRANCH  21  22
HETATM   22  C   UNL     1     -10.019  13.801  67.128  1.00  0.00    -0.243 A  
HETATM   23  C   UNL     1     -10.461  14.637  68.163  1.00  0.00    -0.237 A  
HETATM   24  C   UNL     1     -10.613  16.012  67.970  1.00  0.00    -0.295 A  
HETATM   25  C   UNL     1      -9.928  14.356  65.843  1.00  0.00    -0.350 A  
HETATM   26  O   UNL     1      -9.388  18.496  65.751  1.00  0.00    -0.429 OA 
HETATM   27  C   UNL     1     -10.072  15.731  65.638  1.00  0.00    -0.401 A  
HETATM   28  C   UNL     1     -10.345  16.570  66.721  1.00  0.00    -0.296 A  
HETATM   29  O   UNL     1     -11.096  18.777  67.210  1.00  0.00    -0.318 OA 
HETATM   30  C   UNL     1     -10.350  18.045  66.586  1.00  0.00    -0.371 C  
ENDBRANCH  21  22
ENDBRANCH   9  21
ENDBRANCH   4   5
ENDBRANCH   3   4
ENDBRANCH   2   3
TORSDOF 8
ENDMDL
MODEL      196
REMARK 921   NORMALIZED FREE ENERGY PREDICTED BY IDOCK:   -3.54 KCAL/MOL
REMARK 922        TOTAL FREE ENERGY PREDICTED BY IDOCK:   -7.32 KCAL/MOL
REMARK 923 INTER-LIGAND FREE ENERGY PREDICTED BY IDOCK:   -5.80 KCAL/MOL
REMARK 924 INTRA-LIGAND FREE ENERGY PREDICTED BY IDOCK:   -1.52 KCAL/MOL
REMARK 927      BINDING AFFINITY PREDICTED BY RF-SCORE:    0.00 PKD
ROOT
HETATM    1  C   UNL     1      -6.830  19.212  68.819  1.00  0.00    -0.342 C  
HETATM    2  C   UNL     1      -6.711  18.418  67.525  1.00  0.00    -0.201 C  
ENDROOT
BRANCH   2   3
HETATM    3  C   UNL     1      -6.576  16.926  67.832  1.00  0.00    -0.152 C  
BRANCH   3   4
HETATM    4  C   UNL     1      -7.031  15.974  66.730  1.00  0.00    -0.030 C  
BRANCH   4   5
HETATM    5  C   UNL     1      -7.388  14.601  67.207  1.00  0.00    -0.090 A  
HETATM    6  N   UNL     1      -6.466  13.713  67.522  1.00  0.00    -0.275 NA 
HETATM    7  C   UNL     1      -7.130  12.617  67.970  1.00  0.00    -0.103 A  
HETATM    8  C   UNL     1      -8.491  12.810  67.924  1.00  0.00    -0.173 A  
HETATM    9  N   UNL     1      -8.668  14.075  67.372  1.00  0.00    -0.195 NA 
BRANCH   8  10
HETATM   10  C   UNL     1      -9.558  12.011  68.373  1.00  0.00    -0.190 C  
HETATM   11  O   UNL     1     -10.711   8.739  69.176  1.00  0.00    -0.213 OA 
HETATM   12  C   UNL     1      -9.552  10.663  68.318  1.00  0.00    -0.167 C  
HETATM   13  C   UNL     1     -10.801  10.040  68.848  1.00  0.00    -0.220 C  
HETATM   14  O   UNL     1     -11.852  10.654  68.962  1.00  0.00    -0.270 OA 
BRANCH  12  15
HETATM   15  C   UNL     1      -8.451   9.813  67.741  1.00  0.00    -0.121 C  
BRANCH  15  16
HETATM   16  C   UNL     1      -7.657   8.975  68.710  1.00  0.00    -0.087 A  
HETATM   17  C   UNL     1      -6.611   7.204  69.810  1.00  0.00    -0.044 A  
HETATM   18  C   UNL     1      -7.219   7.668  68.607  1.00  0.00    -0.082 A  
HETATM   19  C   UNL     1      -6.542   8.190  70.766  1.00  0.00    -0.037 A  
HETATM   20  S   UNL     1      -7.202   9.666  70.216  1.00  0.00    -0.146 SA 
ENDBRANCH  15  16
ENDBRANCH  12  15
ENDBRANCH   8  10
BRANCH   9  21
HETATM   21  C   UNL     1      -9.919  14.632  66.832  1.00  0.00    -0.253 C  
BRANCH  21  22
HETATM   22  C   UNL     1     -10.179  16.082  67.190  1.00  0.00    -0.278 A  
HETATM   23  C   UNL     1     -10.237  16.511  68.523  1.00  0.00    -0.266 A  
HETATM   24  C   UNL     1     -10.315  17.868  68.846  1.00  0.00    -0.272 A  
HETATM   25  C   UNL     1     -10.404  17.041  66.192  1.00  0.00    -0.326 A  
HETATM   26  O   UNL     1      -9.547  20.973  67.310  1.00  0.00    -0.399 OA 
HETATM   27  C   UNL     1     -10.478  18.403  66.502  1.00  0.00    -0.411 A  
HETATM   28  C   UNL     1     -10.360  18.820  67.829  1.00  0.00    -0.467 A  
HETATM   29  O   UNL     1     -10.746  20.720  69.214  1.00  0.00     0.268 OA 
HETATM   30  C   UNL     1     -10.273  20.253  68.194  1.00  0.00    -0.258 C  
ENDBRANCH  21  22
ENDBRANCH   9  21
ENDBRANCH   4   5
ENDBRANCH   3   4
ENDBRANCH   2   3
TORSDOF 8
ENDMDL
MODEL      197
REMARK 921   NORMALIZED FREE ENERGY PREDICTED BY IDOCK:   -3.54 KCAL/MOL
REMARK 922        TOTAL FREE ENERGY PREDICTED BY IDOCK:   -7.31 KCAL/MOL
REMARK 923 INTER-LIGAND FREE ENERGY PREDICTED BY IDOCK:   -5.54 KCAL/MOL
REMARK 924 INTRA-LIGAND FREE ENERGY PREDICTED BY IDOCK:   -1.77 KCAL/MOL
REMARK 927      BINDING AFFINITY PREDICTED BY RF-SCORE:    0.00 PKD
ROOT
HETATM    1  C   UNL     1      -6.826   9.270  71.222  1.00  0.00    -0.037 C  
HETATM    2  C   UNL     1      -8.108   8.463  71.387  1.00  0.00    -0.162 C  
ENDROOT
BRANCH   2   3
HETATM    3  C   UNL     1      -9.274   9.389  71.734  1.00  0.00     0.537 C  
BRANCH   3   4
HETATM    4  C   UNL     1     -10.426   9.416  70.734  1.00  0.00    -0.372 C  
BRANCH   4   5
HETATM    5  C   UNL     1     -10.724   8.094  70.099  1.00  0.00    -0.243 A  
HETATM    6  N   UNL     1     -11.518   7.211  70.671  1.00  0.00    -0.298 NA 
HETATM    7  C   UNL     1     -11.617   6.170  69.805  1.00  0.00    -0.131 A  
HETATM    8  C   UNL     1     -10.864   6.392  68.676  1.00  0.00    -0.314 A  
HETATM    9  N   UNL     1     -10.232   7.614  68.887  1.00  0.00    -0.205 NA 
BRANCH   8  10
HETATM   10  C   UNL     1     -10.740   5.657  67.484  1.00  0.00    -0.272 C  
HETATM   11  O   UNL     1      -9.145   2.967  65.783  1.00  0.00    -0.144 OA 
HETATM   12  C   UNL     1      -9.757   4.760  67.262  1.00  0.00    -0.210 C  
HETATM   13  C   UNL     1      -9.834   4.113  65.919  1.00  0.00    -0.199 C  
HETATM   14  O   UNL     1     -10.461   4.593  64.986  1.00  0.00    -0.086 OA 
BRANCH  12  15
HETATM   15  C   UNL     1      -8.632   4.438  68.210  1.00  0.00    -0.106 C  
BRANCH  15  16
HETATM   16  C   UNL     1      -8.942   3.489  69.338  1.00  0.00    -0.114 A  
HETATM   17  C   UNL     1      -9.726   1.700  70.614  1.00  0.00    -0.099 A  
HETATM   18  C   UNL     1      -9.457   2.206  69.309  1.00  0.00    -0.128 A  
HETATM   19  C   UNL     1      -9.344   2.582  71.598  1.00  0.00    -0.119 A  
HETATM   20  S   UNL     1      -8.662   4.008  70.952  1.00  0.00    -0.080 SA 
ENDBRANCH  15  16
ENDBRANCH  12  15
ENDBRANCH   8  10
BRANCH   9  21
HETATM   21  C   UNL     1      -9.094   8.157  68.128  1.00  0.00    -0.134 C  
BRANCH  21  22
HETATM   22  C   UNL     1      -9.471   8.976  66.910  1.00  0.00    -0.219 A  
HETATM   23  C   UNL     1     -10.360  10.056  66.997  1.00  0.00    -0.305 A  
HETATM   24  C   UNL     1     -10.579  10.906  65.910  1.00  0.00    -0.244 A  
HETATM   25  C   UNL     1      -8.963   8.659  65.642  1.00  0.00    -0.231 A  
HETATM   26  O   UNL     1      -8.888  11.835  62.932  1.00  0.00    -0.155 OA 
HETATM   27  C   UNL     1      -9.170   9.504  64.548  1.00  0.00    -0.223 A  
HETATM   28  C   UNL     1      -9.922  10.670  64.704  1.00  0.00    -0.401 A  
HETATM   29  O   UNL     1     -11.042  12.336  63.421  1.00  0.00    -0.443 OA 
HETATM   30  C   UNL     1     -10.039  11.676  63.623  1.00  0.00    -0.402 C  
ENDBRANCH  21  22
ENDBRANCH   9  21
ENDBRANCH   4   5
ENDBRANCH   3   4
ENDBRANCH   2   3
TORSDOF 8
ENDMDL
MODEL      198
REMARK 921   NORMALIZED FREE ENERGY PREDICTED BY IDOCK:   -3.54 KCAL/MOL
REMARK 922        TOTAL FREE ENERGY PREDICTED BY IDOCK:   -7.31 KCAL/MOL
REMARK 923 INTER-LIGAND FREE ENERGY PREDICTED BY IDOCK:   -6.43 KCAL/MOL
REMARK 924 INTRA-LIGAND FREE ENERGY PREDICTED BY IDOCK:   -0.88 KCAL/MOL
REMARK 927      BINDING AFFINITY PREDICTED BY RF-SCORE:    0.00 PKD
ROOT
HETATM    1  C   UNL     1      -6.549  13.820  67.714  1.00  0.00    -0.181 C  
HETATM    2  C   UNL     1      -5.437  12.786  67.597  1.00  0.00    -0.121 C  
ENDROOT
BRANCH   2   3
HETATM    3  C   UNL     1      -5.709  11.608  68.533  1.00  0.00    -0.045 C  
BRANCH   3   4
HETATM    4  C   UNL     1      -6.628  10.519  67.989  1.00  0.00    -0.060 C  
BRANCH   4   5
HETATM    5  C   UNL     1      -8.007  10.527  68.569  1.00  0.00    -0.118 A  
HETATM    6  N   UNL     1      -8.983  11.234  68.034  1.00  0.00    -0.150 NA 
HETATM    7  C   UNL     1     -10.095  10.962  68.764  1.00  0.00    -0.194 A  
HETATM    8  C   UNL     1      -9.815  10.082  69.783  1.00  0.00    -0.235 A  
HETATM    9  N   UNL     1      -8.447   9.842  69.700  1.00  0.00    -0.173 NA 
BRANCH   8  10
HETATM   10  C   UNL     1     -10.654   9.444  70.715  1.00  0.00    -0.371 C  
HETATM   11  O   UNL     1     -13.961   9.020  71.961  1.00  0.00    -0.414 OA 
HETATM   12  C   UNL     1     -11.936   9.802  70.929  1.00  0.00    -0.413 C  
HETATM   13  C   UNL     1     -12.617   8.980  71.972  1.00  0.00    -0.394 C  
HETATM   14  O   UNL     1     -12.007   8.324  72.804  1.00  0.00    -0.377 OA 
BRANCH  12  15
HETATM   15  C   UNL     1     -12.652  10.944  70.257  1.00  0.00    -0.342 C  
BRANCH  15  16
HETATM   16  C   UNL     1     -12.753  12.235  71.028  1.00  0.00    -0.225 A  
HETATM   17  C   UNL     1     -13.429  13.941  72.467  1.00  0.00    -0.676 A  
HETATM   18  C   UNL     1     -13.535  12.563  72.119  1.00  0.00    -0.523 A  
HETATM   19  C   UNL     1     -12.519  14.604  71.678  1.00  0.00    -0.345 A  
HETATM   20  S   UNL     1     -11.794  13.570  70.528  1.00  0.00    -0.079 SA 
ENDBRANCH  15  16
ENDBRANCH  12  15
ENDBRANCH   8  10
BRANCH   9  21
HETATM   21  C   UNL     1      -7.600   9.219  70.730  1.00  0.00    -0.133 C  
BRANCH  21  22
HETATM   22  C   UNL     1      -7.651   7.705  70.770  1.00  0.00    -0.080 A  
HETATM   23  C   UNL     1      -7.343   6.990  71.936  1.00  0.00    -0.086 A  
HETATM   24  C   UNL     1      -7.547   5.610  72.016  1.00  0.00    -0.100 A  
HETATM   25  C   UNL     1      -7.980   6.964  69.625  1.00  0.00    -0.125 A  
HETATM   26  O   UNL     1      -9.520   3.156  70.379  1.00  0.00    -0.155 OA 
HETATM   27  C   UNL     1      -8.193   5.584  69.695  1.00  0.00    -0.101 A  
HETATM   28  C   UNL     1      -8.045   4.919  70.913  1.00  0.00    -0.095 A  
HETATM   29  O   UNL     1      -7.817   2.722  71.808  1.00  0.00    -0.051 OA 
HETATM   30  C   UNL     1      -8.411   3.492  71.075  1.00  0.00    -0.066 C  
ENDBRANCH  21  22
ENDBRANCH   9  21
ENDBRANCH   4   5
ENDBRANCH   3   4
ENDBRANCH   2   3
TORSDOF 8
ENDMDL
MODEL      199
REMARK 921   NORMALIZED FREE ENERGY PREDICTED BY IDOCK:   -3.52 KCAL/MOL
REMARK 922        TOTAL FREE ENERGY PREDICTED BY IDOCK:   -7.28 KCAL/MOL
REMARK 923 INTER-LIGAND FREE ENERGY PREDICTED BY IDOCK:   -5.96 KCAL/MOL
REMARK 924 INTRA-LIGAND FREE ENERGY PREDICTED BY IDOCK:   -1.33 KCAL/MOL
REMARK 927      BINDING AFFINITY PREDICTED BY RF-SCORE:    0.00 PKD
ROOT
HETATM    1  C   UNL     1     -11.513   7.982  72.554  1.00  0.00    -0.471 C  
HETATM    2  C   UNL     1     -10.573   9.012  71.941  1.00  0.00    -0.388 C  
ENDROOT
BRANCH   2   3
HETATM    3  C   UNL     1     -10.209   8.612  70.511  1.00  0.00    -0.229 C  
BRANCH   3   4
HETATM    4  C   UNL     1      -8.768   8.878  70.088  1.00  0.00    -0.168 C  
BRANCH   4   5
HETATM    5  C   UNL     1      -8.471   8.543  68.661  1.00  0.00    -0.131 A  
HETATM    6  N   UNL     1      -8.566   7.311  68.202  1.00  0.00    -0.123 NA 
HETATM    7  C   UNL     1      -8.292   7.377  66.874  1.00  0.00    -0.122 A  
HETATM    8  C   UNL     1      -8.006   8.666  66.491  1.00  0.00    -0.099 A  
HETATM    9  N   UNL     1      -8.060   9.420  67.659  1.00  0.00    -0.106 NA 
BRANCH   8  10
HETATM   10  C   UNL     1      -7.769   9.227  65.223  1.00  0.00    -0.103 C  
HETATM   11  O   UNL     1      -8.930  11.391  62.646  1.00  0.00    -0.316 OA 
HETATM   12  C   UNL     1      -8.699   9.911  64.526  1.00  0.00    -0.219 C  
HETATM   13  C   UNL     1      -8.211  10.402  63.204  1.00  0.00    -0.155 C  
HETATM   14  O   UNL     1      -7.233   9.932  62.641  1.00  0.00    -0.113 OA 
BRANCH  12  15
HETATM   15  C   UNL     1     -10.123  10.145  64.957  1.00  0.00    -0.305 C  
BRANCH  15  16
HETATM   16  C   UNL     1     -10.644  11.555  64.854  1.00  0.00    -0.303 A  
HETATM   17  C   UNL     1     -10.904  13.867  65.010  1.00  0.00    -0.389 A  
HETATM   18  C   UNL     1     -10.012  12.760  65.096  1.00  0.00    -0.185 A  
HETATM   19  C   UNL     1     -12.171  13.482  64.637  1.00  0.00    -0.406 A  
HETATM   20  S   UNL     1     -12.281  11.796  64.389  1.00  0.00     0.034 SA 
ENDBRANCH  15  16
ENDBRANCH  12  15
ENDBRANCH   8  10
BRANCH   9  21
HETATM   21  C   UNL     1      -7.543  10.785  67.850  1.00  0.00    -0.091 C  
BRANCH  21  22
HETATM   22  C   UNL     1      -8.590  11.822  68.203  1.00  0.00    -0.160 A  
HETATM   23  C   UNL     1      -8.255  13.173  68.379  1.00  0.00    -0.130 A  
HETATM   24  C   UNL     1      -9.242  14.148  68.543  1.00  0.00    -0.187 A  
HETATM   25  C   UNL     1      -9.930  11.458  68.397  1.00  0.00    -0.206 A  
HETATM   26  O   UNL     1     -12.692  14.534  67.807  1.00  0.00     0.313 OA 
HETATM   27  C   UNL     1     -10.926  12.425  68.555  1.00  0.00    -0.277 A  
HETATM   28  C   UNL     1     -10.585  13.779  68.556  1.00  0.00    -0.261 A  
HETATM   29  O   UNL     1     -11.477  15.912  69.131  1.00  0.00    -0.338 OA 
HETATM   30  C   UNL     1     -11.615  14.845  68.562  1.00  0.00    -0.323 C  
ENDBRANCH  21  22
ENDBRANCH   9  21
ENDBRANCH   4   5
ENDBRANCH   3   4
ENDBRANCH   2   3
TORSDOF 8
ENDMDL
MODEL      200
REMARK 921   NORMALIZED FREE ENERGY PREDICTED BY IDOCK:   -3.51 KCAL/MOL
REMARK 922        TOTAL FREE ENERGY PREDICTED BY IDOCK:   -7.27 KCAL/MOL
REMARK 923 INTER-LIGAND FREE ENERGY PREDICTED BY IDOCK:   -6.93 KCAL/MOL
REMARK 924 INTRA-LIGAND FREE ENERGY PREDICTED BY IDOCK:   -0.34 KCAL/MOL
REMARK 927      BINDING AFFINITY PREDICTED BY RF-SCORE:    0.00 PKD
ROOT
HETATM    1  C   UNL     1      -9.265   6.616  72.348  1.00  0.00    -0.140 C  
HETATM    2  C   UNL     1     -10.666   7.185  72.531  1.00  0.00    -0.285 C  
ENDROOT
BRANCH   2   3
HETATM    3  C   UNL     1     -10.651   8.702  72.340  1.00  0.00    -0.310 C  
BRANCH   3   4
HETATM    4  C   UNL     1     -11.597   9.251  71.277  1.00  0.00    -0.419 C  
BRANCH   4   5
HETATM    5  C   UNL     1     -11.020   9.290  69.897  1.00  0.00    -0.213 A  
HETATM    6  N   UNL     1     -10.022   8.508  69.538  1.00  0.00    -0.189 NA 
HETATM    7  C   UNL     1      -9.797   8.756  68.222  1.00  0.00    -0.165 A  
HETATM    8  C   UNL     1     -10.656   9.719  67.747  1.00  0.00    -0.266 A  
HETATM    9  N   UNL     1     -11.413  10.116  68.845  1.00  0.00    -0.127 NA 
BRANCH   8  10
HETATM   10  C   UNL     1     -10.862  10.220  66.449  1.00  0.00    -0.025 C  
HETATM   11  O   UNL     1      -9.770  10.285  63.061  1.00  0.00    -0.301 OA 
HETATM   12  C   UNL     1      -9.968  10.084  65.448  1.00  0.00    -0.364 C  
HETATM   13  C   UNL     1     -10.411  10.705  64.165  1.00  0.00    -0.223 C  
HETATM   14  O   UNL     1     -11.285  11.558  64.107  1.00  0.00    -0.358 OA 
BRANCH  12  15
HETATM   15  C   UNL     1      -8.616   9.432  65.562  1.00  0.00    -0.169 C  
BRANCH  15  16
HETATM   16  C   UNL     1      -7.457  10.321  65.933  1.00  0.00    -0.135 A  
HETATM   17  C   UNL     1      -5.327  11.226  66.223  1.00  0.00    -0.134 A  
HETATM   18  C   UNL     1      -6.135  10.278  65.532  1.00  0.00    -0.113 A  
HETATM   19  C   UNL     1      -6.069  12.010  67.077  1.00  0.00    -0.132 A  
HETATM   20  S   UNL     1      -7.728  11.607  67.041  1.00  0.00    -0.149 SA 
ENDBRANCH  15  16
ENDBRANCH  12  15
ENDBRANCH   8  10
BRANCH   9  21
HETATM   21  C   UNL     1     -12.255  11.319  68.945  1.00  0.00    -0.093 C  
BRANCH  21  22
HETATM   22  C   UNL     1     -11.625  12.587  68.403  1.00  0.00    -0.368 A  
HETATM   23  C   UNL     1     -11.990  13.114  67.156  1.00  0.00    -0.397 A  
HETATM   24  C   UNL     1     -11.530  14.363  66.734  1.00  0.00    -0.381 A  
HETATM   25  C   UNL     1     -10.627  13.261  69.122  1.00  0.00    -0.011 A  
HETATM   26  O   UNL     1     -10.247  17.320  68.219  1.00  0.00    -0.307 OA 
HETATM   27  C   UNL     1     -10.163  14.514  68.713  1.00  0.00    -0.244 A  
HETATM   28  C   UNL     1     -10.672  15.098  67.551  1.00  0.00    -0.284 A  
HETATM   29  O   UNL     1     -10.211  16.850  66.004  1.00  0.00    -0.335 OA 
HETATM   30  C   UNL     1     -10.333  16.485  67.159  1.00  0.00    -0.298 C  
ENDBRANCH  21  22
ENDBRANCH   9  21
ENDBRANCH   4   5
ENDBRANCH   3   4
ENDBRANCH   2   3
TORSDOF 8
ENDMDL
MODEL      201
REMARK 921   NORMALIZED FREE ENERGY PREDICTED BY IDOCK:   -3.48 KCAL/MOL
REMARK 922        TOTAL FREE ENERGY PREDICTED BY IDOCK:   -7.22 KCAL/MOL
REMARK 923 INTER-LIGAND FREE ENERGY PREDICTED BY IDOCK:   -5.32 KCAL/MOL
REMARK 924 INTRA-LIGAND FREE ENERGY PREDICTED BY IDOCK:   -1.90 KCAL/MOL
REMARK 927      BINDING AFFINITY PREDICTED BY RF-SCORE:    0.00 PKD
ROOT
HETATM    1  C   UNL     1     -10.285   6.816  72.049  1.00  0.00    -0.209 C  
HETATM    2  C   UNL     1     -11.673   7.304  71.656  1.00  0.00    -0.316 C  
ENDROOT
BRANCH   2   3
HETATM    3  C   UNL     1     -11.776   8.817  71.848  1.00  0.00    -0.429 C  
BRANCH   3   4
HETATM    4  C   UNL     1     -10.684   9.650  71.184  1.00  0.00    -0.365 C  
BRANCH   4   5
HETATM    5  C   UNL     1     -11.172  10.557  70.098  1.00  0.00    -0.315 A  
HETATM    6  N   UNL     1     -11.621  11.769  70.355  1.00  0.00    -0.153 NA 
HETATM    7  C   UNL     1     -11.916  12.329  69.153  1.00  0.00    -0.249 A  
HETATM    8  C   UNL     1     -11.661  11.453  68.124  1.00  0.00    -0.284 A  
HETATM    9  N   UNL     1     -11.235  10.277  68.735  1.00  0.00    -0.230 NA 
BRANCH   8  10
HETATM   10  C   UNL     1     -11.714  11.620  66.729  1.00  0.00    -0.099 C  
HETATM   11  O   UNL     1     -10.467  13.346  63.875  1.00  0.00    -0.253 OA 
HETATM   12  C   UNL     1     -11.121  12.643  66.079  1.00  0.00    -0.321 C  
HETATM   13  C   UNL     1     -11.325  12.607  64.601  1.00  0.00    -0.318 C  
HETATM   14  O   UNL     1     -12.221  11.968  64.069  1.00  0.00    -0.414 OA 
BRANCH  12  15
HETATM   15  C   UNL     1     -10.362  13.771  66.726  1.00  0.00    -0.272 C  
BRANCH  15  16
HETATM   16  C   UNL     1      -8.997  13.448  67.276  1.00  0.00    -0.221 A  
HETATM   17  C   UNL     1      -6.943  12.441  67.731  1.00  0.00    -0.118 A  
HETATM   18  C   UNL     1      -8.059  12.527  66.849  1.00  0.00    -0.039 A  
HETATM   19  C   UNL     1      -7.030  13.347  68.763  1.00  0.00    -0.103 A  
HETATM   20  S   UNL     1      -8.446  14.296  68.665  1.00  0.00    -0.104 SA 
ENDBRANCH  15  16
ENDBRANCH  12  15
ENDBRANCH   8  10
BRANCH   9  21
HETATM   21  C   UNL     1     -11.129   8.949  68.108  1.00  0.00     0.268 C  
BRANCH  21  22
HETATM   22  C   UNL     1      -9.728   8.371  68.069  1.00  0.00    -0.184 A  
HETATM   23  C   UNL     1      -9.506   6.988  68.037  1.00  0.00    -0.126 A  
HETATM   24  C   UNL     1      -8.226   6.463  67.838  1.00  0.00    -0.115 A  
HETATM   25  C   UNL     1      -8.602   9.207  68.094  1.00  0.00    -0.129 A  
HETATM   26  O   UNL     1      -5.141   7.542  66.455  1.00  0.00    -0.022 OA 
HETATM   27  C   UNL     1      -7.318   8.695  67.889  1.00  0.00    -0.092 A  
HETATM   28  C   UNL     1      -7.141   7.324  67.688  1.00  0.00    -0.085 A  
HETATM   29  O   UNL     1      -5.436   5.660  67.680  1.00  0.00    -0.010 OA 
HETATM   30  C   UNL     1      -5.827   6.753  67.312  1.00  0.00    -0.014 C  
ENDBRANCH  21  22
ENDBRANCH   9  21
ENDBRANCH   4   5
ENDBRANCH   3   4
ENDBRANCH   2   3
TORSDOF 8
ENDMDL
MODEL      202
REMARK 921   NORMALIZED FREE ENERGY PREDICTED BY IDOCK:   -3.47 KCAL/MOL
REMARK 922        TOTAL FREE ENERGY PREDICTED BY IDOCK:   -7.21 KCAL/MOL
REMARK 923 INTER-LIGAND FREE ENERGY PREDICTED BY IDOCK:   -6.90 KCAL/MOL
REMARK 924 INTRA-LIGAND FREE ENERGY PREDICTED BY IDOCK:   -0.31 KCAL/MOL
REMARK 927      BINDING AFFINITY PREDICTED BY RF-SCORE:    0.00 PKD
ROOT
HETATM    1  C   UNL     1      -5.154  14.162  70.492  1.00  0.00    -0.102 C  
HETATM    2  C   UNL     1      -5.569  13.057  69.529  1.00  0.00    -0.089 C  
ENDROOT
BRANCH   2   3
HETATM    3  C   UNL     1      -6.952  13.355  68.947  1.00  0.00    -0.102 C  
BRANCH   3   4
HETATM    4  C   UNL     1      -7.482  12.345  67.934  1.00  0.00    -0.120 C  
BRANCH   4   5
HETATM    5  C   UNL     1      -8.318  11.255  68.527  1.00  0.00    -0.155 A  
HETATM    6  N   UNL     1      -7.941   9.993  68.493  1.00  0.00    -0.099 NA 
HETATM    7  C   UNL     1      -8.889   9.293  69.168  1.00  0.00    -0.141 A  
HETATM    8  C   UNL     1      -9.886  10.124  69.623  1.00  0.00    -0.225 A  
HETATM    9  N   UNL     1      -9.554  11.392  69.157  1.00  0.00     0.026 NA 
BRANCH   8  10
HETATM   10  C   UNL     1     -11.001   9.873  70.443  1.00  0.00    -0.379 C  
HETATM   11  O   UNL     1     -12.721   7.551  72.524  1.00  0.00    -0.003 OA 
HETATM   12  C   UNL     1     -11.330   8.646  70.896  1.00  0.00    -0.314 C  
HETATM   13  C   UNL     1     -12.560   8.634  71.743  1.00  0.00    -0.349 C  
HETATM   14  O   UNL     1     -13.388   9.533  71.724  1.00  0.00    -0.375 OA 
BRANCH  12  15
HETATM   15  C   UNL     1     -10.604   7.367  70.572  1.00  0.00    -0.234 C  
BRANCH  15  16
HETATM   16  C   UNL     1      -9.571   6.899  71.564  1.00  0.00    -0.162 A  
HETATM   17  C   UNL     1      -8.028   5.627  72.765  1.00  0.00    -0.102 A  
HETATM   18  C   UNL     1      -8.788   5.760  71.567  1.00  0.00    -0.139 A  
HETATM   19  C   UNL     1      -8.200   6.700  73.607  1.00  0.00    -0.113 A  
HETATM   20  S   UNL     1      -9.268   7.863  72.955  1.00  0.00    -0.264 SA 
ENDBRANCH  15  16
ENDBRANCH  12  15
ENDBRANCH   8  10
BRANCH   9  21
HETATM   21  C   UNL     1     -10.435  12.570  69.108  1.00  0.00     0.110 C  
BRANCH  21  22
HETATM   22  C   UNL     1     -10.762  13.067  67.714  1.00  0.00    -0.242 A  
HETATM   23  C   UNL     1     -11.653  12.379  66.879  1.00  0.00    -0.437 A  
HETATM   24  C   UNL     1     -12.075  12.923  65.663  1.00  0.00    -0.511 A  
HETATM   25  C   UNL     1     -10.154  14.221  67.199  1.00  0.00    -0.254 A  
HETATM   26  O   UNL     1     -12.298  16.133  64.168  1.00  0.00    -0.623 OA 
HETATM   27  C   UNL     1     -10.572  14.778  65.987  1.00  0.00    -0.318 A  
HETATM   28  C   UNL     1     -11.588  14.162  65.253  1.00  0.00    -0.341 A  
HETATM   29  O   UNL     1     -12.565  14.165  63.080  1.00  0.00    -0.686 OA 
HETATM   30  C   UNL     1     -12.174  14.792  64.048  1.00  0.00    -0.155 C  
ENDBRANCH  21  22
ENDBRANCH   9  21
ENDBRANCH   4   5
ENDBRANCH   3   4
ENDBRANCH   2   3
TORSDOF 8
ENDMDL
MODEL      203
REMARK 921   NORMALIZED FREE ENERGY PREDICTED BY IDOCK:   -3.47 KCAL/MOL
REMARK 922        TOTAL FREE ENERGY PREDICTED BY IDOCK:   -7.20 KCAL/MOL
REMARK 923 INTER-LIGAND FREE ENERGY PREDICTED BY IDOCK:   -6.43 KCAL/MOL
REMARK 924 INTRA-LIGAND FREE ENERGY PREDICTED BY IDOCK:   -0.77 KCAL/MOL
REMARK 927      BINDING AFFINITY PREDICTED BY RF-SCORE:    0.00 PKD
ROOT
HETATM    1  C   UNL     1      -5.127  14.770  71.985  1.00  0.00    -0.167 C  
HETATM    2  C   UNL     1      -5.593  13.568  71.173  1.00  0.00    -0.207 C  
ENDROOT
BRANCH   2   3
HETATM    3  C   UNL     1      -6.618  14.003  70.125  1.00  0.00     0.005 C  
BRANCH   3   4
HETATM    4  C   UNL     1      -6.388  13.482  68.710  1.00  0.00    -0.093 C  
BRANCH   4   5
HETATM    5  C   UNL     1      -6.740  12.041  68.517  1.00  0.00    -0.066 A  
HETATM    6  N   UNL     1      -5.932  11.071  68.898  1.00  0.00    -0.040 NA 
HETATM    7  C   UNL     1      -6.582   9.908  68.635  1.00  0.00    -0.050 A  
HETATM    8  C   UNL     1      -7.812  10.146  68.068  1.00  0.00    -0.096 A  
HETATM    9  N   UNL     1      -7.896  11.528  67.931  1.00  0.00    -0.117 NA 
BRANCH   8  10
HETATM   10  C   UNL     1      -8.861   9.274  67.727  1.00  0.00    -0.121 C  
HETATM   11  O   UNL     1     -11.038   6.661  68.778  1.00  0.00    -0.263 OA 
HETATM   12  C   UNL     1      -9.240   8.231  68.493  1.00  0.00    -0.136 C  
HETATM   13  C   UNL     1     -10.373   7.448  67.915  1.00  0.00    -0.204 C  
HETATM   14  O   UNL     1     -10.676   7.494  66.732  1.00  0.00    -0.319 OA 
BRANCH  12  15
HETATM   15  C   UNL     1      -8.592   7.810  69.786  1.00  0.00    -0.134 C  
BRANCH  15  16
HETATM   16  C   UNL     1      -9.502   7.602  70.969  1.00  0.00    -0.159 A  
HETATM   17  C   UNL     1     -10.721   6.669  72.724  1.00  0.00    -0.272 A  
HETATM   18  C   UNL     1      -9.650   6.507  71.799  1.00  0.00    -0.158 A  
HETATM   19  C   UNL     1     -11.312   7.906  72.618  1.00  0.00    -0.408 A  
HETATM   20  S   UNL     1     -10.576   8.868  71.415  1.00  0.00    -0.331 SA 
ENDBRANCH  15  16
ENDBRANCH  12  15
ENDBRANCH   8  10
BRANCH   9  21
HETATM   21  C   UNL     1      -8.866  12.274  67.113  1.00  0.00    -0.194 C  
BRANCH  21  22
HETATM   22  C   UNL     1      -9.878  13.084  67.899  1.00  0.00    -0.224 A  
HETATM   23  C   UNL     1     -10.898  12.467  68.636  1.00  0.00    -0.273 A  
HETATM   24  C   UNL     1     -11.726  13.204  69.486  1.00  0.00    -0.382 A  
HETATM   25  C   UNL     1      -9.844  14.485  67.889  1.00  0.00    -0.222 A  
HETATM   26  O   UNL     1     -11.619  16.310  71.200  1.00  0.00    -0.427 OA 
HETATM   27  C   UNL     1     -10.663  15.234  68.740  1.00  0.00    -0.241 A  
HETATM   28  C   UNL     1     -11.556  14.583  69.593  1.00  0.00    -0.346 A  
HETATM   29  O   UNL     1     -13.461  15.016  70.958  1.00  0.00    -0.409 OA 
HETATM   30  C   UNL     1     -12.330  15.317  70.622  1.00  0.00    -0.377 C  
ENDBRANCH  21  22
ENDBRANCH   9  21
ENDBRANCH   4   5
ENDBRANCH   3   4
ENDBRANCH   2   3
TORSDOF 8
ENDMDL
MODEL      204
REMARK 921   NORMALIZED FREE ENERGY PREDICTED BY IDOCK:   -3.46 KCAL/MOL
REMARK 922        TOTAL FREE ENERGY PREDICTED BY IDOCK:   -7.20 KCAL/MOL
REMARK 923 INTER-LIGAND FREE ENERGY PREDICTED BY IDOCK:   -5.43 KCAL/MOL
REMARK 924 INTRA-LIGAND FREE ENERGY PREDICTED BY IDOCK:   -1.77 KCAL/MOL
REMARK 927      BINDING AFFINITY PREDICTED BY RF-SCORE:    0.00 PKD
ROOT
HETATM    1  C   UNL     1     -13.007  10.701  70.530  1.00  0.00    -0.277 C  
HETATM    2  C   UNL     1     -11.686  10.467  71.252  1.00  0.00    -0.320 C  
ENDROOT
BRANCH   2   3
HETATM    3  C   UNL     1     -11.377   8.971  71.318  1.00  0.00    -0.389 C  
BRANCH   3   4
HETATM    4  C   UNL     1     -12.022   8.107  70.238  1.00  0.00     0.299 C  
BRANCH   4   5
HETATM    5  C   UNL     1     -11.067   7.217  69.507  1.00  0.00    -0.141 A  
HETATM    6  N   UNL     1     -11.102   5.905  69.635  1.00  0.00    -0.389 NA 
HETATM    7  C   UNL     1     -10.155   5.415  68.795  1.00  0.00    -0.185 A  
HETATM    8  C   UNL     1      -9.503   6.431  68.138  1.00  0.00    -0.114 A  
HETATM    9  N   UNL     1     -10.048   7.608  68.641  1.00  0.00    -0.185 NA 
BRANCH   8  10
HETATM   10  C   UNL     1      -8.537   6.406  67.115  1.00  0.00    -0.111 C  
HETATM   11  O   UNL     1      -5.221   5.534  66.155  1.00  0.00    -0.008 OA 
HETATM   12  C   UNL     1      -7.236   6.123  67.328  1.00  0.00    -0.075 C  
HETATM   13  C   UNL     1      -6.406   6.166  66.088  1.00  0.00    -0.038 C  
HETATM   14  O   UNL     1      -6.759   6.750  65.073  1.00  0.00    -0.047 OA 
BRANCH  12  15
HETATM   15  C   UNL     1      -6.607   5.839  68.667  1.00  0.00    -0.048 C  
BRANCH  15  16
HETATM   16  C   UNL     1      -6.637   4.411  69.145  1.00  0.00    -0.041 A  
HETATM   17  C   UNL     1      -6.776   2.086  69.258  1.00  0.00    -0.033 A  
HETATM   18  C   UNL     1      -6.584   3.229  68.430  1.00  0.00    -0.037 A  
HETATM   19  C   UNL     1      -6.899   2.424  70.585  1.00  0.00    -0.033 A  
HETATM   20  S   UNL     1      -6.779   4.110  70.831  1.00  0.00    -0.032 SA 
ENDBRANCH  15  16
ENDBRANCH  12  15
ENDBRANCH   8  10
BRANCH   9  21
HETATM   21  C   UNL     1      -9.498   8.966  68.495  1.00  0.00    -0.147 C  
BRANCH  21  22
HETATM   22  C   UNL     1     -10.111   9.788  67.379  1.00  0.00    -0.259 A  
HETATM   23  C   UNL     1     -10.988  10.849  67.646  1.00  0.00    -0.350 A  
HETATM   24  C   UNL     1     -11.422  11.703  66.629  1.00  0.00    -0.280 A  
HETATM   25  C   UNL     1      -9.845   9.492  66.034  1.00  0.00    -0.353 A  
HETATM   26  O   UNL     1     -10.338  12.694  63.399  1.00  0.00    -0.354 OA 
HETATM   27  C   UNL     1     -10.268  10.343  65.010  1.00  0.00    -0.334 A  
HETATM   28  C   UNL     1     -10.999  11.492  65.319  1.00  0.00    -0.291 A  
HETATM   29  O   UNL     1     -12.370  13.147  64.290  1.00  0.00    -0.492 OA 
HETATM   30  C   UNL     1     -11.335  12.505  64.291  1.00  0.00    -0.361 C  
ENDBRANCH  21  22
ENDBRANCH   9  21
ENDBRANCH   4   5
ENDBRANCH   3   4
ENDBRANCH   2   3
TORSDOF 8
ENDMDL
MODEL      205
REMARK 921   NORMALIZED FREE ENERGY PREDICTED BY IDOCK:   -3.46 KCAL/MOL
REMARK 922        TOTAL FREE ENERGY PREDICTED BY IDOCK:   -7.20 KCAL/MOL
REMARK 923 INTER-LIGAND FREE ENERGY PREDICTED BY IDOCK:   -5.32 KCAL/MOL
REMARK 924 INTRA-LIGAND FREE ENERGY PREDICTED BY IDOCK:   -1.88 KCAL/MOL
REMARK 927      BINDING AFFINITY PREDICTED BY RF-SCORE:    0.00 PKD
ROOT
HETATM    1  C   UNL     1      -6.564  10.055  63.790  1.00  0.00    -0.130 C  
HETATM    2  C   UNL     1      -8.031   9.649  63.740  1.00  0.00    -0.143 C  
ENDROOT
BRANCH   2   3
HETATM    3  C   UNL     1      -8.292   8.487  64.699  1.00  0.00    -0.156 C  
BRANCH   3   4
HETATM    4  C   UNL     1      -7.661   8.608  66.083  1.00  0.00    -0.093 C  
BRANCH   4   5
HETATM    5  C   UNL     1      -8.623   8.963  67.172  1.00  0.00    -0.110 A  
HETATM    6  N   UNL     1      -9.010  10.206  67.380  1.00  0.00    -0.135 NA 
HETATM    7  C   UNL     1      -9.919  10.158  68.387  1.00  0.00    -0.156 A  
HETATM    8  C   UNL     1     -10.098   8.869  68.832  1.00  0.00    -0.197 A  
HETATM    9  N   UNL     1      -9.213   8.095  68.088  1.00  0.00    -0.134 NA 
BRANCH   8  10
HETATM   10  C   UNL     1     -10.995   8.327  69.769  1.00  0.00    -0.132 C  
HETATM   11  O   UNL     1     -11.853   7.926  73.201  1.00  0.00    -0.216 OA 
HETATM   12  C   UNL     1     -10.751   8.287  71.095  1.00  0.00    -0.270 C  
HETATM   13  C   UNL     1     -11.851   7.657  71.884  1.00  0.00    -0.294 C  
HETATM   14  O   UNL     1     -12.692   6.924  71.383  1.00  0.00    -0.370 OA 
BRANCH  12  15
HETATM   15  C   UNL     1      -9.492   8.762  71.771  1.00  0.00    -0.363 C  
BRANCH  15  16
HETATM   16  C   UNL     1      -8.656   7.720  72.467  1.00  0.00    -0.136 A  
HETATM   17  C   UNL     1      -7.495   5.771  73.009  1.00  0.00    -0.096 A  
HETATM   18  C   UNL     1      -8.110   6.545  71.984  1.00  0.00    -0.107 A  
HETATM   19  C   UNL     1      -7.529   6.408  74.228  1.00  0.00    -0.091 A  
HETATM   20  S   UNL     1      -8.293   7.933  74.133  1.00  0.00    -0.243 SA 
ENDBRANCH  15  16
ENDBRANCH  12  15
ENDBRANCH   8  10
BRANCH   9  21
HETATM   21  C   UNL     1      -8.795   6.713  68.379  1.00  0.00    -0.121 C  
BRANCH  21  22
HETATM   22  C   UNL     1      -9.180   5.694  67.326  1.00  0.00    -0.110 A  
HETATM   23  C   UNL     1     -10.468   5.659  66.774  1.00  0.00    -0.353 A  
HETATM   24  C   UNL     1     -10.771   4.828  65.692  1.00  0.00    -0.188 A  
HETATM   25  C   UNL     1      -8.263   4.726  66.890  1.00  0.00    -0.107 A  
HETATM   26  O   UNL     1      -9.018   3.179  63.085  1.00  0.00    -0.092 OA 
HETATM   27  C   UNL     1      -8.553   3.894  65.805  1.00  0.00    -0.111 A  
HETATM   28  C   UNL     1      -9.787   3.998  65.160  1.00  0.00    -0.203 A  
HETATM   29  O   UNL     1     -11.184   2.815  63.634  1.00  0.00    -0.270 OA 
HETATM   30  C   UNL     1     -10.083   3.254  63.913  1.00  0.00    -0.189 C  
ENDBRANCH  21  22
ENDBRANCH   9  21
ENDBRANCH   4   5
ENDBRANCH   3   4
ENDBRANCH   2   3
TORSDOF 8
ENDMDL
MODEL      206
REMARK 921   NORMALIZED FREE ENERGY PREDICTED BY IDOCK:   -3.46 KCAL/MOL
REMARK 922        TOTAL FREE ENERGY PREDICTED BY IDOCK:   -7.19 KCAL/MOL
REMARK 923 INTER-LIGAND FREE ENERGY PREDICTED BY IDOCK:   -5.66 KCAL/MOL
REMARK 924 INTRA-LIGAND FREE ENERGY PREDICTED BY IDOCK:   -1.53 KCAL/MOL
REMARK 927      BINDING AFFINITY PREDICTED BY RF-SCORE:    0.00 PKD
ROOT
HETATM    1  C   UNL     1     -12.735  13.173  65.075  1.00  0.00    -0.456 C  
HETATM    2  C   UNL     1     -12.972  12.382  63.795  1.00  0.00    -0.254 C  
ENDROOT
BRANCH   2   3
HETATM    3  C   UNL     1     -11.765  11.494  63.491  1.00  0.00    -0.248 C  
BRANCH   3   4
HETATM    4  C   UNL     1     -10.399  12.162  63.606  1.00  0.00    -0.482 C  
BRANCH   4   5
HETATM    5  C   UNL     1      -9.321  11.276  64.147  1.00  0.00    -0.111 A  
HETATM    6  N   UNL     1      -8.598  10.501  63.363  1.00  0.00    -0.178 NA 
HETATM    7  C   UNL     1      -7.686   9.893  64.164  1.00  0.00    -0.138 A  
HETATM    8  C   UNL     1      -7.844  10.279  65.475  1.00  0.00    -0.152 A  
HETATM    9  N   UNL     1      -8.944  11.130  65.481  1.00  0.00    -0.193 NA 
BRANCH   8  10
HETATM   10  C   UNL     1      -7.082   9.998  66.623  1.00  0.00    -0.091 C  
HETATM   11  O   UNL     1      -5.265   7.567  68.485  1.00  0.00    -0.023 OA 
HETATM   12  C   UNL     1      -6.748   8.749  67.007  1.00  0.00    -0.066 C  
HETATM   13  C   UNL     1      -5.942   8.707  68.263  1.00  0.00    -0.042 C  
HETATM   14  O   UNL     1      -5.905   9.634  69.059  1.00  0.00    -0.036 OA 
BRANCH  12  15
HETATM   15  C   UNL     1      -7.163   7.477  66.315  1.00  0.00    -0.074 C  
BRANCH  15  16
HETATM   16  C   UNL     1      -8.526   6.930  66.651  1.00  0.00    -0.121 A  
HETATM   17  C   UNL     1     -10.799   6.706  67.124  1.00  0.00    -0.471 A  
HETATM   18  C   UNL     1      -9.769   7.530  66.585  1.00  0.00    -0.273 A  
HETATM   19  C   UNL     1     -10.322   5.478  67.521  1.00  0.00    -0.214 A  
HETATM   20  S   UNL     1      -8.645   5.320  67.240  1.00  0.00    -0.103 SA 
ENDBRANCH  15  16
ENDBRANCH  12  15
ENDBRANCH   8  10
BRANCH   9  21
HETATM   21  C   UNL     1      -9.708  11.572  66.659  1.00  0.00    -0.199 C  
BRANCH  21  22
HETATM   22  C   UNL     1      -9.259  12.891  67.255  1.00  0.00    -0.208 A  
HETATM   23  C   UNL     1      -8.213  12.958  68.186  1.00  0.00    -0.163 A  
HETATM   24  C   UNL     1      -7.696  14.185  68.609  1.00  0.00    -0.135 A  
HETATM   25  C   UNL     1      -9.900  14.091  66.916  1.00  0.00    -0.267 A  
HETATM   26  O   UNL     1      -7.580  17.527  67.421  1.00  0.00    -0.190 OA 
HETATM   27  C   UNL     1      -9.388  15.325  67.327  1.00  0.00    -0.212 A  
HETATM   28  C   UNL     1      -8.238  15.371  68.118  1.00  0.00    -0.144 A  
HETATM   29  O   UNL     1      -7.005  16.863  69.508  1.00  0.00    -0.215 OA 
HETATM   30  C   UNL     1      -7.567  16.650  68.449  1.00  0.00    -0.197 C  
ENDBRANCH  21  22
ENDBRANCH   9  21
ENDBRANCH   4   5
ENDBRANCH   3   4
ENDBRANCH   2   3
TORSDOF 8
ENDMDL
MODEL      207
REMARK 921   NORMALIZED FREE ENERGY PREDICTED BY IDOCK:   -3.45 KCAL/MOL
REMARK 922        TOTAL FREE ENERGY PREDICTED BY IDOCK:   -7.19 KCAL/MOL
REMARK 923 INTER-LIGAND FREE ENERGY PREDICTED BY IDOCK:   -5.32 KCAL/MOL
REMARK 924 INTRA-LIGAND FREE ENERGY PREDICTED BY IDOCK:   -1.87 KCAL/MOL
REMARK 927      BINDING AFFINITY PREDICTED BY RF-SCORE:    0.00 PKD
ROOT
HETATM    1  C   UNL     1      -7.291  14.969  69.040  1.00  0.00    -0.151 C  
HETATM    2  C   UNL     1      -6.716  13.559  69.097  1.00  0.00    -0.103 C  
ENDROOT
BRANCH   2   3
HETATM    3  C   UNL     1      -7.738  12.550  68.572  1.00  0.00    -0.113 C  
BRANCH   3   4
HETATM    4  C   UNL     1      -7.268  11.101  68.497  1.00  0.00    -0.088 C  
BRANCH   4   5
HETATM    5  C   UNL     1      -7.947  10.180  69.460  1.00  0.00    -0.165 A  
HETATM    6  N   UNL     1      -7.349   9.753  70.555  1.00  0.00    -0.238 NA 
HETATM    7  C   UNL     1      -8.261   8.999  71.219  1.00  0.00    -0.110 A  
HETATM    8  C   UNL     1      -9.449   8.937  70.529  1.00  0.00    -0.204 A  
HETATM    9  N   UNL     1      -9.232   9.651  69.354  1.00  0.00    -0.176 NA 
BRANCH   8  10
HETATM   10  C   UNL     1     -10.690   8.370  70.867  1.00  0.00    -0.260 C  
HETATM   11  O   UNL     1     -12.433   5.863  72.699  1.00  0.00    -0.045 OA 
HETATM   12  C   UNL     1     -10.820   7.191  71.511  1.00  0.00    -0.250 C  
HETATM   13  C   UNL     1     -12.239   6.797  71.751  1.00  0.00    -0.358 C  
HETATM   14  O   UNL     1     -13.175   7.268  71.122  1.00  0.00    -0.337 OA 
BRANCH  12  15
HETATM   15  C   UNL     1      -9.687   6.288  71.924  1.00  0.00    -0.166 C  
BRANCH  15  16
HETATM   16  C   UNL     1      -9.326   5.171  70.980  1.00  0.00    -0.151 A  
HETATM   17  C   UNL     1      -8.835   3.912  69.079  1.00  0.00    -0.151 A  
HETATM   18  C   UNL     1      -8.970   5.212  69.645  1.00  0.00    -0.137 A  
HETATM   19  C   UNL     1      -9.023   2.921  70.014  1.00  0.00    -0.101 A  
HETATM   20  S   UNL     1      -9.356   3.556  71.564  1.00  0.00    -0.151 SA 
ENDBRANCH  15  16
ENDBRANCH  12  15
ENDBRANCH   8  10
BRANCH   9  21
HETATM   21  C   UNL     1     -10.074   9.634  68.147  1.00  0.00    -0.175 C  
BRANCH  21  22
HETATM   22  C   UNL     1      -9.927   8.398  67.282  1.00  0.00    -0.291 A  
HETATM   23  C   UNL     1      -8.839   8.235  66.413  1.00  0.00    -0.180 A  
HETATM   24  C   UNL     1      -8.622   7.029  65.741  1.00  0.00    -0.138 A  
HETATM   25  C   UNL     1     -10.898   7.386  67.299  1.00  0.00    -0.326 A  
HETATM   26  O   UNL     1      -9.531   3.620  66.119  1.00  0.00    -0.175 OA 
HETATM   27  C   UNL     1     -10.689   6.173  66.636  1.00  0.00    -0.301 A  
HETATM   28  C   UNL     1      -9.511   5.970  65.914  1.00  0.00    -0.004 A  
HETATM   29  O   UNL     1      -8.571   4.518  64.276  1.00  0.00    -0.120 OA 
HETATM   30  C   UNL     1      -9.171   4.654  65.327  1.00  0.00    -0.156 C  
ENDBRANCH  21  22
ENDBRANCH   9  21
ENDBRANCH   4   5
ENDBRANCH   3   4
ENDBRANCH   2   3
TORSDOF 8
ENDMDL
MODEL      208
REMARK 921   NORMALIZED FREE ENERGY PREDICTED BY IDOCK:   -3.44 KCAL/MOL
REMARK 922        TOTAL FREE ENERGY PREDICTED BY IDOCK:   -7.16 KCAL/MOL
REMARK 923 INTER-LIGAND FREE ENERGY PREDICTED BY IDOCK:   -5.17 KCAL/MOL
REMARK 924 INTRA-LIGAND FREE ENERGY PREDICTED BY IDOCK:   -1.99 KCAL/MOL
REMARK 927      BINDING AFFINITY PREDICTED BY RF-SCORE:    0.00 PKD
ROOT
HETATM    1  C   UNL     1     -11.003   6.254  71.496  1.00  0.00    -0.322 C  
HETATM    2  C   UNL     1     -11.394   7.544  70.787  1.00  0.00    -0.300 C  
ENDROOT
BRANCH   2   3
HETATM    3  C   UNL     1     -10.407   8.659  71.135  1.00  0.00    -0.294 C  
BRANCH   3   4
HETATM    4  C   UNL     1      -8.989   8.488  70.599  1.00  0.00    -0.182 C  
BRANCH   4   5
HETATM    5  C   UNL     1      -8.668   9.344  69.416  1.00  0.00    -0.157 A  
HETATM    6  N   UNL     1      -8.310  10.606  69.547  1.00  0.00    -0.067 NA 
HETATM    7  C   UNL     1      -8.034  11.056  68.296  1.00  0.00    -0.124 A  
HETATM    8  C   UNL     1      -8.234  10.069  67.360  1.00  0.00    -0.118 A  
HETATM    9  N   UNL     1      -8.705   8.971  68.073  1.00  0.00    -0.129 NA 
BRANCH   8  10
HETATM   10  C   UNL     1      -7.985  10.038  65.976  1.00  0.00    -0.118 C  
HETATM   11  O   UNL     1      -9.168  10.804  62.707  1.00  0.00    -0.258 OA 
HETATM   12  C   UNL     1      -8.924  10.299  65.045  1.00  0.00    -0.225 C  
HETATM   13  C   UNL     1      -8.419  10.197  63.644  1.00  0.00    -0.184 C  
HETATM   14  O   UNL     1      -7.403   9.585  63.348  1.00  0.00    -0.101 OA 
BRANCH  12  15
HETATM   15  C   UNL     1     -10.371  10.616  65.322  1.00  0.00    -0.321 C  
BRANCH  15  16
HETATM   16  C   UNL     1     -10.684  12.008  65.803  1.00  0.00    -0.279 A  
HETATM   17  C   UNL     1     -10.682  14.314  66.155  1.00  0.00    -0.295 A  
HETATM   18  C   UNL     1     -10.258  13.234  65.328  1.00  0.00    -0.303 A  
HETATM   19  C   UNL     1     -11.475  13.887  67.194  1.00  0.00    -0.347 A  
HETATM   20  S   UNL     1     -11.710  12.196  67.169  1.00  0.00    -0.232 SA 
ENDBRANCH  15  16
ENDBRANCH  12  15
ENDBRANCH   8  10
BRANCH   9  21
HETATM   21  C   UNL     1      -9.352   7.772  67.516  1.00  0.00    -0.139 C  
BRANCH  21  22
HETATM   22  C   UNL     1      -8.645   6.466  67.819  1.00  0.00    -0.116 A  
HETATM   23  C   UNL     1      -9.350   5.331  68.246  1.00  0.00    -0.143 A  
HETATM   24  C   UNL     1      -8.720   4.090  68.367  1.00  0.00    -0.126 A  
HETATM   25  C   UNL     1      -7.251   6.358  67.712  1.00  0.00    -0.087 A  
HETATM   26  O   UNL     1      -5.830   2.482  67.080  1.00  0.00    -0.021 OA 
HETATM   27  C   UNL     1      -6.611   5.120  67.824  1.00  0.00    -0.050 A  
HETATM   28  C   UNL     1      -7.361   3.972  68.082  1.00  0.00    -0.059 A  
HETATM   29  O   UNL     1      -7.102   1.711  68.787  1.00  0.00    -0.036 OA 
HETATM   30  C   UNL     1      -6.756   2.620  68.055  1.00  0.00    -0.040 C  
ENDBRANCH  21  22
ENDBRANCH   9  21
ENDBRANCH   4   5
ENDBRANCH   3   4
ENDBRANCH   2   3
TORSDOF 8
ENDMDL
MODEL      209
REMARK 921   NORMALIZED FREE ENERGY PREDICTED BY IDOCK:   -3.43 KCAL/MOL
REMARK 922        TOTAL FREE ENERGY PREDICTED BY IDOCK:   -7.14 KCAL/MOL
REMARK 923 INTER-LIGAND FREE ENERGY PREDICTED BY IDOCK:   -6.04 KCAL/MOL
REMARK 924 INTRA-LIGAND FREE ENERGY PREDICTED BY IDOCK:   -1.11 KCAL/MOL
REMARK 927      BINDING AFFINITY PREDICTED BY RF-SCORE:    0.00 PKD
ROOT
HETATM    1  C   UNL     1     -13.544  13.537  71.540  1.00  0.00    -0.254 C  
HETATM    2  C   UNL     1     -13.586  12.311  72.443  1.00  0.00    -0.174 C  
ENDROOT
BRANCH   2   3
HETATM    3  C   UNL     1     -13.254  11.052  71.641  1.00  0.00    -0.461 C  
BRANCH   3   4
HETATM    4  C   UNL     1     -12.343  10.041  72.330  1.00  0.00     0.130 C  
BRANCH   4   5
HETATM    5  C   UNL     1     -12.361   8.675  71.720  1.00  0.00    -0.346 A  
HETATM    6  N   UNL     1     -13.359   7.838  71.919  1.00  0.00    -0.300 NA 
HETATM    7  C   UNL     1     -13.085   6.735  71.177  1.00  0.00    -0.013 A  
HETATM    8  C   UNL     1     -11.889   6.871  70.512  1.00  0.00    -0.333 A  
HETATM    9  N   UNL     1     -11.383   8.104  70.908  1.00  0.00    -0.267 NA 
BRANCH   8  10
HETATM   10  C   UNL     1     -11.256   6.047  69.564  1.00  0.00    -0.416 C  
HETATM   11  O   UNL     1      -9.045   3.318  68.975  1.00  0.00    -0.117 OA 
HETATM   12  C   UNL     1     -10.259   5.191  69.870  1.00  0.00    -0.361 C  
HETATM   13  C   UNL     1      -9.744   4.432  68.692  1.00  0.00    -0.120 C  
HETATM   14  O   UNL     1      -9.919   4.796  67.539  1.00  0.00    -0.174 OA 
BRANCH  12  15
HETATM   15  C   UNL     1      -9.643   5.012  71.232  1.00  0.00    -0.223 C  
BRANCH  15  16
HETATM   16  C   UNL     1     -10.296   4.011  72.150  1.00  0.00    -0.085 A  
HETATM   17  C   UNL     1     -11.494   2.998  73.876  1.00  0.00     0.032 A  
HETATM   18  C   UNL     1     -11.234   4.196  73.149  1.00  0.00    -0.244 A  
HETATM   19  C   UNL     1     -10.801   1.925  73.367  1.00  0.00    -0.151 A  
HETATM   20  S   UNL     1      -9.848   2.357  72.018  1.00  0.00    -0.153 SA 
ENDBRANCH  15  16
ENDBRANCH  12  15
ENDBRANCH   8  10
BRANCH   9  21
HETATM   21  C   UNL     1     -10.005   8.589  70.725  1.00  0.00    -0.191 C  
BRANCH  21  22
HETATM   22  C   UNL     1      -9.834   9.640  69.646  1.00  0.00    -0.233 A  
HETATM   23  C   UNL     1     -10.797  10.636  69.432  1.00  0.00    -0.289 A  
HETATM   24  C   UNL     1     -10.563  11.694  68.551  1.00  0.00    -0.241 A  
HETATM   25  C   UNL     1      -8.716   9.630  68.800  1.00  0.00    -0.126 A  
HETATM   26  O   UNL     1      -7.763  13.325  67.102  1.00  0.00    -0.120 OA 
HETATM   27  C   UNL     1      -8.468  10.686  67.918  1.00  0.00    -0.120 A  
HETATM   28  C   UNL     1      -9.361  11.757  67.848  1.00  0.00    -0.184 A  
HETATM   29  O   UNL     1      -9.917  13.616  66.466  1.00  0.00    -0.272 OA 
HETATM   30  C   UNL     1      -9.066  12.970  67.051  1.00  0.00    -0.230 C  
ENDBRANCH  21  22
ENDBRANCH   9  21
ENDBRANCH   4   5
ENDBRANCH   3   4
ENDBRANCH   2   3
TORSDOF 8
ENDMDL
MODEL      210
REMARK 921   NORMALIZED FREE ENERGY PREDICTED BY IDOCK:   -3.37 KCAL/MOL
REMARK 922        TOTAL FREE ENERGY PREDICTED BY IDOCK:   -7.06 KCAL/MOL
REMARK 923 INTER-LIGAND FREE ENERGY PREDICTED BY IDOCK:   -5.93 KCAL/MOL
REMARK 924 INTRA-LIGAND FREE ENERGY PREDICTED BY IDOCK:   -1.13 KCAL/MOL
REMARK 927      BINDING AFFINITY PREDICTED BY RF-SCORE:    0.00 PKD
ROOT
HETATM    1  C   UNL     1      -5.778  13.837  71.067  1.00  0.00    -0.210 C  
HETATM    2  C   UNL     1      -5.201  12.522  70.559  1.00  0.00    -0.129 C  
ENDROOT
BRANCH   2   3
HETATM    3  C   UNL     1      -6.328  11.557  70.189  1.00  0.00    -0.078 C  
BRANCH   3   4
HETATM    4  C   UNL     1      -6.482  11.247  68.704  1.00  0.00    -0.050 C  
BRANCH   4   5
HETATM    5  C   UNL     1      -7.417  12.161  67.975  1.00  0.00    -0.116 A  
HETATM    6  N   UNL     1      -7.174  13.451  67.853  1.00  0.00    -0.115 NA 
HETATM    7  C   UNL     1      -8.178  13.957  67.092  1.00  0.00    -0.109 A  
HETATM    8  C   UNL     1      -9.075  12.976  66.740  1.00  0.00    -0.210 A  
HETATM    9  N   UNL     1      -8.620  11.817  67.361  1.00  0.00    -0.154 NA 
BRANCH   8  10
HETATM   10  C   UNL     1     -10.195  13.004  65.890  1.00  0.00    -0.298 C  
HETATM   11  O   UNL     1     -13.529  14.142  65.374  1.00  0.00    -0.648 OA 
HETATM   12  C   UNL     1     -11.408  13.453  66.272  1.00  0.00    -0.329 C  
HETATM   13  C   UNL     1     -12.438  13.376  65.195  1.00  0.00    -0.459 C  
HETATM   14  O   UNL     1     -12.323  12.654  64.216  1.00  0.00    -0.411 OA 
BRANCH  12  15
HETATM   15  C   UNL     1     -11.768  13.944  67.649  1.00  0.00    -0.403 C  
BRANCH  15  16
HETATM   16  C   UNL     1     -11.230  15.292  68.055  1.00  0.00    -0.326 A  
HETATM   17  C   UNL     1     -10.318  17.439  68.045  1.00  0.00    -0.362 A  
HETATM   18  C   UNL     1     -10.938  16.404  67.287  1.00  0.00    -0.118 A  
HETATM   19  C   UNL     1     -10.220  17.114  69.378  1.00  0.00    -0.164 A  
HETATM   20  S   UNL     1     -10.876  15.573  69.713  1.00  0.00    -0.323 SA 
ENDBRANCH  15  16
ENDBRANCH  12  15
ENDBRANCH   8  10
BRANCH   9  21
HETATM   21  C   UNL     1      -9.374  10.568  67.553  1.00  0.00    -0.149 C  
BRANCH  21  22
HETATM   22  C   UNL     1      -8.619   9.303  67.195  1.00  0.00    -0.130 A  
HETATM   23  C   UNL     1      -8.772   8.122  67.934  1.00  0.00    -0.128 A  
HETATM   24  C   UNL     1      -8.203   6.920  67.507  1.00  0.00    -0.116 A  
HETATM   25  C   UNL     1      -7.713   9.283  66.125  1.00  0.00    -0.096 A  
HETATM   26  O   UNL     1      -7.035   5.511  64.466  1.00  0.00    -0.047 OA 
HETATM   27  C   UNL     1      -7.142   8.086  65.684  1.00  0.00    -0.063 A  
HETATM   28  C   UNL     1      -7.447   6.890  66.336  1.00  0.00    -0.074 A  
HETATM   29  O   UNL     1      -6.688   4.639  66.527  1.00  0.00    -0.048 OA 
HETATM   30  C   UNL     1      -6.996   5.578  65.816  1.00  0.00    -0.066 C  
ENDBRANCH  21  22
ENDBRANCH   9  21
ENDBRANCH   4   5
ENDBRANCH   3   4
ENDBRANCH   2   3
TORSDOF 8
ENDMDL
MODEL      211
REMARK 921   NORMALIZED FREE ENERGY PREDICTED BY IDOCK:   -3.36 KCAL/MOL
REMARK 922        TOTAL FREE ENERGY PREDICTED BY IDOCK:   -7.04 KCAL/MOL
REMARK 923 INTER-LIGAND FREE ENERGY PREDICTED BY IDOCK:   -4.08 KCAL/MOL
REMARK 924 INTRA-LIGAND FREE ENERGY PREDICTED BY IDOCK:   -2.96 KCAL/MOL
REMARK 927      BINDING AFFINITY PREDICTED BY RF-SCORE:    0.00 PKD
ROOT
HETATM    1  C   UNL     1      -9.737   5.258  72.468  1.00  0.00    -0.176 C  
HETATM    2  C   UNL     1      -9.304   3.819  72.715  1.00  0.00    -0.143 C  
ENDROOT
BRANCH   2   3
HETATM    3  C   UNL     1      -9.735   2.929  71.549  1.00  0.00    -0.224 C  
BRANCH   3   4
HETATM    4  C   UNL     1      -8.622   2.469  70.613  1.00  0.00    -0.103 C  
BRANCH   4   5
HETATM    5  C   UNL     1      -8.738   2.985  69.213  1.00  0.00    -0.082 A  
HETATM    6  N   UNL     1      -9.656   2.535  68.381  1.00  0.00    -0.139 NA 
HETATM    7  C   UNL     1      -9.519   3.254  67.238  1.00  0.00    -0.148 A  
HETATM    8  C   UNL     1      -8.492   4.162  67.344  1.00  0.00    -0.099 A  
HETATM    9  N   UNL     1      -7.940   3.950  68.604  1.00  0.00    -0.067 NA 
BRANCH   8  10
HETATM   10  C   UNL     1      -8.052   5.174  66.472  1.00  0.00    -0.108 C  
HETATM   11  O   UNL     1      -8.688   8.370  65.038  1.00  0.00    -0.154 OA 
HETATM   12  C   UNL     1      -8.824   6.211  66.086  1.00  0.00    -0.158 C  
HETATM   13  C   UNL     1      -8.137   7.149  65.151  1.00  0.00    -0.127 C  
HETATM   14  O   UNL     1      -7.147   6.836  64.505  1.00  0.00    -0.055 OA 
BRANCH  12  15
HETATM   15  C   UNL     1     -10.261   6.429  66.480  1.00  0.00    -0.147 C  
BRANCH  15  16
HETATM   16  C   UNL     1     -10.511   7.204  67.748  1.00  0.00    -0.223 A  
HETATM   17  C   UNL     1     -10.582   8.863  69.386  1.00  0.00    -0.226 A  
HETATM   18  C   UNL     1     -10.370   8.554  68.011  1.00  0.00    -0.272 A  
HETATM   19  C   UNL     1     -10.945   7.754  70.114  1.00  0.00    -0.241 A  
HETATM   20  S   UNL     1     -11.033   6.351  69.146  1.00  0.00    -0.366 SA 
ENDBRANCH  15  16
ENDBRANCH  12  15
ENDBRANCH   8  10
BRANCH   9  21
HETATM   21  C   UNL     1      -6.640   4.444  69.089  1.00  0.00    -0.041 C  
BRANCH  21  22
HETATM   22  C   UNL     1      -6.719   5.600  70.065  1.00  0.00    -0.048 A  
HETATM   23  C   UNL     1      -6.208   5.499  71.367  1.00  0.00    -0.034 A  
HETATM   24  C   UNL     1      -6.136   6.612  72.207  1.00  0.00    -0.039 A  
HETATM   25  C   UNL     1      -7.340   6.805  69.707  1.00  0.00    -0.089 A  
HETATM   26  O   UNL     1      -6.074  10.145  71.872  1.00  0.00    -0.279 OA 
HETATM   27  C   UNL     1      -7.269   7.929  70.536  1.00  0.00    -0.053 A  
HETATM   28  C   UNL     1      -6.601   7.848  71.759  1.00  0.00    -0.049 A  
HETATM   29  O   UNL     1      -6.359   9.023  73.818  1.00  0.00    -0.309 OA 
HETATM   30  C   UNL     1      -6.362   9.044  72.600  1.00  0.00     0.115 C  
ENDBRANCH  21  22
ENDBRANCH   9  21
ENDBRANCH   4   5
ENDBRANCH   3   4
ENDBRANCH   2   3
TORSDOF 8
ENDMDL
MODEL      212
REMARK 921   NORMALIZED FREE ENERGY PREDICTED BY IDOCK:   -3.35 KCAL/MOL
REMARK 922        TOTAL FREE ENERGY PREDICTED BY IDOCK:   -7.04 KCAL/MOL
REMARK 923 INTER-LIGAND FREE ENERGY PREDICTED BY IDOCK:   -5.37 KCAL/MOL
REMARK 924 INTRA-LIGAND FREE ENERGY PREDICTED BY IDOCK:   -1.67 KCAL/MOL
REMARK 927      BINDING AFFINITY PREDICTED BY RF-SCORE:    0.00 PKD
ROOT
HETATM    1  C   UNL     1      -6.225   5.189  69.300  1.00  0.00    -0.033 C  
HETATM    2  C   UNL     1      -6.399   6.692  69.482  1.00  0.00    -0.042 C  
ENDROOT
BRANCH   2   3
HETATM    3  C   UNL     1      -6.906   6.998  70.892  1.00  0.00    -0.054 C  
BRANCH   3   4
HETATM    4  C   UNL     1      -8.328   7.541  70.988  1.00  0.00    -0.113 C  
BRANCH   4   5
HETATM    5  C   UNL     1      -8.599   8.724  70.112  1.00  0.00    -0.146 A  
HETATM    6  N   UNL     1      -8.033   9.894  70.330  1.00  0.00    -0.223 NA 
HETATM    7  C   UNL     1      -8.444  10.709  69.326  1.00  0.00    -0.091 A  
HETATM    8  C   UNL     1      -9.292  10.049  68.469  1.00  0.00    -0.145 A  
HETATM    9  N   UNL     1      -9.447   8.775  69.008  1.00  0.00    -0.159 NA 
BRANCH   8  10
HETATM   10  C   UNL     1      -9.877  10.445  67.252  1.00  0.00    -0.214 C  
HETATM   11  O   UNL     1     -10.277  13.021  64.827  1.00  0.00    -0.321 OA 
HETATM   12  C   UNL     1      -9.879  11.719  66.809  1.00  0.00    -0.218 C  
HETATM   13  C   UNL     1     -10.567  11.891  65.495  1.00  0.00    -0.269 C  
HETATM   14  O   UNL     1     -11.361  11.075  65.050  1.00  0.00     0.050 OA 
BRANCH  12  15
HETATM   15  C   UNL     1      -9.311  12.905  67.542  1.00  0.00    -0.190 C  
BRANCH  15  16
HETATM   16  C   UNL     1     -10.294  13.814  68.234  1.00  0.00    -0.247 A  
HETATM   17  C   UNL     1     -12.099  14.658  69.445  1.00  0.00    -0.317 A  
HETATM   18  C   UNL     1     -11.308  13.518  69.126  1.00  0.00    -0.333 A  
HETATM   19  C   UNL     1     -11.624  15.801  68.845  1.00  0.00    -0.394 A  
HETATM   20  S   UNL     1     -10.230  15.500  67.906  1.00  0.00    -0.241 SA 
ENDBRANCH  15  16
ENDBRANCH  12  15
ENDBRANCH   8  10
BRANCH   9  21
HETATM   21  C   UNL     1     -10.477   7.787  68.649  1.00  0.00    -0.172 C  
BRANCH  21  22
HETATM   22  C   UNL     1      -9.956   6.544  67.954  1.00  0.00    -0.148 A  
HETATM   23  C   UNL     1      -9.957   5.294  68.589  1.00  0.00    -0.234 A  
HETATM   24  C   UNL     1      -9.629   4.128  67.893  1.00  0.00    -0.203 A  
HETATM   25  C   UNL     1      -9.424   6.612  66.659  1.00  0.00    -0.201 A  
HETATM   26  O   UNL     1      -9.547   3.027  64.520  1.00  0.00    -0.150 OA 
HETATM   27  C   UNL     1      -9.099   5.451  65.950  1.00  0.00    -0.162 A  
HETATM   28  C   UNL     1      -9.272   4.201  66.548  1.00  0.00    -0.163 A  
HETATM   29  O   UNL     1      -8.647   1.918  66.278  1.00  0.00    -0.101 OA 
HETATM   30  C   UNL     1      -9.093   2.941  65.790  1.00  0.00    -0.137 C  
ENDBRANCH  21  22
ENDBRANCH   9  21
ENDBRANCH   4   5
ENDBRANCH   3   4
ENDBRANCH   2   3
TORSDOF 8
ENDMDL
MODEL      213
REMARK 921   NORMALIZED FREE ENERGY PREDICTED BY IDOCK:   -3.34 KCAL/MOL
REMARK 922        TOTAL FREE ENERGY PREDICTED BY IDOCK:   -7.02 KCAL/MOL
REMARK 923 INTER-LIGAND FREE ENERGY PREDICTED BY IDOCK:   -5.72 KCAL/MOL
REMARK 924 INTRA-LIGAND FREE ENERGY PREDICTED BY IDOCK:   -1.30 KCAL/MOL
REMARK 927      BINDING AFFINITY PREDICTED BY RF-SCORE:    0.00 PKD
ROOT
HETATM    1  C   UNL     1      -5.380  15.145  71.061  1.00  0.00    -0.109 C  
HETATM    2  C   UNL     1      -5.438  15.679  69.636  1.00  0.00    -0.113 C  
ENDROOT
BRANCH   2   3
HETATM    3  C   UNL     1      -6.825  15.443  69.038  1.00  0.00    -0.136 C  
BRANCH   3   4
HETATM    4  C   UNL     1      -6.878  14.547  67.805  1.00  0.00    -0.193 C  
BRANCH   4   5
HETATM    5  C   UNL     1      -7.083  13.095  68.103  1.00  0.00    -0.109 A  
HETATM    6  N   UNL     1      -6.071  12.285  68.342  1.00  0.00    -0.050 NA 
HETATM    7  C   UNL     1      -6.613  11.075  68.633  1.00  0.00    -0.058 A  
HETATM    8  C   UNL     1      -7.985  11.117  68.563  1.00  0.00    -0.143 A  
HETATM    9  N   UNL     1      -8.296  12.411  68.159  1.00  0.00    -0.172 NA 
BRANCH   8  10
HETATM   10  C   UNL     1      -8.961  10.153  68.877  1.00  0.00    -0.155 C  
HETATM   11  O   UNL     1     -10.029   6.771  68.572  1.00  0.00    -0.142 OA 
HETATM   12  C   UNL     1      -9.011   8.933  68.306  1.00  0.00    -0.137 C  
HETATM   13  C   UNL     1     -10.142   8.091  68.797  1.00  0.00    -0.195 C  
HETATM   14  O   UNL     1     -11.126   8.560  69.352  1.00  0.00    -0.074 OA 
BRANCH  12  15
HETATM   15  C   UNL     1      -8.083   8.426  67.233  1.00  0.00    -0.105 C  
BRANCH  15  16
HETATM   16  C   UNL     1      -7.987   9.245  65.972  1.00  0.00    -0.110 A  
HETATM   17  C   UNL     1      -8.478  10.541  64.096  1.00  0.00    -0.122 A  
HETATM   18  C   UNL     1      -8.930  10.042  65.352  1.00  0.00    -0.213 A  
HETATM   19  C   UNL     1      -7.182  10.167  63.829  1.00  0.00    -0.106 A  
HETATM   20  S   UNL     1      -6.514   9.224  65.087  1.00  0.00    -0.072 SA 
ENDBRANCH  15  16
ENDBRANCH  12  15
ENDBRANCH   8  10
BRANCH   9  21
HETATM   21  C   UNL     1      -9.592  12.886  67.646  1.00  0.00    -0.196 C  
BRANCH  21  22
HETATM   22  C   UNL     1     -10.497  13.520  68.683  1.00  0.00    -0.242 A  
HETATM   23  C   UNL     1     -11.314  12.745  69.518  1.00  0.00    -0.223 A  
HETATM   24  C   UNL     1     -12.021  13.319  70.577  1.00  0.00    -0.319 A  
HETATM   25  C   UNL     1     -10.569  14.914  68.821  1.00  0.00    -0.247 A  
HETATM   26  O   UNL     1     -11.826  16.247  72.574  1.00  0.00    -0.516 OA 
HETATM   27  C   UNL     1     -11.269  15.500  69.880  1.00  0.00    -0.322 A  
HETATM   28  C   UNL     1     -11.937  14.692  70.802  1.00  0.00    -0.380 A  
HETATM   29  O   UNL     1     -13.581  14.816  72.522  1.00  0.00    -0.405 OA 
HETATM   30  C   UNL     1     -12.557  15.251  72.026  1.00  0.00    -0.353 C  
ENDBRANCH  21  22
ENDBRANCH   9  21
ENDBRANCH   4   5
ENDBRANCH   3   4
ENDBRANCH   2   3
TORSDOF 8
ENDMDL
MODEL      214
REMARK 921   NORMALIZED FREE ENERGY PREDICTED BY IDOCK:   -3.34 KCAL/MOL
REMARK 922        TOTAL FREE ENERGY PREDICTED BY IDOCK:   -7.01 KCAL/MOL
REMARK 923 INTER-LIGAND FREE ENERGY PREDICTED BY IDOCK:   -6.06 KCAL/MOL
REMARK 924 INTRA-LIGAND FREE ENERGY PREDICTED BY IDOCK:   -0.95 KCAL/MOL
REMARK 927      BINDING AFFINITY PREDICTED BY RF-SCORE:    0.00 PKD
ROOT
HETATM    1  C   UNL     1      -5.963  14.118  69.098  1.00  0.00    -0.093 C  
HETATM    2  C   UNL     1      -5.152  12.837  69.241  1.00  0.00    -0.069 C  
ENDROOT
BRANCH   2   3
HETATM    3  C   UNL     1      -5.360  11.940  68.019  1.00  0.00    -0.049 C  
BRANCH   3   4
HETATM    4  C   UNL     1      -6.792  11.483  67.762  1.00  0.00    -0.077 C  
BRANCH   4   5
HETATM    5  C   UNL     1      -7.307  10.481  68.746  1.00  0.00    -0.092 A  
HETATM    6  N   UNL     1      -6.786  10.357  69.950  1.00  0.00    -0.117 NA 
HETATM    7  C   UNL     1      -7.524   9.415  70.590  1.00  0.00    -0.136 A  
HETATM    8  C   UNL     1      -8.517   8.926  69.775  1.00  0.00    -0.131 A  
HETATM    9  N   UNL     1      -8.344   9.570  68.553  1.00  0.00    -0.116 NA 
BRANCH   8  10
HETATM   10  C   UNL     1      -9.571   8.030  70.030  1.00  0.00    -0.171 C  
HETATM   11  O   UNL     1     -10.532   4.760  71.058  1.00  0.00    -0.162 OA 
HETATM   12  C   UNL     1      -9.391   6.709  70.234  1.00  0.00    -0.160 C  
HETATM   13  C   UNL     1     -10.662   5.966  70.478  1.00  0.00    -0.294 C  
HETATM   14  O   UNL     1     -11.759   6.403  70.158  1.00  0.00    -0.422 OA 
BRANCH  12  15
HETATM   15  C   UNL     1      -8.072   5.984  70.181  1.00  0.00    -0.114 C  
BRANCH  15  16
HETATM   16  C   UNL     1      -7.411   5.673  71.498  1.00  0.00    -0.087 A  
HETATM   17  C   UNL     1      -6.212   4.656  73.222  1.00  0.00    -0.033 A  
HETATM   18  C   UNL     1      -6.486   4.699  71.824  1.00  0.00    -0.023 A  
HETATM   19  C   UNL     1      -6.882   5.642  73.909  1.00  0.00    -0.081 A  
HETATM   20  S   UNL     1      -7.830   6.614  72.874  1.00  0.00    -0.099 SA 
ENDBRANCH  15  16
ENDBRANCH  12  15
ENDBRANCH   8  10
BRANCH   9  21
HETATM   21  C   UNL     1      -8.945   9.189  67.265  1.00  0.00    -0.123 C  
BRANCH  21  22
HETATM   22  C   UNL     1      -9.838  10.242  66.639  1.00  0.00    -0.256 A  
HETATM   23  C   UNL     1     -10.870  10.854  67.364  1.00  0.00    -0.333 A  
HETATM   24  C   UNL     1     -11.583  11.935  66.838  1.00  0.00    -0.358 A  
HETATM   25  C   UNL     1      -9.679  10.617  65.297  1.00  0.00    -0.315 A  
HETATM   26  O   UNL     1     -11.107  14.427  64.357  1.00  0.00    -0.318 OA 
HETATM   27  C   UNL     1     -10.382  11.700  64.762  1.00  0.00    -0.331 A  
HETATM   28  C   UNL     1     -11.284  12.406  65.561  1.00  0.00    -0.364 A  
HETATM   29  O   UNL     1     -13.068  13.976  65.395  1.00  0.00    -0.763 OA 
HETATM   30  C   UNL     1     -11.934  13.652  65.093  1.00  0.00    -0.372 C  
ENDBRANCH  21  22
ENDBRANCH   9  21
ENDBRANCH   4   5
ENDBRANCH   3   4
ENDBRANCH   2   3
TORSDOF 8
ENDMDL
MODEL      215
REMARK 921   NORMALIZED FREE ENERGY PREDICTED BY IDOCK:   -3.31 KCAL/MOL
REMARK 922        TOTAL FREE ENERGY PREDICTED BY IDOCK:   -6.97 KCAL/MOL
REMARK 923 INTER-LIGAND FREE ENERGY PREDICTED BY IDOCK:   -5.34 KCAL/MOL
REMARK 924 INTRA-LIGAND FREE ENERGY PREDICTED BY IDOCK:   -1.63 KCAL/MOL
REMARK 927      BINDING AFFINITY PREDICTED BY RF-SCORE:    0.00 PKD
ROOT
HETATM    1  C   UNL     1      -6.008  14.561  71.094  1.00  0.00    -0.084 C  
HETATM    2  C   UNL     1      -5.902  15.284  69.758  1.00  0.00    -0.128 C  
ENDROOT
BRANCH   2   3
HETATM    3  C   UNL     1      -7.189  16.057  69.471  1.00  0.00    -0.162 C  
BRANCH   3   4
HETATM    4  C   UNL     1      -8.450  15.216  69.299  1.00  0.00    -0.209 C  
BRANCH   4   5
HETATM    5  C   UNL     1      -8.949  15.131  67.891  1.00  0.00    -0.174 A  
HETATM    6  N   UNL     1      -8.239  15.576  66.874  1.00  0.00    -0.236 NA 
HETATM    7  C   UNL     1      -8.952  15.286  65.755  1.00  0.00     0.212 A  
HETATM    8  C   UNL     1     -10.136  14.661  66.072  1.00  0.00    -0.311 A  
HETATM    9  N   UNL     1     -10.169  14.612  67.462  1.00  0.00    -0.226 NA 
BRANCH   8  10
HETATM   10  C   UNL     1     -11.131  14.093  65.257  1.00  0.00    -0.331 C  
HETATM   11  O   UNL     1     -12.049  11.440  63.067  1.00  0.00    -0.042 OA 
HETATM   12  C   UNL     1     -10.900  13.083  64.394  1.00  0.00    -0.409 C  
HETATM   13  C   UNL     1     -12.113  12.656  63.637  1.00  0.00    -0.547 C  
HETATM   14  O   UNL     1     -13.103  13.364  63.515  1.00  0.00    -0.057 OA 
BRANCH  12  15
HETATM   15  C   UNL     1      -9.562  12.441  64.132  1.00  0.00     0.119 C  
BRANCH  15  16
HETATM   16  C   UNL     1      -9.193  11.259  64.990  1.00  0.00    -0.129 A  
HETATM   17  C   UNL     1      -9.217   9.239  66.156  1.00  0.00    -0.249 A  
HETATM   18  C   UNL     1      -9.817  10.035  65.138  1.00  0.00    -0.388 A  
HETATM   19  C   UNL     1      -8.114   9.850  66.705  1.00  0.00    -0.117 A  
HETATM   20  S   UNL     1      -7.802  11.371  65.993  1.00  0.00     0.230 SA 
ENDBRANCH  15  16
ENDBRANCH  12  15
ENDBRANCH   8  10
BRANCH   9  21
HETATM   21  C   UNL     1     -11.341  14.321  68.304  1.00  0.00    -0.289 C  
BRANCH  21  22
HETATM   22  C   UNL     1     -11.283  13.002  69.046  1.00  0.00    -0.316 A  
HETATM   23  C   UNL     1     -12.386  12.512  69.760  1.00  0.00    -0.085 A  
HETATM   24  C   UNL     1     -12.383  11.226  70.306  1.00  0.00    -0.389 A  
HETATM   25  C   UNL     1     -10.107  12.238  69.070  1.00  0.00     0.117 A  
HETATM   26  O   UNL     1     -10.671   8.162  69.781  1.00  0.00    -0.245 OA 
HETATM   27  C   UNL     1     -10.094  10.948  69.607  1.00  0.00     0.039 A  
HETATM   28  C   UNL     1     -11.259  10.415  70.162  1.00  0.00    -0.393 A  
HETATM   29  O   UNL     1     -11.996   8.629  71.557  1.00  0.00    -0.278 OA 
HETATM   30  C   UNL     1     -11.341   9.002  70.600  1.00  0.00    -0.265 C  
ENDBRANCH  21  22
ENDBRANCH   9  21
ENDBRANCH   4   5
ENDBRANCH   3   4
ENDBRANCH   2   3
TORSDOF 8
ENDMDL
MODEL      216
REMARK 921   NORMALIZED FREE ENERGY PREDICTED BY IDOCK:   -3.21 KCAL/MOL
REMARK 922        TOTAL FREE ENERGY PREDICTED BY IDOCK:   -6.83 KCAL/MOL
REMARK 923 INTER-LIGAND FREE ENERGY PREDICTED BY IDOCK:   -3.93 KCAL/MOL
REMARK 924 INTRA-LIGAND FREE ENERGY PREDICTED BY IDOCK:   -2.90 KCAL/MOL
REMARK 927      BINDING AFFINITY PREDICTED BY RF-SCORE:    0.00 PKD
ROOT
HETATM    1  C   UNL     1     -11.054   5.942  71.330  1.00  0.00    -0.313 C  
HETATM    2  C   UNL     1      -9.838   5.139  70.886  1.00  0.00    -0.266 C  
ENDROOT
BRANCH   2   3
HETATM    3  C   UNL     1     -10.033   3.658  71.215  1.00  0.00    -0.144 C  
BRANCH   3   4
HETATM    4  C   UNL     1      -8.883   2.732  70.833  1.00  0.00    -0.144 C  
BRANCH   4   5
HETATM    5  C   UNL     1      -8.680   2.573  69.359  1.00  0.00    -0.081 A  
HETATM    6  N   UNL     1      -9.503   1.860  68.617  1.00  0.00    -0.173 NA 
HETATM    7  C   UNL     1      -9.065   1.981  67.338  1.00  0.00    -0.139 A  
HETATM    8  C   UNL     1      -7.941   2.771  67.273  1.00  0.00    -0.074 A  
HETATM    9  N   UNL     1      -7.649   3.109  68.590  1.00  0.00    -0.049 NA 
BRANCH   8  10
HETATM   10  C   UNL     1      -7.209   3.254  66.173  1.00  0.00    -0.067 C  
HETATM   11  O   UNL     1      -7.092   5.496  63.410  1.00  0.00    -0.041 OA 
HETATM   12  C   UNL     1      -7.735   4.051  65.221  1.00  0.00    -0.085 C  
HETATM   13  C   UNL     1      -6.761   4.425  64.153  1.00  0.00    -0.044 C  
HETATM   14  O   UNL     1      -5.734   3.797  63.942  1.00  0.00    -0.013 OA 
BRANCH  12  15
HETATM   15  C   UNL     1      -9.168   4.508  65.153  1.00  0.00    -0.157 C  
BRANCH  15  16
HETATM   16  C   UNL     1      -9.554   5.674  66.025  1.00  0.00    -0.080 A  
HETATM   17  C   UNL     1     -10.639   7.085  67.533  1.00  0.00    -0.351 A  
HETATM   18  C   UNL     1     -10.483   5.755  67.046  1.00  0.00    -0.342 A  
HETATM   19  C   UNL     1      -9.778   7.964  66.918  1.00  0.00    -0.219 A  
HETATM   20  S   UNL     1      -8.784   7.188  65.766  1.00  0.00    -0.057 SA 
ENDBRANCH  15  16
ENDBRANCH  12  15
ENDBRANCH   8  10
BRANCH   9  21
HETATM   21  C   UNL     1      -6.389   3.681  69.093  1.00  0.00    -0.029 C  
BRANCH  21  22
HETATM   22  C   UNL     1      -6.501   5.085  69.651  1.00  0.00    -0.035 A  
HETATM   23  C   UNL     1      -6.903   6.164  68.849  1.00  0.00    -0.066 A  
HETATM   24  C   UNL     1      -7.161   7.421  69.401  1.00  0.00    -0.070 A  
HETATM   25  C   UNL     1      -6.175   5.359  70.987  1.00  0.00    -0.030 A  
HETATM   26  O   UNL     1      -7.996   8.764  72.578  1.00  0.00    -0.373 OA 
HETATM   27  C   UNL     1      -6.435   6.611  71.552  1.00  0.00    -0.042 A  
HETATM   28  C   UNL     1      -6.998   7.623  70.770  1.00  0.00    -0.047 A  
HETATM   29  O   UNL     1      -7.364   9.977  70.773  1.00  0.00    -0.323 OA 
HETATM   30  C   UNL     1      -7.437   8.910  71.356  1.00  0.00    -0.079 C  
ENDBRANCH  21  22
ENDBRANCH   9  21
ENDBRANCH   4   5
ENDBRANCH   3   4
ENDBRANCH   2   3
TORSDOF 8
ENDMDL
MODEL      217
REMARK 921   NORMALIZED FREE ENERGY PREDICTED BY IDOCK:   -3.15 KCAL/MOL
REMARK 922        TOTAL FREE ENERGY PREDICTED BY IDOCK:   -6.73 KCAL/MOL
REMARK 923 INTER-LIGAND FREE ENERGY PREDICTED BY IDOCK:   -5.92 KCAL/MOL
REMARK 924 INTRA-LIGAND FREE ENERGY PREDICTED BY IDOCK:   -0.82 KCAL/MOL
REMARK 927      BINDING AFFINITY PREDICTED BY RF-SCORE:    0.00 PKD
ROOT
HETATM    1  C   UNL     1      -8.239   6.920  62.495  1.00  0.00    -0.035 C  
HETATM    2  C   UNL     1      -7.925   6.966  63.985  1.00  0.00    -0.070 C  
ENDROOT
BRANCH   2   3
HETATM    3  C   UNL     1      -7.854   8.416  64.465  1.00  0.00    -0.136 C  
BRANCH   3   4
HETATM    4  C   UNL     1      -6.866   8.698  65.593  1.00  0.00    -0.071 C  
BRANCH   4   5
HETATM    5  C   UNL     1      -7.335   9.714  66.586  1.00  0.00    -0.090 A  
HETATM    6  N   UNL     1      -6.492  10.484  67.244  1.00  0.00    -0.069 NA 
HETATM    7  C   UNL     1      -7.249  11.319  68.001  1.00  0.00    -0.079 A  
HETATM    8  C   UNL     1      -8.589  11.065  67.828  1.00  0.00    -0.130 A  
HETATM    9  N   UNL     1      -8.651   9.982  66.957  1.00  0.00    -0.125 NA 
BRANCH   8  10
HETATM   10  C   UNL     1      -9.730  11.728  68.314  1.00  0.00    -0.199 C  
HETATM   11  O   UNL     1     -12.324  14.080  67.667  1.00  0.00    -0.274 OA 
HETATM   12  C   UNL     1     -10.303  12.777  67.689  1.00  0.00    -0.221 C  
HETATM   13  C   UNL     1     -11.498  13.315  68.403  1.00  0.00    -0.314 C  
HETATM   14  O   UNL     1     -11.717  13.101  69.587  1.00  0.00    -0.298 OA 
BRANCH  12  15
HETATM   15  C   UNL     1      -9.806  13.424  66.423  1.00  0.00    -0.299 C  
BRANCH  15  16
HETATM   16  C   UNL     1     -10.663  13.267  65.194  1.00  0.00    -0.322 A  
HETATM   17  C   UNL     1     -12.236  13.584  63.501  1.00  0.00    -0.410 A  
HETATM   18  C   UNL     1     -11.495  14.174  64.566  1.00  0.00    -0.380 A  
HETATM   19  C   UNL     1     -11.896  12.266  63.306  1.00  0.00    -0.385 A  
HETATM   20  S   UNL     1     -10.689  11.746  64.396  1.00  0.00    -0.354 SA 
ENDBRANCH  15  16
ENDBRANCH  12  15
ENDBRANCH   8  10
BRANCH   9  21
HETATM   21  C   UNL     1      -9.825   9.134  66.689  1.00  0.00    -0.240 C  
BRANCH  21  22
HETATM   22  C   UNL     1      -9.705   7.704  67.175  1.00  0.00    -0.239 A  
HETATM   23  C   UNL     1     -10.437   6.664  66.586  1.00  0.00    -0.222 A  
HETATM   24  C   UNL     1     -10.204   5.329  66.926  1.00  0.00    -0.279 A  
HETATM   25  C   UNL     1      -8.876   7.377  68.258  1.00  0.00    -0.128 A  
HETATM   26  O   UNL     1      -7.579   3.409  68.345  1.00  0.00    -0.056 OA 
HETATM   27  C   UNL     1      -8.630   6.045  68.604  1.00  0.00    -0.112 A  
HETATM   28  C   UNL     1      -9.243   5.017  67.886  1.00  0.00    -0.135 A  
HETATM   29  O   UNL     1      -9.699   2.682  68.019  1.00  0.00    -0.129 OA 
HETATM   30  C   UNL     1      -8.897   3.594  68.108  1.00  0.00    -0.116 C  
ENDBRANCH  21  22
ENDBRANCH   9  21
ENDBRANCH   4   5
ENDBRANCH   3   4
ENDBRANCH   2   3
TORSDOF 8
ENDMDL
MODEL      218
REMARK 921   NORMALIZED FREE ENERGY PREDICTED BY IDOCK:   -3.15 KCAL/MOL
REMARK 922        TOTAL FREE ENERGY PREDICTED BY IDOCK:   -6.73 KCAL/MOL
REMARK 923 INTER-LIGAND FREE ENERGY PREDICTED BY IDOCK:   -5.66 KCAL/MOL
REMARK 924 INTRA-LIGAND FREE ENERGY PREDICTED BY IDOCK:   -1.07 KCAL/MOL
REMARK 927      BINDING AFFINITY PREDICTED BY RF-SCORE:    0.00 PKD
ROOT
HETATM    1  C   UNL     1      -5.167   8.098  68.452  1.00  0.00    -0.032 C  
HETATM    2  C   UNL     1      -5.265   9.397  67.663  1.00  0.00    -0.037 C  
ENDROOT
BRANCH   2   3
HETATM    3  C   UNL     1      -5.231  10.596  68.613  1.00  0.00    -0.041 C  
BRANCH   3   4
HETATM    4  C   UNL     1      -6.563  10.986  69.245  1.00  0.00    -0.091 C  
BRANCH   4   5
HETATM    5  C   UNL     1      -7.353  11.982  68.457  1.00  0.00    -0.111 A  
HETATM    6  N   UNL     1      -7.012  13.254  68.403  1.00  0.00    -0.094 NA 
HETATM    7  C   UNL     1      -7.895  13.850  67.562  1.00  0.00    -0.181 A  
HETATM    8  C   UNL     1      -8.816  12.945  67.088  1.00  0.00    -0.210 A  
HETATM    9  N   UNL     1      -8.507  11.741  67.714  1.00  0.00    -0.140 NA 
BRANCH   8  10
HETATM   10  C   UNL     1      -9.838  13.076  66.131  1.00  0.00    -0.275 C  
HETATM   11  O   UNL     1     -13.063  14.370  65.357  1.00  0.00    -0.604 OA 
HETATM   12  C   UNL     1     -11.071  13.541  66.417  1.00  0.00    -0.311 C  
HETATM   13  C   UNL     1     -11.982  13.579  65.236  1.00  0.00    -0.373 C  
HETATM   14  O   UNL     1     -11.784  12.924  64.223  1.00  0.00    -0.341 OA 
BRANCH  12  15
HETATM   15  C   UNL     1     -11.561  13.946  67.783  1.00  0.00    -0.381 C  
BRANCH  15  16
HETATM   16  C   UNL     1     -11.883  12.835  68.749  1.00  0.00    -0.307 A  
HETATM   17  C   UNL     1     -12.235  11.572  70.677  1.00  0.00    -0.473 A  
HETATM   18  C   UNL     1     -12.082  12.872  70.116  1.00  0.00    -0.373 A  
HETATM   19  C   UNL     1     -12.217  10.589  69.715  1.00  0.00    -0.181 A  
HETATM   20  S   UNL     1     -12.022  11.232  68.145  1.00  0.00     0.054 SA 
ENDBRANCH  15  16
ENDBRANCH  12  15
ENDBRANCH   8  10
BRANCH   9  21
HETATM   21  C   UNL     1      -9.361  10.544  67.786  1.00  0.00    -0.149 C  
BRANCH  21  22
HETATM   22  C   UNL     1      -8.823   9.331  67.054  1.00  0.00    -0.135 A  
HETATM   23  C   UNL     1      -8.860   8.051  67.627  1.00  0.00    -0.125 A  
HETATM   24  C   UNL     1      -8.515   6.916  66.889  1.00  0.00    -0.115 A  
HETATM   25  C   UNL     1      -8.240   9.454  65.785  1.00  0.00    -0.116 A  
HETATM   26  O   UNL     1      -8.308   5.976  63.474  1.00  0.00    -0.069 OA 
HETATM   27  C   UNL     1      -7.897   8.325  65.035  1.00  0.00    -0.126 A  
HETATM   28  C   UNL     1      -8.104   7.050  65.565  1.00  0.00    -0.132 A  
HETATM   29  O   UNL     1      -7.489   4.776  65.210  1.00  0.00    -0.074 OA 
HETATM   30  C   UNL     1      -7.906   5.825  64.755  1.00  0.00    -0.114 C  
ENDBRANCH  21  22
ENDBRANCH   9  21
ENDBRANCH   4   5
ENDBRANCH   3   4
ENDBRANCH   2   3
TORSDOF 8
ENDMDL
MODEL      219
REMARK 921   NORMALIZED FREE ENERGY PREDICTED BY IDOCK:   -3.10 KCAL/MOL
REMARK 922        TOTAL FREE ENERGY PREDICTED BY IDOCK:   -6.66 KCAL/MOL
REMARK 923 INTER-LIGAND FREE ENERGY PREDICTED BY IDOCK:   -5.53 KCAL/MOL
REMARK 924 INTRA-LIGAND FREE ENERGY PREDICTED BY IDOCK:   -1.13 KCAL/MOL
REMARK 927      BINDING AFFINITY PREDICTED BY RF-SCORE:    0.00 PKD
ROOT
HETATM    1  C   UNL     1     -10.149  15.662  65.887  1.00  0.00    -0.378 C  
HETATM    2  C   UNL     1     -11.211  14.841  66.609  1.00  0.00    -0.346 C  
ENDROOT
BRANCH   2   3
HETATM    3  C   UNL     1     -10.601  13.548  67.152  1.00  0.00    -0.264 C  
BRANCH   3   4
HETATM    4  C   UNL     1     -11.575  12.399  67.392  1.00  0.00    -0.433 C  
BRANCH   4   5
HETATM    5  C   UNL     1     -11.198  11.495  68.523  1.00  0.00    -0.258 A  
HETATM    6  N   UNL     1     -12.095  11.022  69.364  1.00  0.00    -0.343 NA 
HETATM    7  C   UNL     1     -11.427  10.198  70.211  1.00  0.00    -0.306 A  
HETATM    8  C   UNL     1     -10.086  10.161  69.910  1.00  0.00    -0.222 A  
HETATM    9  N   UNL     1      -9.919  11.049  68.852  1.00  0.00    -0.200 NA 
BRANCH   8  10
HETATM   10  C   UNL     1      -9.038   9.384  70.435  1.00  0.00    -0.302 C  
HETATM   11  O   UNL     1      -6.696   6.759  69.889  1.00  0.00    -0.047 OA 
HETATM   12  C   UNL     1      -8.564   8.272  69.838  1.00  0.00    -0.125 C  
HETATM   13  C   UNL     1      -7.455   7.617  70.592  1.00  0.00    -0.072 C  
HETATM   14  O   UNL     1      -7.248   7.822  71.780  1.00  0.00    -0.061 OA 
BRANCH  12  15
HETATM   15  C   UNL     1      -9.092   7.666  68.565  1.00  0.00    -0.131 C  
BRANCH  15  16
HETATM   16  C   UNL     1      -9.315   6.176  68.559  1.00  0.00    -0.117 A  
HETATM   17  C   UNL     1      -9.842   3.984  69.158  1.00  0.00    -0.072 A  
HETATM   18  C   UNL     1      -9.975   5.369  69.466  1.00  0.00    -0.289 A  
HETATM   19  C   UNL     1      -9.145   3.781  67.990  1.00  0.00    -0.144 A  
HETATM   20  S   UNL     1      -8.659   5.250  67.268  1.00  0.00    -0.103 SA 
ENDBRANCH  15  16
ENDBRANCH  12  15
ENDBRANCH   8  10
BRANCH   9  21
HETATM   21  C   UNL     1      -8.646  11.601  68.359  1.00  0.00    -0.156 C  
BRANCH  21  22
HETATM   22  C   UNL     1      -8.101  10.935  67.111  1.00  0.00    -0.127 A  
HETATM   23  C   UNL     1      -8.946  10.311  66.183  1.00  0.00    -0.174 A  
HETATM   24  C   UNL     1      -8.460   9.843  64.960  1.00  0.00    -0.161 A  
HETATM   25  C   UNL     1      -6.722  10.895  66.860  1.00  0.00    -0.106 A  
HETATM   26  O   UNL     1      -5.682  10.458  62.839  1.00  0.00    -0.124 OA 
HETATM   27  C   UNL     1      -6.224  10.435  65.637  1.00  0.00    -0.126 A  
HETATM   28  C   UNL     1      -7.106   9.975  64.657  1.00  0.00    -0.140 A  
HETATM   29  O   UNL     1      -7.130   8.730  62.626  1.00  0.00    -0.097 OA 
HETATM   30  C   UNL     1      -6.646   9.626  63.293  1.00  0.00    -0.111 C  
ENDBRANCH  21  22
ENDBRANCH   9  21
ENDBRANCH   4   5
ENDBRANCH   3   4
ENDBRANCH   2   3
TORSDOF 8
ENDMDL
MODEL      220
REMARK 921   NORMALIZED FREE ENERGY PREDICTED BY IDOCK:   -3.09 KCAL/MOL
REMARK 922        TOTAL FREE ENERGY PREDICTED BY IDOCK:   -6.66 KCAL/MOL
REMARK 923 INTER-LIGAND FREE ENERGY PREDICTED BY IDOCK:   -5.19 KCAL/MOL
REMARK 924 INTRA-LIGAND FREE ENERGY PREDICTED BY IDOCK:   -1.47 KCAL/MOL
REMARK 927      BINDING AFFINITY PREDICTED BY RF-SCORE:    0.00 PKD
ROOT
HETATM    1  C   UNL     1      -7.425   8.351  71.539  1.00  0.00    -0.111 C  
HETATM    2  C   UNL     1      -6.710   8.804  70.273  1.00  0.00    -0.041 C  
ENDROOT
BRANCH   2   3
HETATM    3  C   UNL     1      -6.192  10.234  70.441  1.00  0.00    -0.120 C  
BRANCH   3   4
HETATM    4  C   UNL     1      -6.031  11.041  69.158  1.00  0.00    -0.043 C  
BRANCH   4   5
HETATM    5  C   UNL     1      -6.432  12.478  69.276  1.00  0.00    -0.104 A  
HETATM    6  N   UNL     1      -5.991  13.244  70.254  1.00  0.00    -0.152 NA 
HETATM    7  C   UNL     1      -6.494  14.484  70.023  1.00  0.00    -0.160 A  
HETATM    8  C   UNL     1      -7.274  14.498  68.891  1.00  0.00    -0.125 A  
HETATM    9  N   UNL     1      -7.288  13.184  68.434  1.00  0.00    -0.108 NA 
BRANCH   8  10
HETATM   10  C   UNL     1      -7.906  15.555  68.212  1.00  0.00    -0.127 C  
HETATM   11  O   UNL     1     -10.954  17.248  67.491  1.00  0.00    -0.256 OA 
HETATM   12  C   UNL     1      -9.245  15.668  68.092  1.00  0.00    -0.185 C  
HETATM   13  C   UNL     1      -9.674  16.872  67.322  1.00  0.00    -0.251 C  
HETATM   14  O   UNL     1      -8.929  17.477  66.565  1.00  0.00    -0.252 OA 
BRANCH  12  15
HETATM   15  C   UNL     1     -10.258  14.683  68.612  1.00  0.00    -0.244 C  
BRANCH  15  16
HETATM   16  C   UNL     1     -10.886  14.990  69.946  1.00  0.00    -0.246 A  
HETATM   17  C   UNL     1     -11.328  15.829  72.077  1.00  0.00    -0.341 A  
HETATM   18  C   UNL     1     -10.572  15.962  70.877  1.00  0.00     0.208 A  
HETATM   19  C   UNL     1     -12.243  14.805  71.999  1.00  0.00    -0.331 A  
HETATM   20  S   UNL     1     -12.193  14.014  70.487  1.00  0.00    -0.380 SA 
ENDBRANCH  15  16
ENDBRANCH  12  15
ENDBRANCH   8  10
BRANCH   9  21
HETATM   21  C   UNL     1      -8.210  12.607  67.442  1.00  0.00    -0.184 C  
BRANCH  21  22
HETATM   22  C   UNL     1      -9.010  11.416  67.928  1.00  0.00    -0.153 A  
HETATM   23  C   UNL     1      -8.870  10.149  67.344  1.00  0.00    -0.135 A  
HETATM   24  C   UNL     1      -9.485   9.023  67.898  1.00  0.00    -0.159 A  
HETATM   25  C   UNL     1      -9.946  11.550  68.964  1.00  0.00    -0.040 A  
HETATM   26  O   UNL     1     -10.775   8.028  71.050  1.00  0.00    -0.216 OA 
HETATM   27  C   UNL     1     -10.563  10.430  69.530  1.00  0.00    -0.274 A  
HETATM   28  C   UNL     1     -10.273   9.155  69.039  1.00  0.00    -0.219 A  
HETATM   29  O   UNL     1     -11.089   6.918  69.102  1.00  0.00    -0.219 OA 
HETATM   30  C   UNL     1     -10.775   7.929  69.702  1.00  0.00    -0.218 C  
ENDBRANCH  21  22
ENDBRANCH   9  21
ENDBRANCH   4   5
ENDBRANCH   3   4
ENDBRANCH   2   3
TORSDOF 8
ENDMDL
MODEL      221
REMARK 921   NORMALIZED FREE ENERGY PREDICTED BY IDOCK:   -3.06 KCAL/MOL
REMARK 922        TOTAL FREE ENERGY PREDICTED BY IDOCK:   -6.61 KCAL/MOL
REMARK 923 INTER-LIGAND FREE ENERGY PREDICTED BY IDOCK:   -4.34 KCAL/MOL
REMARK 924 INTRA-LIGAND FREE ENERGY PREDICTED BY IDOCK:   -2.26 KCAL/MOL
REMARK 927      BINDING AFFINITY PREDICTED BY RF-SCORE:    0.00 PKD
ROOT
HETATM    1  C   UNL     1     -10.628   3.915  63.822  1.00  0.00    -0.220 C  
HETATM    2  C   UNL     1      -9.233   4.250  63.311  1.00  0.00    -0.139 C  
ENDROOT
BRANCH   2   3
HETATM    3  C   UNL     1      -8.322   4.638  64.476  1.00  0.00    -0.123 C  
BRANCH   3   4
HETATM    4  C   UNL     1      -8.587   3.925  65.798  1.00  0.00    -0.111 C  
BRANCH   4   5
HETATM    5  C   UNL     1      -7.575   4.203  66.865  1.00  0.00    -0.084 A  
HETATM    6  N   UNL     1      -6.318   4.473  66.577  1.00  0.00    -0.036 NA 
HETATM    7  C   UNL     1      -5.704   4.733  67.759  1.00  0.00    -0.017 A  
HETATM    8  C   UNL     1      -6.582   4.611  68.811  1.00  0.00    -0.045 A  
HETATM    9  N   UNL     1      -7.786   4.207  68.243  1.00  0.00    -0.070 NA 
BRANCH   8  10
HETATM   10  C   UNL     1      -6.430   4.879  70.183  1.00  0.00    -0.035 C  
HETATM   11  O   UNL     1      -6.112   7.345  72.731  1.00  0.00    -0.050 OA 
HETATM   12  C   UNL     1      -6.135   6.100  70.675  1.00  0.00    -0.034 C  
HETATM   13  C   UNL     1      -6.018   6.131  72.162  1.00  0.00    -0.037 C  
HETATM   14  O   UNL     1      -5.829   5.127  72.834  1.00  0.00    -0.020 OA 
BRANCH  12  15
HETATM   15  C   UNL     1      -5.883   7.339  69.856  1.00  0.00    -0.024 C  
BRANCH  15  16
HETATM   16  C   UNL     1      -7.090   8.031  69.277  1.00  0.00    -0.068 A  
HETATM   17  C   UNL     1      -8.701   8.892  67.827  1.00  0.00    -0.125 A  
HETATM   18  C   UNL     1      -7.624   7.976  68.003  1.00  0.00    -0.112 A  
HETATM   19  C   UNL     1      -9.000   9.567  68.988  1.00  0.00    -0.144 A  
HETATM   20  S   UNL     1      -7.991   9.094  70.282  1.00  0.00    -0.152 SA 
ENDBRANCH  15  16
ENDBRANCH  12  15
ENDBRANCH   8  10
BRANCH   9  21
HETATM   21  C   UNL     1      -8.949   3.649  68.951  1.00  0.00    -0.126 C  
BRANCH  21  22
HETATM   22  C   UNL     1      -9.872   4.678  69.574  1.00  0.00    -0.286 A  
HETATM   23  C   UNL     1     -10.166   4.666  70.945  1.00  0.00    -0.213 A  
HETATM   24  C   UNL     1     -10.883   5.706  71.541  1.00  0.00    -0.297 A  
HETATM   25  C   UNL     1     -10.490   5.661  68.788  1.00  0.00    -0.289 A  
HETATM   26  O   UNL     1     -11.618   9.110  70.856  1.00  0.00    -0.273 OA 
HETATM   27  C   UNL     1     -11.205   6.710  69.374  1.00  0.00    -0.356 A  
HETATM   28  C   UNL     1     -11.339   6.769  70.763  1.00  0.00    -0.374 A  
HETATM   29  O   UNL     1     -12.616   7.855  72.455  1.00  0.00    -0.179 OA 
HETATM   30  C   UNL     1     -11.947   7.937  71.441  1.00  0.00    -0.303 C  
ENDBRANCH  21  22
ENDBRANCH   9  21
ENDBRANCH   4   5
ENDBRANCH   3   4
ENDBRANCH   2   3
TORSDOF 8
ENDMDL
MODEL      222
REMARK 921   NORMALIZED FREE ENERGY PREDICTED BY IDOCK:   -3.05 KCAL/MOL
REMARK 922        TOTAL FREE ENERGY PREDICTED BY IDOCK:   -6.59 KCAL/MOL
REMARK 923 INTER-LIGAND FREE ENERGY PREDICTED BY IDOCK:   -6.15 KCAL/MOL
REMARK 924 INTRA-LIGAND FREE ENERGY PREDICTED BY IDOCK:   -0.44 KCAL/MOL
REMARK 927      BINDING AFFINITY PREDICTED BY RF-SCORE:    0.00 PKD
ROOT
HETATM    1  C   UNL     1      -5.685   9.923  67.686  1.00  0.00    -0.039 C  
HETATM    2  C   UNL     1      -6.145  11.315  68.099  1.00  0.00    -0.045 C  
ENDROOT
BRANCH   2   3
HETATM    3  C   UNL     1      -7.032  11.923  67.011  1.00  0.00    -0.116 C  
BRANCH   3   4
HETATM    4  C   UNL     1      -8.147  11.028  66.480  1.00  0.00    -0.161 C  
BRANCH   4   5
HETATM    5  C   UNL     1      -9.474  11.239  67.138  1.00  0.00    -0.170 A  
HETATM    6  N   UNL     1     -10.451  11.890  66.539  1.00  0.00    -0.216 NA 
HETATM    7  C   UNL     1     -11.515  11.839  67.380  1.00  0.00    -0.305 A  
HETATM    8  C   UNL     1     -11.202  11.158  68.533  1.00  0.00    -0.258 A  
HETATM    9  N   UNL     1      -9.859  10.817  68.409  1.00  0.00    -0.163 NA 
BRANCH   8  10
HETATM   10  C   UNL     1     -11.997  10.769  69.626  1.00  0.00    -0.385 C  
HETATM   11  O   UNL     1     -13.681  11.763  72.602  1.00  0.00     0.124 OA 
HETATM   12  C   UNL     1     -12.234  11.561  70.692  1.00  0.00    -0.473 C  
HETATM   13  C   UNL     1     -13.101  10.923  71.727  1.00  0.00    -0.459 C  
HETATM   14  O   UNL     1     -13.267   9.714  71.800  1.00  0.00    -0.374 OA 
BRANCH  12  15
HETATM   15  C   UNL     1     -11.667  12.940  70.905  1.00  0.00     0.529 C  
BRANCH  15  16
HETATM   16  C   UNL     1     -12.607  13.990  71.437  1.00  0.00    -0.372 A  
HETATM   17  C   UNL     1     -14.403  15.448  71.737  1.00  0.00    -0.639 A  
HETATM   18  C   UNL     1     -13.910  14.284  71.080  1.00  0.00    -0.082 A  
HETATM   19  C   UNL     1     -13.489  15.965  72.625  1.00  0.00    -0.473 A  
HETATM   20  S   UNL     1     -12.048  15.049  72.669  1.00  0.00    -0.309 SA 
ENDBRANCH  15  16
ENDBRANCH  12  15
ENDBRANCH   8  10
BRANCH   9  21
HETATM   21  C   UNL     1      -8.967  10.352  69.484  1.00  0.00    -0.106 C  
BRANCH  21  22
HETATM   22  C   UNL     1      -9.319   8.998  70.065  1.00  0.00    -0.198 A  
HETATM   23  C   UNL     1      -9.385   7.849  69.264  1.00  0.00    -0.148 A  
HETATM   24  C   UNL     1      -9.549   6.581  69.827  1.00  0.00    -0.161 A  
HETATM   25  C   UNL     1      -9.622   8.855  71.427  1.00  0.00    -0.359 A  
HETATM   26  O   UNL     1      -9.015   5.022  72.970  1.00  0.00    -0.116 OA 
HETATM   27  C   UNL     1      -9.782   7.591  72.003  1.00  0.00    -0.195 A  
HETATM   28  C   UNL     1      -9.673   6.447  71.209  1.00  0.00    -0.189 A  
HETATM   29  O   UNL     1     -10.165   4.116  71.242  1.00  0.00    -0.129 OA 
HETATM   30  C   UNL     1      -9.677   5.086  71.793  1.00  0.00    -0.163 C  
ENDBRANCH  21  22
ENDBRANCH   9  21
ENDBRANCH   4   5
ENDBRANCH   3   4
ENDBRANCH   2   3
TORSDOF 8
ENDMDL
MODEL      223
REMARK 921   NORMALIZED FREE ENERGY PREDICTED BY IDOCK:   -2.98 KCAL/MOL
REMARK 922        TOTAL FREE ENERGY PREDICTED BY IDOCK:   -6.49 KCAL/MOL
REMARK 923 INTER-LIGAND FREE ENERGY PREDICTED BY IDOCK:   -6.23 KCAL/MOL
REMARK 924 INTRA-LIGAND FREE ENERGY PREDICTED BY IDOCK:   -0.26 KCAL/MOL
REMARK 927      BINDING AFFINITY PREDICTED BY RF-SCORE:    0.00 PKD
ROOT
HETATM    1  C   UNL     1     -10.203  14.324  69.682  1.00  0.00     0.254 C  
HETATM    2  C   UNL     1     -11.557  14.888  69.272  1.00  0.00    -0.330 C  
ENDROOT
BRANCH   2   3
HETATM    3  C   UNL     1     -11.866  14.519  67.820  1.00  0.00    -0.390 C  
BRANCH   3   4
HETATM    4  C   UNL     1     -11.002  13.418  67.212  1.00  0.00    -0.286 C  
BRANCH   4   5
HETATM    5  C   UNL     1     -11.112  12.095  67.902  1.00  0.00    -0.245 A  
HETATM    6  N   UNL     1     -12.199  11.739  68.556  1.00  0.00    -0.372 NA 
HETATM    7  C   UNL     1     -11.983  10.474  68.996  1.00  0.00    -0.023 A  
HETATM    8  C   UNL     1     -10.736  10.028  68.626  1.00  0.00    -0.226 A  
HETATM    9  N   UNL     1     -10.140  11.098  67.967  1.00  0.00    -0.170 NA 
BRANCH   8  10
HETATM   10  C   UNL     1     -10.121   8.770  68.764  1.00  0.00    -0.213 C  
HETATM   11  O   UNL     1      -9.572   5.920  70.826  1.00  0.00    -0.165 OA 
HETATM   12  C   UNL     1     -10.052   8.100  69.932  1.00  0.00    -0.195 C  
HETATM   13  C   UNL     1      -9.344   6.790  69.826  1.00  0.00    -0.145 C  
HETATM   14  O   UNL     1      -8.586   6.517  68.907  1.00  0.00    -0.124 OA 
BRANCH  12  15
HETATM   15  C   UNL     1     -10.568   8.592  71.258  1.00  0.00    -0.308 C  
BRANCH  15  16
HETATM   16  C   UNL     1     -12.035   8.389  71.538  1.00  0.00    -0.299 A  
HETATM   17  C   UNL     1     -14.203   7.535  71.629  1.00  0.00    -0.592 A  
HETATM   18  C   UNL     1     -12.828   7.269  71.370  1.00  0.00    -0.425 A  
HETATM   19  C   UNL     1     -14.408   8.827  72.053  1.00  0.00    -0.377 A  
HETATM   20  S   UNL     1     -12.950   9.712  72.142  1.00  0.00    -0.378 SA 
ENDBRANCH  15  16
ENDBRANCH  12  15
ENDBRANCH   8  10
BRANCH   9  21
HETATM   21  C   UNL     1      -8.711  11.247  67.643  1.00  0.00    -0.131 C  
BRANCH  21  22
HETATM   22  C   UNL     1      -8.244  10.458  66.436  1.00  0.00    -0.141 A  
HETATM   23  C   UNL     1      -6.981   9.851  66.400  1.00  0.00    -0.095 A  
HETATM   24  C   UNL     1      -6.618   8.994  65.359  1.00  0.00    -0.068 A  
HETATM   25  C   UNL     1      -9.053  10.336  65.297  1.00  0.00    -0.228 A  
HETATM   26  O   UNL     1      -8.251   6.995  62.923  1.00  0.00    -0.076 OA 
HETATM   27  C   UNL     1      -8.704   9.476  64.252  1.00  0.00    -0.232 A  
HETATM   28  C   UNL     1      -7.514   8.748  64.320  1.00  0.00    -0.108 A  
HETATM   29  O   UNL     1      -6.039   7.479  62.945  1.00  0.00    -0.053 OA 
HETATM   30  C   UNL     1      -7.174   7.710  63.319  1.00  0.00    -0.083 C  
ENDBRANCH  21  22
ENDBRANCH   9  21
ENDBRANCH   4   5
ENDBRANCH   3   4
ENDBRANCH   2   3
TORSDOF 8
ENDMDL
MODEL      224
REMARK 921   NORMALIZED FREE ENERGY PREDICTED BY IDOCK:   -2.96 KCAL/MOL
REMARK 922        TOTAL FREE ENERGY PREDICTED BY IDOCK:   -6.46 KCAL/MOL
REMARK 923 INTER-LIGAND FREE ENERGY PREDICTED BY IDOCK:   -5.06 KCAL/MOL
REMARK 924 INTRA-LIGAND FREE ENERGY PREDICTED BY IDOCK:   -1.40 KCAL/MOL
REMARK 927      BINDING AFFINITY PREDICTED BY RF-SCORE:    0.00 PKD
ROOT
HETATM    1  C   UNL     1      -6.411   9.674  63.725  1.00  0.00    -0.111 C  
HETATM    2  C   UNL     1      -7.517  10.018  62.735  1.00  0.00    -0.132 C  
ENDROOT
BRANCH   2   3
HETATM    3  C   UNL     1      -8.826   9.345  63.150  1.00  0.00    -0.207 C  
BRANCH   3   4
HETATM    4  C   UNL     1      -8.903   8.868  64.597  1.00  0.00    -0.098 C  
BRANCH   4   5
HETATM    5  C   UNL     1      -9.576   9.826  65.529  1.00  0.00    -0.282 A  
HETATM    6  N   UNL     1      -9.586  11.125  65.304  1.00  0.00    -0.221 NA 
HETATM    7  C   UNL     1     -10.327  11.678  66.297  1.00  0.00    -0.235 A  
HETATM    8  C   UNL     1     -10.780  10.718  67.171  1.00  0.00    -0.272 A  
HETATM    9  N   UNL     1     -10.245   9.518  66.712  1.00  0.00    -0.244 NA 
BRANCH   8  10
HETATM   10  C   UNL     1     -11.652  10.801  68.271  1.00  0.00    -0.297 C  
HETATM   11  O   UNL     1     -12.687  12.649  71.133  1.00  0.00    -0.358 OA 
HETATM   12  C   UNL     1     -11.502  11.691  69.274  1.00  0.00    -0.364 C  
HETATM   13  C   UNL     1     -12.549  11.579  70.332  1.00  0.00    -0.157 C  
HETATM   14  O   UNL     1     -13.232  10.576  70.486  1.00  0.00    -0.282 OA 
BRANCH  12  15
HETATM   15  C   UNL     1     -10.380  12.688  69.401  1.00  0.00     0.444 C  
BRANCH  15  16
HETATM   16  C   UNL     1     -10.694  14.117  69.042  1.00  0.00    -0.231 A  
HETATM   17  C   UNL     1     -11.625  16.044  68.115  1.00  0.00    -0.183 A  
HETATM   18  C   UNL     1     -11.777  14.650  68.368  1.00  0.00    -0.352 A  
HETATM   19  C   UNL     1     -10.468  16.545  68.663  1.00  0.00    -0.304 A  
HETATM   20  S   UNL     1      -9.572  15.343  69.481  1.00  0.00    -0.224 SA 
ENDBRANCH  15  16
ENDBRANCH  12  15
ENDBRANCH   8  10
BRANCH   9  21
HETATM   21  C   UNL     1     -10.175   8.247  67.451  1.00  0.00    -0.258 C  
BRANCH  21  22
HETATM   22  C   UNL     1      -8.973   8.103  68.364  1.00  0.00    -0.136 A  
HETATM   23  C   UNL     1      -8.875   8.816  69.567  1.00  0.00    -0.144 A  
HETATM   24  C   UNL     1      -7.849   8.560  70.480  1.00  0.00    -0.086 A  
HETATM   25  C   UNL     1      -7.899   7.271  68.016  1.00  0.00    -0.118 A  
HETATM   26  O   UNL     1      -5.619   5.905  71.237  1.00  0.00    -0.019 OA 
HETATM   27  C   UNL     1      -6.870   7.003  68.923  1.00  0.00    -0.072 A  
HETATM   28  C   UNL     1      -6.886   7.596  70.187  1.00  0.00    -0.050 A  
HETATM   29  O   UNL     1      -5.467   8.012  72.055  1.00  0.00    -0.035 OA 
HETATM   30  C   UNL     1      -5.910   7.226  71.237  1.00  0.00    -0.036 C  
ENDBRANCH  21  22
ENDBRANCH   9  21
ENDBRANCH   4   5
ENDBRANCH   3   4
ENDBRANCH   2   3
TORSDOF 8
ENDMDL
MODEL      225
REMARK 921   NORMALIZED FREE ENERGY PREDICTED BY IDOCK:   -2.93 KCAL/MOL
REMARK 922        TOTAL FREE ENERGY PREDICTED BY IDOCK:   -6.42 KCAL/MOL
REMARK 923 INTER-LIGAND FREE ENERGY PREDICTED BY IDOCK:   -5.41 KCAL/MOL
REMARK 924 INTRA-LIGAND FREE ENERGY PREDICTED BY IDOCK:   -1.01 KCAL/MOL
REMARK 927      BINDING AFFINITY PREDICTED BY RF-SCORE:    0.00 PKD
ROOT
HETATM    1  C   UNL     1     -11.564   7.861  72.576  1.00  0.00    -0.443 C  
HETATM    2  C   UNL     1     -10.733   8.854  71.773  1.00  0.00    -0.432 C  
ENDROOT
BRANCH   2   3
HETATM    3  C   UNL     1     -11.444   9.201  70.464  1.00  0.00    -0.271 C  
BRANCH   3   4
HETATM    4  C   UNL     1     -10.960  10.462  69.756  1.00  0.00    -0.345 C  
BRANCH   4   5
HETATM    5  C   UNL     1     -10.663  10.279  68.301  1.00  0.00    -0.237 A  
HETATM    6  N   UNL     1     -11.172  11.073  67.381  1.00  0.00    -0.381 NA 
HETATM    7  C   UNL     1     -10.651  10.667  66.195  1.00  0.00    -0.142 A  
HETATM    8  C   UNL     1      -9.811   9.592  66.366  1.00  0.00    -0.253 A  
HETATM    9  N   UNL     1      -9.862   9.295  67.725  1.00  0.00    -0.164 NA 
BRANCH   8  10
HETATM   10  C   UNL     1      -8.981   8.909  65.459  1.00  0.00    -0.246 C  
HETATM   11  O   UNL     1      -5.748   8.626  63.996  1.00  0.00    -0.064 OA 
HETATM   12  C   UNL     1      -7.763   9.353  65.087  1.00  0.00    -0.109 C  
HETATM   13  C   UNL     1      -7.077   8.458  64.109  1.00  0.00    -0.083 C  
HETATM   14  O   UNL     1      -7.674   7.635  63.430  1.00  0.00    -0.118 OA 
BRANCH  12  15
HETATM   15  C   UNL     1      -7.124  10.641  65.533  1.00  0.00    -0.048 C  
BRANCH  15  16
HETATM   16  C   UNL     1      -6.651  10.709  66.962  1.00  0.00    -0.081 A  
HETATM   17  C   UNL     1      -5.658  10.244  69.021  1.00  0.00    -0.037 A  
HETATM   18  C   UNL     1      -5.716   9.941  67.630  1.00  0.00    -0.039 A  
HETATM   19  C   UNL     1      -6.498  11.280  69.358  1.00  0.00    -0.105 A  
HETATM   20  S   UNL     1      -7.347  11.884  68.005  1.00  0.00    -0.110 SA 
ENDBRANCH  15  16
ENDBRANCH  12  15
ENDBRANCH   8  10
BRANCH   9  21
HETATM   21  C   UNL     1      -9.389   8.061  68.373  1.00  0.00    -0.138 C  
BRANCH  21  22
HETATM   22  C   UNL     1      -9.367   6.837  67.480  1.00  0.00    -0.129 A  
HETATM   23  C   UNL     1     -10.551   6.228  67.039  1.00  0.00    -0.386 A  
HETATM   24  C   UNL     1     -10.529   5.204  66.089  1.00  0.00    -0.301 A  
HETATM   25  C   UNL     1      -8.155   6.251  67.088  1.00  0.00    -0.109 A  
HETATM   26  O   UNL     1      -8.337   4.023  63.561  1.00  0.00    -0.089 OA 
HETATM   27  C   UNL     1      -8.120   5.230  66.134  1.00  0.00    -0.109 A  
HETATM   28  C   UNL     1      -9.311   4.757  65.580  1.00  0.00    -0.166 A  
HETATM   29  O   UNL     1     -10.167   2.926  64.318  1.00  0.00    -0.120 OA 
HETATM   30  C   UNL     1      -9.322   3.792  64.456  1.00  0.00    -0.152 C  
ENDBRANCH  21  22
ENDBRANCH   9  21
ENDBRANCH   4   5
ENDBRANCH   3   4
ENDBRANCH   2   3
TORSDOF 8
ENDMDL
MODEL      226
REMARK 921   NORMALIZED FREE ENERGY PREDICTED BY IDOCK:   -2.92 KCAL/MOL
REMARK 922        TOTAL FREE ENERGY PREDICTED BY IDOCK:   -6.40 KCAL/MOL
REMARK 923 INTER-LIGAND FREE ENERGY PREDICTED BY IDOCK:   -6.17 KCAL/MOL
REMARK 924 INTRA-LIGAND FREE ENERGY PREDICTED BY IDOCK:   -0.23 KCAL/MOL
REMARK 927      BINDING AFFINITY PREDICTED BY RF-SCORE:    0.00 PKD
ROOT
HETATM    1  C   UNL     1      -6.692  19.750  70.388  1.00  0.00    -0.028 C  
HETATM    2  C   UNL     1      -6.020  18.937  69.289  1.00  0.00    -0.255 C  
ENDROOT
BRANCH   2   3
HETATM    3  C   UNL     1      -6.263  17.444  69.512  1.00  0.00    -0.249 C  
BRANCH   3   4
HETATM    4  C   UNL     1      -5.811  16.517  68.388  1.00  0.00    -0.120 C  
BRANCH   4   5
HETATM    5  C   UNL     1      -6.529  15.205  68.341  1.00  0.00    -0.107 A  
HETATM    6  N   UNL     1      -5.889  14.058  68.452  1.00  0.00    -0.094 NA 
HETATM    7  C   UNL     1      -6.839  13.089  68.433  1.00  0.00    -0.097 A  
HETATM    8  C   UNL     1      -8.096  13.630  68.294  1.00  0.00    -0.155 A  
HETATM    9  N   UNL     1      -7.897  15.002  68.172  1.00  0.00    -0.115 NA 
BRANCH   8  10
HETATM   10  C   UNL     1      -9.371  13.037  68.326  1.00  0.00    -0.199 C  
HETATM   11  O   UNL     1     -11.296  10.065  67.953  1.00  0.00    -0.204 OA 
HETATM   12  C   UNL     1      -9.622  11.790  67.878  1.00  0.00    -0.187 C  
HETATM   13  C   UNL     1     -11.053  11.386  68.012  1.00  0.00    -0.257 C  
HETATM   14  O   UNL     1     -11.961  12.194  68.147  1.00  0.00    -0.430 OA 
BRANCH  12  15
HETATM   15  C   UNL     1      -8.617  10.865  67.245  1.00  0.00    -0.128 C  
BRANCH  15  16
HETATM   16  C   UNL     1      -8.242   9.629  68.022  1.00  0.00    -0.110 A  
HETATM   17  C   UNL     1      -7.803   7.430  68.663  1.00  0.00    -0.122 A  
HETATM   18  C   UNL     1      -7.997   8.341  67.584  1.00  0.00    -0.118 A  
HETATM   19  C   UNL     1      -7.837   8.062  69.884  1.00  0.00    -0.102 A  
HETATM   20  S   UNL     1      -8.096   9.742  69.730  1.00  0.00    -0.181 SA 
ENDBRANCH  15  16
ENDBRANCH  12  15
ENDBRANCH   8  10
BRANCH   9  21
HETATM   21  C   UNL     1      -8.878  15.994  67.703  1.00  0.00    -0.185 C  
BRANCH  21  22
HETATM   22  C   UNL     1      -9.908  15.463  66.726  1.00  0.00    -0.255 A  
HETATM   23  C   UNL     1      -9.577  15.171  65.396  1.00  0.00    -0.127 A  
HETATM   24  C   UNL     1     -10.483  14.532  64.546  1.00  0.00    -0.059 A  
HETATM   25  C   UNL     1     -11.242  15.276  67.116  1.00  0.00    -0.291 A  
HETATM   26  O   UNL     1     -13.357  12.474  64.854  1.00  0.00    -0.702 OA 
HETATM   27  C   UNL     1     -12.156  14.632  66.277  1.00  0.00    -0.213 A  
HETATM   28  C   UNL     1     -11.751  14.195  65.014  1.00  0.00    -0.376 A  
HETATM   29  O   UNL     1     -12.650  13.450  62.937  1.00  0.00    -0.576 OA 
HETATM   30  C   UNL     1     -12.631  13.372  64.152  1.00  0.00    -0.135 C  
ENDBRANCH  21  22
ENDBRANCH   9  21
ENDBRANCH   4   5
ENDBRANCH   3   4
ENDBRANCH   2   3
TORSDOF 8
ENDMDL
MODEL      227
REMARK 921   NORMALIZED FREE ENERGY PREDICTED BY IDOCK:   -2.90 KCAL/MOL
REMARK 922        TOTAL FREE ENERGY PREDICTED BY IDOCK:   -6.37 KCAL/MOL
REMARK 923 INTER-LIGAND FREE ENERGY PREDICTED BY IDOCK:   -4.19 KCAL/MOL
REMARK 924 INTRA-LIGAND FREE ENERGY PREDICTED BY IDOCK:   -2.18 KCAL/MOL
REMARK 927      BINDING AFFINITY PREDICTED BY RF-SCORE:    0.00 PKD
ROOT
HETATM    1  C   UNL     1      -6.072  19.653  70.112  1.00  0.00    -0.316 C  
HETATM    2  C   UNL     1      -5.459  18.614  69.183  1.00  0.00    -0.205 C  
ENDROOT
BRANCH   2   3
HETATM    3  C   UNL     1      -5.800  17.204  69.668  1.00  0.00    -0.229 C  
BRANCH   3   4
HETATM    4  C   UNL     1      -5.498  16.071  68.693  1.00  0.00    -0.101 C  
BRANCH   4   5
HETATM    5  C   UNL     1      -6.297  14.827  68.925  1.00  0.00    -0.087 A  
HETATM    6  N   UNL     1      -5.944  13.932  69.826  1.00  0.00    -0.116 NA 
HETATM    7  C   UNL     1      -6.911  12.979  69.815  1.00  0.00     0.375 A  
HETATM    8  C   UNL     1      -7.882  13.269  68.885  1.00  0.00     0.104 A  
HETATM    9  N   UNL     1      -7.457  14.437  68.259  1.00  0.00    -0.112 NA 
BRANCH   8  10
HETATM   10  C   UNL     1      -9.105  12.640  68.593  1.00  0.00     0.040 C  
HETATM   11  O   UNL     1     -10.783  10.024  66.858  1.00  0.00    -0.212 OA 
HETATM   12  C   UNL     1      -9.252  11.708  67.629  1.00  0.00    -0.178 C  
HETATM   13  C   UNL     1     -10.647  11.194  67.505  1.00  0.00    -0.221 C  
HETATM   14  O   UNL     1     -11.618  11.796  67.942  1.00  0.00    -0.331 OA 
BRANCH  12  15
HETATM   15  C   UNL     1      -8.168  11.230  66.699  1.00  0.00    -0.164 C  
BRANCH  15  16
HETATM   16  C   UNL     1      -7.574   9.874  66.984  1.00  0.00    -0.092 A  
HETATM   17  C   UNL     1      -6.824   7.673  66.810  1.00  0.00    -0.067 A  
HETATM   18  C   UNL     1      -7.237   8.849  66.120  1.00  0.00    -0.090 A  
HETATM   19  C   UNL     1      -6.793   7.858  68.172  1.00  0.00    -0.068 A  
HETATM   20  S   UNL     1      -7.253   9.442  68.616  1.00  0.00    -0.075 SA 
ENDBRANCH  15  16
ENDBRANCH  12  15
ENDBRANCH   8  10
BRANCH   9  21
HETATM   21  C   UNL     1      -7.973  14.996  66.998  1.00  0.00    -0.162 C  
BRANCH  21  22
HETATM   22  C   UNL     1      -8.282  16.480  67.036  1.00  0.00    -0.227 A  
HETATM   23  C   UNL     1      -9.067  17.040  68.053  1.00  0.00    -0.237 A  
HETATM   24  C   UNL     1      -9.215  18.424  68.176  1.00  0.00    -0.327 A  
HETATM   25  C   UNL     1      -7.816  17.339  66.031  1.00  0.00    -0.210 A  
HETATM   26  O   UNL     1      -7.470  21.344  67.164  1.00  0.00    -0.417 OA 
HETATM   27  C   UNL     1      -7.953  18.726  66.146  1.00  0.00    -0.241 A  
HETATM   28  C   UNL     1      -8.592  19.271  67.261  1.00  0.00    -0.319 A  
HETATM   29  O   UNL     1      -9.563  21.307  68.026  1.00  0.00     0.179 OA 
HETATM   30  C   UNL     1      -8.624  20.731  67.508  1.00  0.00    -0.086 C  
ENDBRANCH  21  22
ENDBRANCH   9  21
ENDBRANCH   4   5
ENDBRANCH   3   4
ENDBRANCH   2   3
TORSDOF 8
ENDMDL
MODEL      228
REMARK 921   NORMALIZED FREE ENERGY PREDICTED BY IDOCK:   -2.89 KCAL/MOL
REMARK 922        TOTAL FREE ENERGY PREDICTED BY IDOCK:   -6.36 KCAL/MOL
REMARK 923 INTER-LIGAND FREE ENERGY PREDICTED BY IDOCK:   -7.07 KCAL/MOL
REMARK 924 INTRA-LIGAND FREE ENERGY PREDICTED BY IDOCK:    0.71 KCAL/MOL
REMARK 927      BINDING AFFINITY PREDICTED BY RF-SCORE:    0.00 PKD
ROOT
HETATM    1  C   UNL     1      -9.361   6.757  72.093  1.00  0.00    -0.145 C  
HETATM    2  C   UNL     1     -10.640   7.574  71.975  1.00  0.00    -0.248 C  
ENDROOT
BRANCH   2   3
HETATM    3  C   UNL     1     -10.307   9.055  71.791  1.00  0.00    -0.407 C  
BRANCH   3   4
HETATM    4  C   UNL     1     -11.269   9.854  70.917  1.00  0.00    -0.433 C  
BRANCH   4   5
HETATM    5  C   UNL     1     -10.719  10.229  69.577  1.00  0.00    -0.249 A  
HETATM    6  N   UNL     1      -9.797   9.504  68.975  1.00  0.00    -0.170 NA 
HETATM    7  C   UNL     1      -9.580  10.088  67.769  1.00  0.00    -0.148 A  
HETATM    8  C   UNL     1     -10.366  11.206  67.612  1.00  0.00    -0.192 A  
HETATM    9  N   UNL     1     -11.064  11.339  68.808  1.00  0.00    -0.212 NA 
BRANCH   8  10
HETATM   10  C   UNL     1     -10.557  12.058  66.510  1.00  0.00    -0.269 C  
HETATM   11  O   UNL     1     -11.107  12.334  63.003  1.00  0.00    -0.265 OA 
HETATM   12  C   UNL     1     -10.524  11.637  65.229  1.00  0.00    -0.323 C  
HETATM   13  C   UNL     1     -10.748  12.729  64.237  1.00  0.00    -0.394 C  
HETATM   14  O   UNL     1     -10.599  13.913  64.507  1.00  0.00    -0.424 OA 
BRANCH  12  15
HETATM   15  C   UNL     1     -10.241  10.229  64.775  1.00  0.00    -0.238 C  
BRANCH  15  16
HETATM   16  C   UNL     1      -8.894   9.973  64.150  1.00  0.00    -0.221 A  
HETATM   17  C   UNL     1      -7.080   9.888  62.686  1.00  0.00    -0.119 A  
HETATM   18  C   UNL     1      -8.328  10.497  63.003  1.00  0.00    -0.159 A  
HETATM   19  C   UNL     1      -6.698   8.970  63.636  1.00  0.00    -0.089 A  
HETATM   20  S   UNL     1      -7.837   8.846  64.903  1.00  0.00    -0.129 SA 
ENDBRANCH  15  16
ENDBRANCH  12  15
ENDBRANCH   8  10
BRANCH   9  21
HETATM   21  C   UNL     1     -11.803  12.526  69.268  1.00  0.00    -0.304 C  
BRANCH  21  22
HETATM   22  C   UNL     1     -11.337  13.839  68.671  1.00  0.00    -0.321 A  
HETATM   23  C   UNL     1     -12.247  14.813  68.236  1.00  0.00    -0.065 A  
HETATM   24  C   UNL     1     -11.819  16.081  67.839  1.00  0.00     0.219 A  
HETATM   25  C   UNL     1      -9.971  14.112  68.505  1.00  0.00    -0.235 A  
HETATM   26  O   UNL     1      -8.995  18.169  68.350  1.00  0.00    -0.282 OA 
HETATM   27  C   UNL     1      -9.530  15.380  68.115  1.00  0.00    -0.202 A  
HETATM   28  C   UNL     1     -10.459  16.388  67.851  1.00  0.00    -0.307 A  
HETATM   29  O   UNL     1     -10.625  18.529  66.819  1.00  0.00    -0.391 OA 
HETATM   30  C   UNL     1     -10.043  17.785  67.588  1.00  0.00    -0.342 C  
ENDBRANCH  21  22
ENDBRANCH   9  21
ENDBRANCH   4   5
ENDBRANCH   3   4
ENDBRANCH   2   3
TORSDOF 8
ENDMDL
MODEL      229
REMARK 921   NORMALIZED FREE ENERGY PREDICTED BY IDOCK:   -2.83 KCAL/MOL
REMARK 922        TOTAL FREE ENERGY PREDICTED BY IDOCK:   -6.27 KCAL/MOL
REMARK 923 INTER-LIGAND FREE ENERGY PREDICTED BY IDOCK:   -5.04 KCAL/MOL
REMARK 924 INTRA-LIGAND FREE ENERGY PREDICTED BY IDOCK:   -1.23 KCAL/MOL
REMARK 927      BINDING AFFINITY PREDICTED BY RF-SCORE:    0.00 PKD
ROOT
HETATM    1  C   UNL     1      -5.952  11.379  67.952  1.00  0.00    -0.044 C  
HETATM    2  C   UNL     1      -7.450  11.385  67.676  1.00  0.00    -0.103 C  
ENDROOT
BRANCH   2   3
HETATM    3  C   UNL     1      -8.160  12.345  68.630  1.00  0.00    -0.020 C  
BRANCH   3   4
HETATM    4  C   UNL     1      -7.424  13.645  68.940  1.00  0.00    -0.033 C  
BRANCH   4   5
HETATM    5  C   UNL     1      -8.282  14.870  68.880  1.00  0.00    -0.171 A  
HETATM    6  N   UNL     1      -8.880  15.353  69.951  1.00  0.00    -0.033 NA 
HETATM    7  C   UNL     1      -9.512  16.487  69.555  1.00  0.00     0.047 A  
HETATM    8  C   UNL     1      -9.322  16.717  68.213  1.00  0.00    -0.230 A  
HETATM    9  N   UNL     1      -8.574  15.637  67.754  1.00  0.00    -0.160 NA 
BRANCH   8  10
HETATM   10  C   UNL     1      -9.691  17.801  67.396  1.00  0.00    -0.284 C  
HETATM   11  O   UNL     1      -8.617  20.418  65.234  1.00  0.00     0.252 OA 
HETATM   12  C   UNL     1      -8.808  18.688  66.893  1.00  0.00    -0.289 C  
HETATM   13  C   UNL     1      -9.442  19.752  66.061  1.00  0.00    -0.318 C  
HETATM   14  O   UNL     1     -10.632  20.028  66.129  1.00  0.00    -0.437 OA 
BRANCH  12  15
HETATM   15  C   UNL     1      -7.325  18.692  67.151  1.00  0.00    -0.218 C  
BRANCH  15  16
HETATM   16  C   UNL     1      -6.873  19.106  68.527  1.00  0.00    -0.277 A  
HETATM   17  C   UNL     1      -6.324  20.334  70.433  1.00  0.00    -0.253 A  
HETATM   18  C   UNL     1      -7.015  20.313  69.187  1.00  0.00    -0.097 A  
HETATM   19  C   UNL     1      -5.735  19.124  70.717  1.00  0.00    -0.149 A  
HETATM   20  S   UNL     1      -6.018  17.969  69.491  1.00  0.00    -0.248 SA 
ENDBRANCH  15  16
ENDBRANCH  12  15
ENDBRANCH   8  10
BRANCH   9  21
HETATM   21  C   UNL     1      -8.361  15.248  66.351  1.00  0.00     0.032 C  
BRANCH  21  22
HETATM   22  C   UNL     1      -9.451  14.379  65.756  1.00  0.00    -0.130 A  
HETATM   23  C   UNL     1     -10.597  14.935  65.171  1.00  0.00    -0.450 A  
HETATM   24  C   UNL     1     -11.518  14.142  64.482  1.00  0.00    -0.380 A  
HETATM   25  C   UNL     1      -9.363  12.980  65.801  1.00  0.00     0.120 A  
HETATM   26  O   UNL     1     -11.559  10.984  62.862  1.00  0.00     0.545 OA 
HETATM   27  C   UNL     1     -10.274  12.176  65.111  1.00  0.00    -0.308 A  
HETATM   28  C   UNL     1     -11.314  12.766  64.389  1.00  0.00    -0.394 A  
HETATM   29  O   UNL     1     -13.389  12.224  63.353  1.00  0.00    -0.462 OA 
HETATM   30  C   UNL     1     -12.209  11.972  63.516  1.00  0.00    -0.547 C  
ENDBRANCH  21  22
ENDBRANCH   9  21
ENDBRANCH   4   5
ENDBRANCH   3   4
ENDBRANCH   2   3
TORSDOF 8
ENDMDL
MODEL      230
REMARK 921   NORMALIZED FREE ENERGY PREDICTED BY IDOCK:   -2.80 KCAL/MOL
REMARK 922        TOTAL FREE ENERGY PREDICTED BY IDOCK:   -6.23 KCAL/MOL
REMARK 923 INTER-LIGAND FREE ENERGY PREDICTED BY IDOCK:   -5.74 KCAL/MOL
REMARK 924 INTRA-LIGAND FREE ENERGY PREDICTED BY IDOCK:   -0.48 KCAL/MOL
REMARK 927      BINDING AFFINITY PREDICTED BY RF-SCORE:    0.00 PKD
ROOT
HETATM    1  C   UNL     1     -13.113   9.049  71.835  1.00  0.00    -0.459 C  
HETATM    2  C   UNL     1     -11.923   8.229  71.355  1.00  0.00    -0.333 C  
ENDROOT
BRANCH   2   3
HETATM    3  C   UNL     1     -12.388   6.851  70.881  1.00  0.00    -0.365 C  
BRANCH   3   4
HETATM    4  C   UNL     1     -11.347   6.009  70.150  1.00  0.00    -0.351 C  
BRANCH   4   5
HETATM    5  C   UNL     1     -10.606   6.739  69.074  1.00  0.00    -0.230 A  
HETATM    6  N   UNL     1     -11.135   6.947  67.884  1.00  0.00    -0.167 NA 
HETATM    7  C   UNL     1     -10.231   7.683  67.189  1.00  0.00    -0.290 A  
HETATM    8  C   UNL     1      -9.109   7.932  67.945  1.00  0.00    -0.131 A  
HETATM    9  N   UNL     1      -9.320   7.270  69.150  1.00  0.00    -0.146 NA 
BRANCH   8  10
HETATM   10  C   UNL     1      -7.975   8.724  67.689  1.00  0.00    -0.106 C  
HETATM   11  O   UNL     1      -6.706  11.867  66.602  1.00  0.00    -0.062 OA 
HETATM   12  C   UNL     1      -8.022   9.903  67.038  1.00  0.00    -0.109 C  
HETATM   13  C   UNL     1      -6.687  10.552  66.883  1.00  0.00    -0.086 C  
HETATM   14  O   UNL     1      -5.635   9.938  66.982  1.00  0.00    -0.045 OA 
BRANCH  12  15
HETATM   15  C   UNL     1      -9.258  10.533  66.451  1.00  0.00    -0.190 C  
BRANCH  15  16
HETATM   16  C   UNL     1     -10.082  11.401  67.366  1.00  0.00    -0.184 A  
HETATM   17  C   UNL     1     -11.513  12.173  69.039  1.00  0.00    -0.351 A  
HETATM   18  C   UNL     1     -10.725  11.091  68.550  1.00  0.00    -0.236 A  
HETATM   19  C   UNL     1     -11.393  13.295  68.253  1.00  0.00    -0.300 A  
HETATM   20  S   UNL     1     -10.333  13.046  66.937  1.00  0.00    -0.247 SA 
ENDBRANCH  15  16
ENDBRANCH  12  15
ENDBRANCH   8  10
BRANCH   9  21
HETATM   21  C   UNL     1      -8.309   6.969  70.177  1.00  0.00    -0.138 C  
BRANCH  21  22
HETATM   22  C   UNL     1      -8.630   5.781  71.062  1.00  0.00    -0.131 A  
HETATM   23  C   UNL     1      -9.071   5.947  72.382  1.00  0.00    -0.140 A  
HETATM   24  C   UNL     1      -9.519   4.862  73.139  1.00  0.00    -0.144 A  
HETATM   25  C   UNL     1      -8.466   4.469  70.595  1.00  0.00    -0.103 A  
HETATM   26  O   UNL     1     -10.798   1.605  72.545  1.00  0.00    -0.155 OA 
HETATM   27  C   UNL     1      -8.916   3.375  71.341  1.00  0.00    -0.156 A  
HETATM   28  C   UNL     1      -9.511   3.582  72.587  1.00  0.00    -0.171 A  
HETATM   29  O   UNL     1     -10.135   2.400  74.559  1.00  0.00    -0.109 OA 
HETATM   30  C   UNL     1     -10.144   2.478  73.344  1.00  0.00    -0.107 C  
ENDBRANCH  21  22
ENDBRANCH   9  21
ENDBRANCH   4   5
ENDBRANCH   3   4
ENDBRANCH   2   3
TORSDOF 8
ENDMDL
MODEL      231
REMARK 921   NORMALIZED FREE ENERGY PREDICTED BY IDOCK:   -2.73 KCAL/MOL
REMARK 922        TOTAL FREE ENERGY PREDICTED BY IDOCK:   -6.12 KCAL/MOL
REMARK 923 INTER-LIGAND FREE ENERGY PREDICTED BY IDOCK:   -4.49 KCAL/MOL
REMARK 924 INTRA-LIGAND FREE ENERGY PREDICTED BY IDOCK:   -1.62 KCAL/MOL
REMARK 927      BINDING AFFINITY PREDICTED BY RF-SCORE:    0.00 PKD
ROOT
HETATM    1  C   UNL     1      -9.095   6.518  65.699  1.00  0.00     0.061 C  
HETATM    2  C   UNL     1      -8.480   5.153  65.981  1.00  0.00    -0.118 C  
ENDROOT
BRANCH   2   3
HETATM    3  C   UNL     1      -7.016   5.132  65.540  1.00  0.00    -0.065 C  
BRANCH   3   4
HETATM    4  C   UNL     1      -6.107   6.170  66.190  1.00  0.00    -0.029 C  
BRANCH   4   5
HETATM    5  C   UNL     1      -6.279   6.303  67.670  1.00  0.00    -0.025 A  
HETATM    6  N   UNL     1      -6.632   5.280  68.424  1.00  0.00    -0.047 NA 
HETATM    7  C   UNL     1      -6.632   5.732  69.704  1.00  0.00    -0.050 A  
HETATM    8  C   UNL     1      -6.287   7.062  69.759  1.00  0.00    -0.039 A  
HETATM    9  N   UNL     1      -6.117   7.456  68.435  1.00  0.00    -0.030 NA 
BRANCH   8  10
HETATM   10  C   UNL     1      -6.058   7.917  70.852  1.00  0.00    -0.034 C  
HETATM   11  O   UNL     1      -6.803   8.698  74.245  1.00  0.00    -0.241 OA 
HETATM   12  C   UNL     1      -6.805   7.905  71.975  1.00  0.00    -0.066 C  
HETATM   13  C   UNL     1      -6.371   8.910  72.990  1.00  0.00     0.064 C  
HETATM   14  O   UNL     1      -5.683   9.882  72.710  1.00  0.00    -0.302 OA 
BRANCH  12  15
HETATM   15  C   UNL     1      -8.004   7.029  72.222  1.00  0.00    -0.092 C  
BRANCH  15  16
HETATM   16  C   UNL     1      -9.351   7.594  71.851  1.00  0.00    -0.145 A  
HETATM   17  C   UNL     1     -11.421   8.668  71.890  1.00  0.00    -0.419 A  
HETATM   18  C   UNL     1     -10.155   8.496  72.522  1.00  0.00    -0.320 A  
HETATM   19  C   UNL     1     -11.516   7.948  70.722  1.00  0.00    -0.263 A  
HETATM   20  S   UNL     1     -10.087   7.075  70.388  1.00  0.00    -0.188 SA 
ENDBRANCH  15  16
ENDBRANCH  12  15
ENDBRANCH   8  10
BRANCH   9  21
HETATM   21  C   UNL     1      -6.042   8.837  67.931  1.00  0.00    -0.051 C  
BRANCH  21  22
HETATM   22  C   UNL     1      -7.366   9.573  67.885  1.00  0.00    -0.083 A  
HETATM   23  C   UNL     1      -8.044   9.791  66.677  1.00  0.00    -0.116 A  
HETATM   24  C   UNL     1      -9.335  10.323  66.655  1.00  0.00    -0.192 A  
HETATM   25  C   UNL     1      -7.945  10.091  69.052  1.00  0.00    -0.108 A  
HETATM   26  O   UNL     1     -12.085  10.615  68.879  1.00  0.00    -0.361 OA 
HETATM   27  C   UNL     1      -9.239  10.620  69.044  1.00  0.00    -0.177 A  
HETATM   28  C   UNL     1      -9.962  10.668  67.851  1.00  0.00    -0.189 A  
HETATM   29  O   UNL     1     -11.891  11.689  66.895  1.00  0.00    -0.577 OA 
HETATM   30  C   UNL     1     -11.387  11.071  67.815  1.00  0.00    -0.292 C  
ENDBRANCH  21  22
ENDBRANCH   9  21
ENDBRANCH   4   5
ENDBRANCH   3   4
ENDBRANCH   2   3
TORSDOF 8
ENDMDL
MODEL      232
REMARK 921   NORMALIZED FREE ENERGY PREDICTED BY IDOCK:   -2.72 KCAL/MOL
REMARK 922        TOTAL FREE ENERGY PREDICTED BY IDOCK:   -6.11 KCAL/MOL
REMARK 923 INTER-LIGAND FREE ENERGY PREDICTED BY IDOCK:   -4.68 KCAL/MOL
REMARK 924 INTRA-LIGAND FREE ENERGY PREDICTED BY IDOCK:   -1.43 KCAL/MOL
REMARK 927      BINDING AFFINITY PREDICTED BY RF-SCORE:    0.00 PKD
ROOT
HETATM    1  C   UNL     1      -6.885  15.356  69.369  1.00  0.00    -0.174 C  
HETATM    2  C   UNL     1      -6.226  14.007  69.627  1.00  0.00    -0.127 C  
ENDROOT
BRANCH   2   3
HETATM    3  C   UNL     1      -6.925  12.914  68.817  1.00  0.00    -0.103 C  
BRANCH   3   4
HETATM    4  C   UNL     1      -6.291  11.527  68.879  1.00  0.00    -0.059 C  
BRANCH   4   5
HETATM    5  C   UNL     1      -7.033  10.546  69.730  1.00  0.00    -0.144 A  
HETATM    6  N   UNL     1      -6.449   9.903  70.721  1.00  0.00    -0.212 NA 
HETATM    7  C   UNL     1      -7.414   9.154  71.312  1.00  0.00    -0.021 A  
HETATM    8  C   UNL     1      -8.623   9.315  70.676  1.00  0.00    -0.225 A  
HETATM    9  N   UNL     1      -8.370  10.171  69.609  1.00  0.00    -0.174 NA 
BRANCH   8  10
HETATM   10  C   UNL     1      -9.907   8.832  70.987  1.00  0.00    -0.293 C  
HETATM   11  O   UNL     1     -11.882   6.077  72.075  1.00  0.00    -0.303 OA 
HETATM   12  C   UNL     1     -10.182   7.527  71.188  1.00  0.00    -0.199 C  
HETATM   13  C   UNL     1     -11.618   7.262  71.498  1.00  0.00    -0.275 C  
HETATM   14  O   UNL     1     -12.512   8.052  71.231  1.00  0.00    -0.304 OA 
BRANCH  12  15
HETATM   15  C   UNL     1      -9.197   6.394  71.072  1.00  0.00    -0.157 C  
BRANCH  15  16
HETATM   16  C   UNL     1      -9.331   5.493  69.871  1.00  0.00    -0.147 A  
HETATM   17  C   UNL     1      -9.811   4.626  67.760  1.00  0.00    -0.183 A  
HETATM   18  C   UNL     1      -9.660   5.794  68.563  1.00  0.00    -0.150 A  
HETATM   19  C   UNL     1      -9.525   3.478  68.460  1.00  0.00    -0.141 A  
HETATM   20  S   UNL     1      -9.073   3.806  70.074  1.00  0.00    -0.141 SA 
ENDBRANCH  15  16
ENDBRANCH  12  15
ENDBRANCH   8  10
BRANCH   9  21
HETATM   21  C   UNL     1      -9.247  10.420  68.453  1.00  0.00    -0.147 C  
BRANCH  21  22
HETATM   22  C   UNL     1      -8.744   9.862  67.137  1.00  0.00    -0.136 A  
HETATM   23  C   UNL     1      -7.940   8.714  67.085  1.00  0.00    -0.100 A  
HETATM   24  C   UNL     1      -7.614   8.112  65.868  1.00  0.00    -0.082 A  
HETATM   25  C   UNL     1      -9.043  10.497  65.923  1.00  0.00    -0.192 A  
HETATM   26  O   UNL     1      -8.903   8.022  62.562  1.00  0.00     0.074 OA 
HETATM   27  C   UNL     1      -8.728   9.901  64.699  1.00  0.00    -0.215 A  
HETATM   28  C   UNL     1      -8.074   8.667  64.675  1.00  0.00    -0.156 A  
HETATM   29  O   UNL     1      -6.876   7.235  63.195  1.00  0.00    -0.052 OA 
HETATM   30  C   UNL     1      -7.858   7.921  63.414  1.00  0.00    -0.139 C  
ENDBRANCH  21  22
ENDBRANCH   9  21
ENDBRANCH   4   5
ENDBRANCH   3   4
ENDBRANCH   2   3
TORSDOF 8
ENDMDL
MODEL      233
REMARK 921   NORMALIZED FREE ENERGY PREDICTED BY IDOCK:   -2.70 KCAL/MOL
REMARK 922        TOTAL FREE ENERGY PREDICTED BY IDOCK:   -6.08 KCAL/MOL
REMARK 923 INTER-LIGAND FREE ENERGY PREDICTED BY IDOCK:   -4.47 KCAL/MOL
REMARK 924 INTRA-LIGAND FREE ENERGY PREDICTED BY IDOCK:   -1.60 KCAL/MOL
REMARK 927      BINDING AFFINITY PREDICTED BY RF-SCORE:    0.00 PKD
ROOT
HETATM    1  C   UNL     1      -6.621  16.754  68.722  1.00  0.00    -0.180 C  
HETATM    2  C   UNL     1      -5.646  15.608  68.486  1.00  0.00    -0.103 C  
ENDROOT
BRANCH   2   3
HETATM    3  C   UNL     1      -6.164  14.328  69.143  1.00  0.00    -0.099 C  
BRANCH   3   4
HETATM    4  C   UNL     1      -6.263  13.104  68.238  1.00  0.00    -0.092 C  
BRANCH   4   5
HETATM    5  C   UNL     1      -6.741  11.864  68.924  1.00  0.00    -0.095 A  
HETATM    6  N   UNL     1      -6.372  11.564  70.153  1.00  0.00    -0.161 NA 
HETATM    7  C   UNL     1      -7.033  10.424  70.481  1.00  0.00     0.112 A  
HETATM    8  C   UNL     1      -7.819   9.990  69.440  1.00  0.00    -0.141 A  
HETATM    9  N   UNL     1      -7.588  10.888  68.402  1.00  0.00    -0.098 NA 
BRANCH   8  10
HETATM   10  C   UNL     1      -8.744   8.934  69.352  1.00  0.00    -0.142 C  
HETATM   11  O   UNL     1      -9.265   5.413  69.290  1.00  0.00    -0.112 OA 
HETATM   12  C   UNL     1      -8.388   7.648  69.159  1.00  0.00    -0.131 C  
HETATM   13  C   UNL     1      -9.549   6.712  69.094  1.00  0.00    -0.135 C  
HETATM   14  O   UNL     1     -10.690   7.085  68.858  1.00  0.00    -0.216 OA 
BRANCH  12  15
HETATM   15  C   UNL     1      -6.982   7.146  68.966  1.00  0.00    -0.075 C  
BRANCH  15  16
HETATM   16  C   UNL     1      -6.537   6.891  67.549  1.00  0.00    -0.058 A  
HETATM   17  C   UNL     1      -6.100   7.085  65.266  1.00  0.00    -0.037 A  
HETATM   18  C   UNL     1      -6.437   7.757  66.477  1.00  0.00    -0.047 A  
HETATM   19  C   UNL     1      -5.885   5.741  65.465  1.00  0.00    -0.021 A  
HETATM   20  S   UNL     1      -6.084   5.295  67.102  1.00  0.00    -0.031 SA 
ENDBRANCH  15  16
ENDBRANCH  12  15
ENDBRANCH   8  10
BRANCH   9  21
HETATM   21  C   UNL     1      -7.944  10.706  66.986  1.00  0.00    -0.121 C  
BRANCH  21  22
HETATM   22  C   UNL     1      -9.156  11.491  66.526  1.00  0.00    -0.199 A  
HETATM   23  C   UNL     1      -9.055  12.490  65.547  1.00  0.00     0.395 A  
HETATM   24  C   UNL     1     -10.194  13.097  65.010  1.00  0.00    -0.296 A  
HETATM   25  C   UNL     1     -10.419  11.265  67.091  1.00  0.00    -0.259 A  
HETATM   26  O   UNL     1     -13.646  12.350  64.672  1.00  0.00    -0.441 OA 
HETATM   27  C   UNL     1     -11.566  11.862  66.558  1.00  0.00    -0.328 A  
HETATM   28  C   UNL     1     -11.457  12.726  65.467  1.00  0.00    -0.372 A  
HETATM   29  O   UNL     1     -12.703  14.370  64.275  1.00  0.00    -0.657 OA 
HETATM   30  C   UNL     1     -12.650  13.258  64.768  1.00  0.00    -0.337 C  
ENDBRANCH  21  22
ENDBRANCH   9  21
ENDBRANCH   4   5
ENDBRANCH   3   4
ENDBRANCH   2   3
TORSDOF 8
ENDMDL
MODEL      234
REMARK 921   NORMALIZED FREE ENERGY PREDICTED BY IDOCK:   -2.68 KCAL/MOL
REMARK 922        TOTAL FREE ENERGY PREDICTED BY IDOCK:   -6.06 KCAL/MOL
REMARK 923 INTER-LIGAND FREE ENERGY PREDICTED BY IDOCK:   -3.90 KCAL/MOL
REMARK 924 INTRA-LIGAND FREE ENERGY PREDICTED BY IDOCK:   -2.16 KCAL/MOL
REMARK 927      BINDING AFFINITY PREDICTED BY RF-SCORE:    0.00 PKD
ROOT
HETATM    1  C   UNL     1      -8.194   8.287  64.901  1.00  0.00    -0.154 C  
HETATM    2  C   UNL     1      -8.070   6.868  65.440  1.00  0.00    -0.133 C  
ENDROOT
BRANCH   2   3
HETATM    3  C   UNL     1      -6.632   6.370  65.290  1.00  0.00    -0.039 C  
BRANCH   3   4
HETATM    4  C   UNL     1      -5.606   7.000  66.227  1.00  0.00    -0.026 C  
BRANCH   4   5
HETATM    5  C   UNL     1      -5.880   6.782  67.681  1.00  0.00    -0.020 A  
HETATM    6  N   UNL     1      -6.159   5.588  68.165  1.00  0.00    -0.024 NA 
HETATM    7  C   UNL     1      -6.286   5.741  69.508  1.00  0.00    -0.040 A  
HETATM    8  C   UNL     1      -6.099   7.053  69.876  1.00  0.00    -0.024 A  
HETATM    9  N   UNL     1      -5.896   7.746  68.687  1.00  0.00    -0.030 NA 
BRANCH   8  10
HETATM   10  C   UNL     1      -6.035   7.661  71.143  1.00  0.00    -0.035 C  
HETATM   11  O   UNL     1      -7.675   8.308  74.236  1.00  0.00    -0.204 OA 
HETATM   12  C   UNL     1      -7.101   7.797  71.958  1.00  0.00    -0.069 C  
HETATM   13  C   UNL     1      -6.782   8.482  73.246  1.00  0.00    -0.044 C  
HETATM   14  O   UNL     1      -5.788   9.176  73.400  1.00  0.00    -0.241 OA 
BRANCH  12  15
HETATM   15  C   UNL     1      -8.510   7.372  71.639  1.00  0.00    -0.120 C  
BRANCH  15  16
HETATM   16  C   UNL     1      -8.867   5.934  71.913  1.00  0.00    -0.138 A  
HETATM   17  C   UNL     1      -8.905   3.747  72.723  1.00  0.00    -0.104 A  
HETATM   18  C   UNL     1      -8.413   5.073  72.895  1.00  0.00    -0.115 A  
HETATM   19  C   UNL     1      -9.772   3.652  71.660  1.00  0.00    -0.166 A  
HETATM   20  S   UNL     1      -9.995   5.153  70.877  1.00  0.00    -0.223 SA 
ENDBRANCH  15  16
ENDBRANCH  12  15
ENDBRANCH   8  10
BRANCH   9  21
HETATM   21  C   UNL     1      -5.949   9.205  68.500  1.00  0.00    -0.045 C  
BRANCH  21  22
HETATM   22  C   UNL     1      -7.333   9.767  68.244  1.00  0.00    -0.079 A  
HETATM   23  C   UNL     1      -8.465   9.256  68.895  1.00  0.00    -0.129 A  
HETATM   24  C   UNL     1      -9.710   9.879  68.781  1.00  0.00    -0.164 A  
HETATM   25  C   UNL     1      -7.532  10.801  67.318  1.00  0.00    -0.101 A  
HETATM   26  O   UNL     1     -10.963  13.095  67.954  1.00  0.00    -0.236 OA 
HETATM   27  C   UNL     1      -8.772  11.436  67.199  1.00  0.00    -0.155 A  
HETATM   28  C   UNL     1      -9.845  11.018  67.989  1.00  0.00    -0.183 A  
HETATM   29  O   UNL     1     -12.213  11.217  68.148  1.00  0.00    -0.612 OA 
HETATM   30  C   UNL     1     -11.129  11.755  68.016  1.00  0.00    -0.242 C  
ENDBRANCH  21  22
ENDBRANCH   9  21
ENDBRANCH   4   5
ENDBRANCH   3   4
ENDBRANCH   2   3
TORSDOF 8
ENDMDL
MODEL      235
REMARK 921   NORMALIZED FREE ENERGY PREDICTED BY IDOCK:   -2.56 KCAL/MOL
REMARK 922        TOTAL FREE ENERGY PREDICTED BY IDOCK:   -5.87 KCAL/MOL
REMARK 923 INTER-LIGAND FREE ENERGY PREDICTED BY IDOCK:   -5.07 KCAL/MOL
REMARK 924 INTRA-LIGAND FREE ENERGY PREDICTED BY IDOCK:   -0.81 KCAL/MOL
REMARK 927      BINDING AFFINITY PREDICTED BY RF-SCORE:    0.00 PKD
ROOT
HETATM    1  C   UNL     1      -5.964   9.657  65.579  1.00  0.00    -0.066 C  
HETATM    2  C   UNL     1      -5.615   9.452  67.048  1.00  0.00    -0.040 C  
ENDROOT
BRANCH   2   3
HETATM    3  C   UNL     1      -5.727  10.774  67.808  1.00  0.00    -0.043 C  
BRANCH   3   4
HETATM    4  C   UNL     1      -5.974  12.016  66.956  1.00  0.00    -0.135 C  
BRANCH   4   5
HETATM    5  C   UNL     1      -6.701  13.115  67.664  1.00  0.00    -0.160 A  
HETATM    6  N   UNL     1      -6.171  13.753  68.688  1.00  0.00    -0.083 NA 
HETATM    7  C   UNL     1      -7.061  14.716  69.040  1.00  0.00    -0.128 A  
HETATM    8  C   UNL     1      -8.175  14.677  68.235  1.00  0.00    -0.146 A  
HETATM    9  N   UNL     1      -7.976  13.600  67.378  1.00  0.00    -0.177 NA 
BRANCH   8  10
HETATM   10  C   UNL     1      -9.293  15.526  68.157  1.00  0.00    -0.197 C  
HETATM   11  O   UNL     1     -12.538  16.320  69.390  1.00  0.00     0.156 OA 
HETATM   12  C   UNL     1     -10.469  15.266  68.764  1.00  0.00    -0.237 C  
HETATM   13  C   UNL     1     -11.506  16.313  68.528  1.00  0.00    -0.272 C  
HETATM   14  O   UNL     1     -11.447  17.110  67.601  1.00  0.00     0.136 OA 
BRANCH  12  15
HETATM   15  C   UNL     1     -10.788  14.034  69.570  1.00  0.00    -0.076 C  
BRANCH  15  16
HETATM   16  C   UNL     1     -11.666  14.218  70.780  1.00  0.00    -0.207 A  
HETATM   17  C   UNL     1     -12.556  14.913  72.821  1.00  0.00    -0.477 A  
HETATM   18  C   UNL     1     -11.621  15.173  71.778  1.00  0.00    -0.478 A  
HETATM   19  C   UNL     1     -13.333  13.809  72.553  1.00  0.00    -0.552 A  
HETATM   20  S   UNL     1     -12.939  13.096  71.053  1.00  0.00    -0.059 SA 
ENDBRANCH  15  16
ENDBRANCH  12  15
ENDBRANCH   8  10
BRANCH   9  21
HETATM   21  C   UNL     1      -8.991  12.947  66.535  1.00  0.00    -0.078 C  
BRANCH  21  22
HETATM   22  C   UNL     1      -9.224  11.480  66.836  1.00  0.00    -0.181 A  
HETATM   23  C   UNL     1      -9.262  10.997  68.151  1.00  0.00    -0.165 A  
HETATM   24  C   UNL     1      -9.637   9.680  68.430  1.00  0.00    -0.154 A  
HETATM   25  C   UNL     1      -9.379  10.547  65.800  1.00  0.00    -0.229 A  
HETATM   26  O   UNL     1     -11.476   7.090  66.847  1.00  0.00    -0.011 OA 
HETATM   27  C   UNL     1      -9.760   9.229  66.066  1.00  0.00    -0.359 A  
HETATM   28  C   UNL     1      -9.960   8.816  67.385  1.00  0.00    -0.267 A  
HETATM   29  O   UNL     1     -10.187   6.837  68.691  1.00  0.00    -0.160 OA 
HETATM   30  C   UNL     1     -10.514   7.482  67.712  1.00  0.00    -0.223 C  
ENDBRANCH  21  22
ENDBRANCH   9  21
ENDBRANCH   4   5
ENDBRANCH   3   4
ENDBRANCH   2   3
TORSDOF 8
ENDMDL
MODEL      236
REMARK 921   NORMALIZED FREE ENERGY PREDICTED BY IDOCK:   -2.55 KCAL/MOL
REMARK 922        TOTAL FREE ENERGY PREDICTED BY IDOCK:   -5.85 KCAL/MOL
REMARK 923 INTER-LIGAND FREE ENERGY PREDICTED BY IDOCK:   -4.82 KCAL/MOL
REMARK 924 INTRA-LIGAND FREE ENERGY PREDICTED BY IDOCK:   -1.04 KCAL/MOL
REMARK 927      BINDING AFFINITY PREDICTED BY RF-SCORE:    0.00 PKD
ROOT
HETATM    1  C   UNL     1     -11.124  16.347  67.561  1.00  0.00    -0.109 C  
HETATM    2  C   UNL     1     -11.679  14.939  67.737  1.00  0.00    -0.340 C  
ENDROOT
BRANCH   2   3
HETATM    3  C   UNL     1     -10.633  13.903  67.322  1.00  0.00    -0.276 C  
BRANCH   3   4
HETATM    4  C   UNL     1     -11.089  12.448  67.342  1.00  0.00    -0.320 C  
BRANCH   4   5
HETATM    5  C   UNL     1     -10.303  11.565  68.259  1.00  0.00    -0.197 A  
HETATM    6  N   UNL     1     -10.864  10.943  69.276  1.00  0.00    -0.227 NA 
HETATM    7  C   UNL     1      -9.890  10.190  69.847  1.00  0.00    -0.177 A  
HETATM    8  C   UNL     1      -8.692  10.350  69.190  1.00  0.00    -0.166 A  
HETATM    9  N   UNL     1      -8.939  11.290  68.194  1.00  0.00    -0.159 NA 
BRANCH   8  10
HETATM   10  C   UNL     1      -7.451   9.708  69.353  1.00  0.00    -0.093 C  
HETATM   11  O   UNL     1      -5.161   7.273  68.129  1.00  0.00    -0.021 OA 
HETATM   12  C   UNL     1      -7.088   8.605  68.667  1.00  0.00    -0.068 C  
HETATM   13  C   UNL     1      -5.727   8.106  69.021  1.00  0.00    -0.035 C  
HETATM   14  O   UNL     1      -5.157   8.408  70.059  1.00  0.00    -0.023 OA 
BRANCH  12  15
HETATM   15  C   UNL     1      -7.945   7.870  67.671  1.00  0.00    -0.124 C  
BRANCH  15  16
HETATM   16  C   UNL     1      -8.935   6.877  68.223  1.00  0.00    -0.124 A  
HETATM   17  C   UNL     1     -10.866   5.844  69.024  1.00  0.00    -0.383 A  
HETATM   18  C   UNL     1     -10.313   6.943  68.306  1.00  0.00    -0.220 A  
HETATM   19  C   UNL     1      -9.903   4.940  69.407  1.00  0.00    -0.211 A  
HETATM   20  S   UNL     1      -8.342   5.411  68.898  1.00  0.00    -0.100 SA 
ENDBRANCH  15  16
ENDBRANCH  12  15
ENDBRANCH   8  10
BRANCH   9  21
HETATM   21  C   UNL     1      -7.932  12.030  67.415  1.00  0.00    -0.165 C  
BRANCH  21  22
HETATM   22  C   UNL     1      -7.559  13.386  67.978  1.00  0.00    -0.143 A  
HETATM   23  C   UNL     1      -7.067  13.530  69.283  1.00  0.00     0.038 A  
HETATM   24  C   UNL     1      -6.573  14.754  69.742  1.00  0.00    -0.169 A  
HETATM   25  C   UNL     1      -7.724  14.553  67.218  1.00  0.00    -0.177 A  
HETATM   26  O   UNL     1      -5.274  17.744  68.339  1.00  0.00    -0.146 OA 
HETATM   27  C   UNL     1      -7.228  15.782  67.663  1.00  0.00    -0.189 A  
HETATM   28  C   UNL     1      -6.586  15.865  68.900  1.00  0.00    -0.126 A  
HETATM   29  O   UNL     1      -5.865  17.468  70.508  1.00  0.00    -0.158 OA 
HETATM   30  C   UNL     1      -5.907  17.103  69.347  1.00  0.00    -0.212 C  
ENDBRANCH  21  22
ENDBRANCH   9  21
ENDBRANCH   4   5
ENDBRANCH   3   4
ENDBRANCH   2   3
TORSDOF 8
ENDMDL
MODEL      237
REMARK 921   NORMALIZED FREE ENERGY PREDICTED BY IDOCK:   -2.49 KCAL/MOL
REMARK 922        TOTAL FREE ENERGY PREDICTED BY IDOCK:   -5.77 KCAL/MOL
REMARK 923 INTER-LIGAND FREE ENERGY PREDICTED BY IDOCK:   -6.00 KCAL/MOL
REMARK 924 INTRA-LIGAND FREE ENERGY PREDICTED BY IDOCK:    0.23 KCAL/MOL
REMARK 927      BINDING AFFINITY PREDICTED BY RF-SCORE:    0.00 PKD
ROOT
HETATM    1  C   UNL     1     -11.068  15.541  70.706  1.00  0.00    -0.383 C  
HETATM    2  C   UNL     1     -12.427  15.096  70.182  1.00  0.00    -0.361 C  
ENDROOT
BRANCH   2   3
HETATM    3  C   UNL     1     -12.304  14.613  68.736  1.00  0.00    -0.041 C  
BRANCH   3   4
HETATM    4  C   UNL     1     -10.885  14.370  68.231  1.00  0.00    -0.250 C  
BRANCH   4   5
HETATM    5  C   UNL     1     -10.393  12.970  68.419  1.00  0.00    -0.252 A  
HETATM    6  N   UNL     1     -11.133  12.044  68.996  1.00  0.00    -0.238 NA 
HETATM    7  C   UNL     1     -10.414  10.894  68.944  1.00  0.00    -0.203 A  
HETATM    8  C   UNL     1      -9.197  11.099  68.337  1.00  0.00    -0.175 A  
HETATM    9  N   UNL     1      -9.151  12.459  68.048  1.00  0.00    -0.190 NA 
BRANCH   8  10
HETATM   10  C   UNL     1      -8.179  10.199  67.973  1.00  0.00    -0.113 C  
HETATM   11  O   UNL     1      -5.949   7.626  69.013  1.00  0.00    -0.032 OA 
HETATM   12  C   UNL     1      -7.453   9.496  68.866  1.00  0.00    -0.074 C  
HETATM   13  C   UNL     1      -6.427   8.614  68.236  1.00  0.00    -0.060 C  
HETATM   14  O   UNL     1      -6.020   8.777  67.094  1.00  0.00    -0.051 OA 
BRANCH  12  15
HETATM   15  C   UNL     1      -7.576   9.587  70.364  1.00  0.00    -0.169 C  
BRANCH  15  16
HETATM   16  C   UNL     1      -8.410   8.533  71.045  1.00  0.00    -0.147 A  
HETATM   17  C   UNL     1      -9.280   6.507  71.806  1.00  0.00    -0.149 A  
HETATM   18  C   UNL     1      -8.170   7.183  71.222  1.00  0.00    -0.108 A  
HETATM   19  C   UNL     1     -10.303   7.372  72.120  1.00  0.00    -0.199 A  
HETATM   20  S   UNL     1      -9.925   8.987  71.717  1.00  0.00    -0.190 SA 
ENDBRANCH  15  16
ENDBRANCH  12  15
ENDBRANCH   8  10
BRANCH   9  21
HETATM   21  C   UNL     1      -7.959  13.239  67.678  1.00  0.00    -0.176 C  
BRANCH  21  22
HETATM   22  C   UNL     1      -8.156  14.742  67.668  1.00  0.00    -0.183 A  
HETATM   23  C   UNL     1      -8.561  15.421  66.510  1.00  0.00    -0.294 A  
HETATM   24  C   UNL     1      -8.897  16.777  66.545  1.00  0.00    -0.311 A  
HETATM   25  C   UNL     1      -7.908  15.510  68.814  1.00  0.00    -0.160 A  
HETATM   26  O   UNL     1      -9.943  19.154  68.964  1.00  0.00    -0.416 OA 
HETATM   27  C   UNL     1      -8.247  16.865  68.863  1.00  0.00    -0.218 A  
HETATM   28  C   UNL     1      -8.811  17.481  67.744  1.00  0.00    -0.241 A  
HETATM   29  O   UNL     1      -9.272  19.643  66.857  1.00  0.00    -0.318 OA 
HETATM   30  C   UNL     1      -9.330  18.867  67.793  1.00  0.00    -0.293 C  
ENDBRANCH  21  22
ENDBRANCH   9  21
ENDBRANCH   4   5
ENDBRANCH   3   4
ENDBRANCH   2   3
TORSDOF 8
ENDMDL
MODEL      238
REMARK 921   NORMALIZED FREE ENERGY PREDICTED BY IDOCK:   -2.48 KCAL/MOL
REMARK 922        TOTAL FREE ENERGY PREDICTED BY IDOCK:   -5.75 KCAL/MOL
REMARK 923 INTER-LIGAND FREE ENERGY PREDICTED BY IDOCK:   -4.56 KCAL/MOL
REMARK 924 INTRA-LIGAND FREE ENERGY PREDICTED BY IDOCK:   -1.19 KCAL/MOL
REMARK 927      BINDING AFFINITY PREDICTED BY RF-SCORE:    0.00 PKD
ROOT
HETATM    1  C   UNL     1     -12.500  12.474  70.370  1.00  0.00    -0.215 C  
HETATM    2  C   UNL     1     -12.533  11.053  70.916  1.00  0.00    -0.509 C  
ENDROOT
BRANCH   2   3
HETATM    3  C   UNL     1     -11.823  10.100  69.954  1.00  0.00    -0.206 C  
BRANCH   3   4
HETATM    4  C   UNL     1     -10.692   9.267  70.550  1.00  0.00    -0.313 C  
BRANCH   4   5
HETATM    5  C   UNL     1     -10.007   8.365  69.573  1.00  0.00    -0.190 A  
HETATM    6  N   UNL     1     -10.618   7.324  69.041  1.00  0.00    -0.213 NA 
HETATM    7  C   UNL     1      -9.739   6.774  68.165  1.00  0.00    -0.129 A  
HETATM    8  C   UNL     1      -8.552   7.468  68.152  1.00  0.00    -0.123 A  
HETATM    9  N   UNL     1      -8.697   8.467  69.110  1.00  0.00    -0.140 NA 
BRANCH   8  10
HETATM   10  C   UNL     1      -7.408   7.335  67.346  1.00  0.00    -0.092 C  
HETATM   11  O   UNL     1      -5.165   8.888  65.058  1.00  0.00    -0.037 OA 
HETATM   12  C   UNL     1      -7.036   8.248  66.425  1.00  0.00    -0.067 C  
HETATM   13  C   UNL     1      -5.790   7.880  65.690  1.00  0.00    -0.038 C  
HETATM   14  O   UNL     1      -5.363   6.735  65.640  1.00  0.00    -0.024 OA 
BRANCH  12  15
HETATM   15  C   UNL     1      -7.788   9.508  66.085  1.00  0.00    -0.100 C  
BRANCH  15  16
HETATM   16  C   UNL     1      -8.447   9.564  64.731  1.00  0.00    -0.159 A  
HETATM   17  C   UNL     1      -8.928   9.345  62.459  1.00  0.00    -0.241 A  
HETATM   18  C   UNL     1      -8.129   8.910  63.556  1.00  0.00    -0.168 A  
HETATM   19  C   UNL     1      -9.876  10.263  62.845  1.00  0.00    -0.008 A  
HETATM   20  S   UNL     1      -9.806  10.595  64.518  1.00  0.00    -0.349 SA 
ENDBRANCH  15  16
ENDBRANCH  12  15
ENDBRANCH   8  10
BRANCH   9  21
HETATM   21  C   UNL     1      -7.623   9.284  69.698  1.00  0.00    -0.084 C  
BRANCH  21  22
HETATM   22  C   UNL     1      -7.625  10.740  69.280  1.00  0.00    -0.129 A  
HETATM   23  C   UNL     1      -8.665  11.282  68.511  1.00  0.00    -0.156 A  
HETATM   24  C   UNL     1      -8.746  12.655  68.265  1.00  0.00    -0.169 A  
HETATM   25  C   UNL     1      -6.564  11.591  69.623  1.00  0.00    -0.112 A  
HETATM   26  O   UNL     1      -7.531  15.653  69.725  1.00  0.00    -0.175 OA 
HETATM   27  C   UNL     1      -6.636  12.967  69.388  1.00  0.00    -0.063 A  
HETATM   28  C   UNL     1      -7.766  13.508  68.770  1.00  0.00    -0.044 A  
HETATM   29  O   UNL     1      -8.513  15.496  67.691  1.00  0.00    -0.157 OA 
HETATM   30  C   UNL     1      -7.962  14.970  68.641  1.00  0.00    -0.153 C  
ENDBRANCH  21  22
ENDBRANCH   9  21
ENDBRANCH   4   5
ENDBRANCH   3   4
ENDBRANCH   2   3
TORSDOF 8
ENDMDL
MODEL      239
REMARK 921   NORMALIZED FREE ENERGY PREDICTED BY IDOCK:   -2.44 KCAL/MOL
REMARK 922        TOTAL FREE ENERGY PREDICTED BY IDOCK:   -5.69 KCAL/MOL
REMARK 923 INTER-LIGAND FREE ENERGY PREDICTED BY IDOCK:   -5.15 KCAL/MOL
REMARK 924 INTRA-LIGAND FREE ENERGY PREDICTED BY IDOCK:   -0.54 KCAL/MOL
REMARK 927      BINDING AFFINITY PREDICTED BY RF-SCORE:    0.00 PKD
ROOT
HETATM    1  C   UNL     1      -6.848  14.672  68.197  1.00  0.00    -0.128 C  
HETATM    2  C   UNL     1      -5.850  13.786  67.464  1.00  0.00     0.056 C  
ENDROOT
BRANCH   2   3
HETATM    3  C   UNL     1      -6.241  12.315  67.610  1.00  0.00    -0.120 C  
BRANCH   3   4
HETATM    4  C   UNL     1      -7.541  11.898  66.929  1.00  0.00    -0.093 C  
BRANCH   4   5
HETATM    5  C   UNL     1      -8.745  11.941  67.816  1.00  0.00    -0.158 A  
HETATM    6  N   UNL     1      -9.679  12.862  67.677  1.00  0.00    -0.207 NA 
HETATM    7  C   UNL     1     -10.641  12.569  68.589  1.00  0.00    -0.216 A  
HETATM    8  C   UNL     1     -10.304  11.456  69.323  1.00  0.00    -0.024 A  
HETATM    9  N   UNL     1      -9.045  11.079  68.868  1.00  0.00    -0.158 NA 
BRANCH   8  10
HETATM   10  C   UNL     1     -11.022  10.731  70.292  1.00  0.00    -0.160 C  
HETATM   11  O   UNL     1     -14.118  10.258  71.985  1.00  0.00     0.085 OA 
HETATM   12  C   UNL     1     -12.236  11.101  70.749  1.00  0.00    -0.484 C  
HETATM   13  C   UNL     1     -12.792  10.174  71.778  1.00  0.00    -0.452 C  
HETATM   14  O   UNL     1     -12.097   9.397  72.417  1.00  0.00    -0.214 OA 
BRANCH  12  15
HETATM   15  C   UNL     1     -12.987  12.341  70.342  1.00  0.00     0.348 C  
BRANCH  15  16
HETATM   16  C   UNL     1     -12.912  13.521  71.277  1.00  0.00    -0.304 A  
HETATM   17  C   UNL     1     -13.055  14.922  73.136  1.00  0.00    -0.615 A  
HETATM   18  C   UNL     1     -13.071  13.583  72.649  1.00  0.00    -0.399 A  
HETATM   19  C   UNL     1     -12.815  15.833  72.134  1.00  0.00    -0.437 A  
HETATM   20  S   UNL     1     -12.607  15.078  70.616  1.00  0.00    -0.387 SA 
ENDBRANCH  15  16
ENDBRANCH  12  15
ENDBRANCH   8  10
BRANCH   9  21
HETATM   21  C   UNL     1      -8.116  10.144  69.525  1.00  0.00    -0.170 C  
BRANCH  21  22
HETATM   22  C   UNL     1      -8.176   8.718  69.014  1.00  0.00    -0.117 A  
HETATM   23  C   UNL     1      -8.997   8.359  67.936  1.00  0.00    -0.138 A  
HETATM   24  C   UNL     1      -8.929   7.085  67.366  1.00  0.00    -0.117 A  
HETATM   25  C   UNL     1      -7.432   7.700  69.627  1.00  0.00    -0.091 A  
HETATM   26  O   UNL     1      -6.593   4.420  67.183  1.00  0.00    -0.044 OA 
HETATM   27  C   UNL     1      -7.351   6.424  69.063  1.00  0.00    -0.089 A  
HETATM   28  C   UNL     1      -8.047   6.140  67.886  1.00  0.00    -0.114 A  
HETATM   29  O   UNL     1      -8.767   4.296  66.561  1.00  0.00    -0.112 OA 
HETATM   30  C   UNL     1      -7.872   4.859  67.164  1.00  0.00    -0.095 C  
ENDBRANCH  21  22
ENDBRANCH   9  21
ENDBRANCH   4   5
ENDBRANCH   3   4
ENDBRANCH   2   3
TORSDOF 8
ENDMDL
MODEL      240
REMARK 921   NORMALIZED FREE ENERGY PREDICTED BY IDOCK:   -2.39 KCAL/MOL
REMARK 922        TOTAL FREE ENERGY PREDICTED BY IDOCK:   -5.62 KCAL/MOL
REMARK 923 INTER-LIGAND FREE ENERGY PREDICTED BY IDOCK:   -4.03 KCAL/MOL
REMARK 924 INTRA-LIGAND FREE ENERGY PREDICTED BY IDOCK:   -1.59 KCAL/MOL
REMARK 927      BINDING AFFINITY PREDICTED BY RF-SCORE:    0.00 PKD
ROOT
HETATM    1  C   UNL     1     -11.733   6.782  70.285  1.00  0.00    -0.397 C  
HETATM    2  C   UNL     1     -10.693   6.460  69.220  1.00  0.00    -0.349 C  
ENDROOT
BRANCH   2   3
HETATM    3  C   UNL     1     -10.060   5.095  69.495  1.00  0.00    -0.316 C  
BRANCH   3   4
HETATM    4  C   UNL     1      -8.611   4.928  69.047  1.00  0.00    -0.093 C  
BRANCH   4   5
HETATM    5  C   UNL     1      -8.339   5.385  67.649  1.00  0.00    -0.099 A  
HETATM    6  N   UNL     1      -8.909   4.812  66.607  1.00  0.00    -0.111 NA 
HETATM    7  C   UNL     1      -8.495   5.507  65.517  1.00  0.00    -0.144 A  
HETATM    8  C   UNL     1      -7.642   6.525  65.873  1.00  0.00    -0.087 A  
HETATM    9  N   UNL     1      -7.487   6.413  67.251  1.00  0.00    -0.086 NA 
BRANCH   8  10
HETATM   10  C   UNL     1      -7.053   7.551  65.113  1.00  0.00    -0.063 C  
HETATM   11  O   UNL     1      -7.407  10.793  63.685  1.00  0.00     0.120 OA 
HETATM   12  C   UNL     1      -7.738   8.610  64.636  1.00  0.00    -0.121 C  
HETATM   13  C   UNL     1      -6.896   9.561  63.852  1.00  0.00    -0.105 C  
HETATM   14  O   UNL     1      -5.817   9.249  63.369  1.00  0.00    -0.085 OA 
BRANCH  12  15
HETATM   15  C   UNL     1      -9.218   8.842  64.795  1.00  0.00     0.103 C  
BRANCH  15  16
HETATM   16  C   UNL     1      -9.663   9.586  66.027  1.00  0.00    -0.272 A  
HETATM   17  C   UNL     1     -10.521  10.143  68.123  1.00  0.00    -0.243 A  
HETATM   18  C   UNL     1     -10.037   9.110  67.270  1.00  0.00    -0.295 A  
HETATM   19  C   UNL     1     -10.437  11.382  67.532  1.00  0.00    -0.201 A  
HETATM   20  S   UNL     1      -9.775  11.299  65.960  1.00  0.00    -0.231 SA 
ENDBRANCH  15  16
ENDBRANCH  12  15
ENDBRANCH   8  10
BRANCH   9  21
HETATM   21  C   UNL     1      -6.453   7.061  68.076  1.00  0.00    -0.047 C  
BRANCH  21  22
HETATM   22  C   UNL     1      -6.777   7.150  69.553  1.00  0.00    -0.049 A  
HETATM   23  C   UNL     1      -7.661   8.115  70.055  1.00  0.00    -0.086 A  
HETATM   24  C   UNL     1      -8.081   8.092  71.387  1.00  0.00    -0.118 A  
HETATM   25  C   UNL     1      -6.174   6.284  70.477  1.00  0.00    -0.035 A  
HETATM   26  O   UNL     1      -8.317   5.721  74.017  1.00  0.00    -0.109 OA 
HETATM   27  C   UNL     1      -6.590   6.247  71.811  1.00  0.00    -0.058 A  
HETATM   28  C   UNL     1      -7.600   7.107  72.248  1.00  0.00    -0.089 A  
HETATM   29  O   UNL     1      -8.568   7.960  74.251  1.00  0.00    -0.248 OA 
HETATM   30  C   UNL     1      -8.185   7.002  73.604  1.00  0.00    -0.113 C  
ENDBRANCH  21  22
ENDBRANCH   9  21
ENDBRANCH   4   5
ENDBRANCH   3   4
ENDBRANCH   2   3
TORSDOF 8
ENDMDL
MODEL      241
REMARK 921   NORMALIZED FREE ENERGY PREDICTED BY IDOCK:   -2.29 KCAL/MOL
REMARK 922        TOTAL FREE ENERGY PREDICTED BY IDOCK:   -5.47 KCAL/MOL
REMARK 923 INTER-LIGAND FREE ENERGY PREDICTED BY IDOCK:   -5.41 KCAL/MOL
REMARK 924 INTRA-LIGAND FREE ENERGY PREDICTED BY IDOCK:   -0.06 KCAL/MOL
REMARK 927      BINDING AFFINITY PREDICTED BY RF-SCORE:    0.00 PKD
ROOT
HETATM    1  C   UNL     1      -5.258  14.324  69.434  1.00  0.00    -0.086 C  
HETATM    2  C   UNL     1      -5.182  12.825  69.173  1.00  0.00    -0.069 C  
ENDROOT
BRANCH   2   3
HETATM    3  C   UNL     1      -5.834  12.488  67.832  1.00  0.00    -0.100 C  
BRANCH   3   4
HETATM    4  C   UNL     1      -7.331  12.196  67.870  1.00  0.00    -0.108 C  
BRANCH   4   5
HETATM    5  C   UNL     1      -7.706  10.996  68.680  1.00  0.00    -0.132 A  
HETATM    6  N   UNL     1      -7.269  10.823  69.911  1.00  0.00    -0.111 NA 
HETATM    7  C   UNL     1      -7.847   9.681  70.364  1.00  0.00    -0.159 A  
HETATM    8  C   UNL     1      -8.650   9.117  69.401  1.00  0.00    -0.138 A  
HETATM    9  N   UNL     1      -8.515   9.933  68.282  1.00  0.00    -0.110 NA 
BRANCH   8  10
HETATM   10  C   UNL     1      -9.513   8.008  69.445  1.00  0.00    -0.159 C  
HETATM   11  O   UNL     1     -10.076   4.617  68.519  1.00  0.00    -0.110 OA 
HETATM   12  C   UNL     1      -9.338   6.897  68.701  1.00  0.00    -0.135 C  
HETATM   13  C   UNL     1     -10.390   5.861  68.918  1.00  0.00    -0.228 C  
HETATM   14  O   UNL     1     -11.481   6.116  69.408  1.00  0.00    -0.423 OA 
BRANCH  12  15
HETATM   15  C   UNL     1      -8.241   6.682  67.691  1.00  0.00    -0.122 C  
BRANCH  15  16
HETATM   16  C   UNL     1      -7.116   5.763  68.090  1.00  0.00    -0.074 A  
HETATM   17  C   UNL     1      -5.333   4.260  68.069  1.00  0.00    -0.015 A  
HETATM   18  C   UNL     1      -6.130   5.174  67.322  1.00  0.00    -0.030 A  
HETATM   19  C   UNL     1      -5.690   4.231  69.397  1.00  0.00    -0.017 A  
HETATM   20  S   UNL     1      -6.974   5.303  69.740  1.00  0.00    -0.059 SA 
ENDBRANCH  15  16
ENDBRANCH  12  15
ENDBRANCH   8  10
BRANCH   9  21
HETATM   21  C   UNL     1      -8.919   9.609  66.904  1.00  0.00    -0.134 C  
BRANCH  21  22
HETATM   22  C   UNL     1      -9.831  10.627  66.249  1.00  0.00    -0.263 A  
HETATM   23  C   UNL     1     -11.036  11.024  66.846  1.00  0.00    -0.280 A  
HETATM   24  C   UNL     1     -11.792  12.077  66.323  1.00  0.00    -0.225 A  
HETATM   25  C   UNL     1      -9.512  11.185  65.003  1.00  0.00    -0.259 A  
HETATM   26  O   UNL     1     -11.259  14.901  64.241  1.00  0.00    -0.198 OA 
HETATM   27  C   UNL     1     -10.257  12.243  64.473  1.00  0.00    -0.322 A  
HETATM   28  C   UNL     1     -11.359  12.736  65.174  1.00  0.00    -0.346 A  
HETATM   29  O   UNL     1     -13.284  14.107  64.871  1.00  0.00    -0.579 OA 
HETATM   30  C   UNL     1     -12.084  13.952  64.737  1.00  0.00    -0.419 C  
ENDBRANCH  21  22
ENDBRANCH   9  21
ENDBRANCH   4   5
ENDBRANCH   3   4
ENDBRANCH   2   3
TORSDOF 8
ENDMDL
MODEL      242
REMARK 921   NORMALIZED FREE ENERGY PREDICTED BY IDOCK:   -2.18 KCAL/MOL
REMARK 922        TOTAL FREE ENERGY PREDICTED BY IDOCK:   -5.32 KCAL/MOL
REMARK 923 INTER-LIGAND FREE ENERGY PREDICTED BY IDOCK:   -4.82 KCAL/MOL
REMARK 924 INTRA-LIGAND FREE ENERGY PREDICTED BY IDOCK:   -0.50 KCAL/MOL
REMARK 927      BINDING AFFINITY PREDICTED BY RF-SCORE:    0.00 PKD
ROOT
HETATM    1  C   UNL     1     -12.579  10.252  70.045  1.00  0.00    -0.059 C  
HETATM    2  C   UNL     1     -11.313  10.213  70.892  1.00  0.00    -0.420 C  
ENDROOT
BRANCH   2   3
HETATM    3  C   UNL     1     -11.145   8.832  71.528  1.00  0.00    -0.377 C  
BRANCH   3   4
HETATM    4  C   UNL     1     -11.785   7.668  70.779  1.00  0.00    -0.260 C  
BRANCH   4   5
HETATM    5  C   UNL     1     -10.808   6.727  70.148  1.00  0.00    -0.266 A  
HETATM    6  N   UNL     1     -10.913   5.420  70.287  1.00  0.00    -0.152 NA 
HETATM    7  C   UNL     1      -9.916   4.876  69.544  1.00  0.00    -0.225 A  
HETATM    8  C   UNL     1      -9.162   5.854  68.937  1.00  0.00    -0.119 A  
HETATM    9  N   UNL     1      -9.698   7.061  69.374  1.00  0.00    -0.158 NA 
BRANCH   8  10
HETATM   10  C   UNL     1      -8.109   5.771  68.008  1.00  0.00    -0.104 C  
HETATM   11  O   UNL     1      -5.144   4.082  66.991  1.00  0.00    -0.007 OA 
HETATM   12  C   UNL     1      -7.018   4.999  68.187  1.00  0.00    -0.061 C  
HETATM   13  C   UNL     1      -6.037   5.085  67.065  1.00  0.00    -0.031 C  
HETATM   14  O   UNL     1      -6.019   6.012  66.268  1.00  0.00    -0.026 OA 
BRANCH  12  15
HETATM   15  C   UNL     1      -6.731   4.153  69.399  1.00  0.00    -0.044 C  
BRANCH  15  16
HETATM   16  C   UNL     1      -6.192   4.862  70.614  1.00  0.00    -0.019 A  
HETATM   17  C   UNL     1      -5.778   5.573  72.797  1.00  0.00    -0.023 A  
HETATM   18  C   UNL     1      -6.338   4.567  71.957  1.00  0.00    -0.022 A  
HETATM   19  C   UNL     1      -5.163   6.567  72.072  1.00  0.00    -0.027 A  
HETATM   20  S   UNL     1      -5.256   6.286  70.390  1.00  0.00    -0.014 SA 
ENDBRANCH  15  16
ENDBRANCH  12  15
ENDBRANCH   8  10
BRANCH   9  21
HETATM   21  C   UNL     1      -9.077   8.391  69.264  1.00  0.00    -0.150 C  
BRANCH  21  22
HETATM   22  C   UNL     1      -9.295   9.090  67.937  1.00  0.00    -0.155 A  
HETATM   23  C   UNL     1      -9.129   8.419  66.717  1.00  0.00    -0.192 A  
HETATM   24  C   UNL     1      -9.486   9.016  65.506  1.00  0.00    -0.220 A  
HETATM   25  C   UNL     1      -9.641  10.448  67.885  1.00  0.00    -0.157 A  
HETATM   26  O   UNL     1     -11.623  11.626  64.403  1.00  0.00    -0.287 OA 
HETATM   27  C   UNL     1     -10.006  11.055  66.680  1.00  0.00    -0.249 A  
HETATM   28  C   UNL     1      -9.997  10.313  65.498  1.00  0.00    -0.364 A  
HETATM   29  O   UNL     1     -10.056  10.597  63.133  1.00  0.00    -0.297 OA 
HETATM   30  C   UNL     1     -10.523  10.861  64.226  1.00  0.00    -0.335 C  
ENDBRANCH  21  22
ENDBRANCH   9  21
ENDBRANCH   4   5
ENDBRANCH   3   4
ENDBRANCH   2   3
TORSDOF 8
ENDMDL
MODEL      243
REMARK 921   NORMALIZED FREE ENERGY PREDICTED BY IDOCK:   -2.18 KCAL/MOL
REMARK 922        TOTAL FREE ENERGY PREDICTED BY IDOCK:   -5.32 KCAL/MOL
REMARK 923 INTER-LIGAND FREE ENERGY PREDICTED BY IDOCK:   -5.21 KCAL/MOL
REMARK 924 INTRA-LIGAND FREE ENERGY PREDICTED BY IDOCK:   -0.11 KCAL/MOL
REMARK 927      BINDING AFFINITY PREDICTED BY RF-SCORE:    0.00 PKD
ROOT
HETATM    1  C   UNL     1      -8.787  13.650  68.370  1.00  0.00    -0.152 C  
HETATM    2  C   UNL     1      -9.973  14.542  68.025  1.00  0.00    -0.222 C  
ENDROOT
BRANCH   2   3
HETATM    3  C   UNL     1     -10.387  14.330  66.568  1.00  0.00    -0.278 C  
BRANCH   3   4
HETATM    4  C   UNL     1      -9.925  13.027  65.925  1.00  0.00    -0.270 C  
BRANCH   4   5
HETATM    5  C   UNL     1     -10.363  11.792  66.647  1.00  0.00    -0.218 A  
HETATM    6  N   UNL     1     -11.584  11.661  67.124  1.00  0.00    -0.547 NA 
HETATM    7  C   UNL     1     -11.655  10.413  67.653  1.00  0.00     0.353 A  
HETATM    8  C   UNL     1     -10.458   9.750  67.520  1.00  0.00    -0.251 A  
HETATM    9  N   UNL     1      -9.594  10.663  66.922  1.00  0.00    -0.168 NA 
BRANCH   8  10
HETATM   10  C   UNL     1     -10.092   8.426  67.818  1.00  0.00    -0.263 C  
HETATM   11  O   UNL     1     -10.313   5.705  70.104  1.00  0.00    -0.224 OA 
HETATM   12  C   UNL     1     -10.290   7.852  69.023  1.00  0.00    -0.223 C  
HETATM   13  C   UNL     1      -9.811   6.440  69.097  1.00  0.00    -0.140 C  
HETATM   14  O   UNL     1      -8.999   5.973  68.311  1.00  0.00    -0.115 OA 
BRANCH  12  15
HETATM   15  C   UNL     1     -10.881   8.530  70.231  1.00  0.00    -0.249 C  
BRANCH  15  16
HETATM   16  C   UNL     1     -10.201   8.283  71.553  1.00  0.00    -0.214 A  
HETATM   17  C   UNL     1      -8.634   8.113  73.272  1.00  0.00    -0.308 A  
HETATM   18  C   UNL     1      -8.951   8.667  71.998  1.00  0.00    -0.286 A  
HETATM   19  C   UNL     1      -9.678   7.382  73.789  1.00  0.00    -0.280 A  
HETATM   20  S   UNL     1     -11.031   7.368  72.748  1.00  0.00    -0.359 SA 
ENDBRANCH  15  16
ENDBRANCH  12  15
ENDBRANCH   8  10
BRANCH   9  21
HETATM   21  C   UNL     1      -8.128  10.561  66.838  1.00  0.00    -0.120 C  
BRANCH  21  22
HETATM   22  C   UNL     1      -7.614   9.572  65.811  1.00  0.00    -0.100 A  
HETATM   23  C   UNL     1      -6.508   8.750  66.072  1.00  0.00    -0.057 A  
HETATM   24  C   UNL     1      -6.138   7.730  65.192  1.00  0.00    -0.038 A  
HETATM   25  C   UNL     1      -8.211   9.469  64.547  1.00  0.00    -0.152 A  
HETATM   26  O   UNL     1      -7.663   5.794  62.638  1.00  0.00    -0.068 OA 
HETATM   27  C   UNL     1      -7.854   8.449  63.660  1.00  0.00    -0.152 A  
HETATM   28  C   UNL     1      -6.862   7.533  64.017  1.00  0.00    -0.056 A  
HETATM   29  O   UNL     1      -5.441   5.877  63.062  1.00  0.00    -0.017 OA 
HETATM   30  C   UNL     1      -6.557   6.346  63.185  1.00  0.00    -0.033 C  
ENDBRANCH  21  22
ENDBRANCH   9  21
ENDBRANCH   4   5
ENDBRANCH   3   4
ENDBRANCH   2   3
TORSDOF 8
ENDMDL
MODEL      244
REMARK 921   NORMALIZED FREE ENERGY PREDICTED BY IDOCK:   -2.13 KCAL/MOL
REMARK 922        TOTAL FREE ENERGY PREDICTED BY IDOCK:   -5.24 KCAL/MOL
REMARK 923 INTER-LIGAND FREE ENERGY PREDICTED BY IDOCK:   -4.70 KCAL/MOL
REMARK 924 INTRA-LIGAND FREE ENERGY PREDICTED BY IDOCK:   -0.54 KCAL/MOL
REMARK 927      BINDING AFFINITY PREDICTED BY RF-SCORE:    0.00 PKD
ROOT
HETATM    1  C   UNL     1     -12.263  14.785  64.321  1.00  0.00    -0.402 C  
HETATM    2  C   UNL     1     -12.394  13.504  65.135  1.00  0.00    -0.488 C  
ENDROOT
BRANCH   2   3
HETATM    3  C   UNL     1     -11.010  12.966  65.500  1.00  0.00    -0.301 C  
BRANCH   3   4
HETATM    4  C   UNL     1     -10.931  12.134  66.776  1.00  0.00    -0.325 C  
BRANCH   4   5
HETATM    5  C   UNL     1     -10.171  10.853  66.634  1.00  0.00    -0.234 A  
HETATM    6  N   UNL     1     -10.404  10.013  65.646  1.00  0.00    -0.184 NA 
HETATM    7  C   UNL     1      -9.506   9.004  65.783  1.00  0.00    -0.236 A  
HETATM    8  C   UNL     1      -8.703   9.203  66.882  1.00  0.00    -0.123 A  
HETATM    9  N   UNL     1      -9.170  10.372  67.475  1.00  0.00    -0.144 NA 
BRANCH   8  10
HETATM   10  C   UNL     1      -7.586   8.493  67.356  1.00  0.00    -0.097 C  
HETATM   11  O   UNL     1      -5.947   5.346  67.647  1.00  0.00    -0.023 OA 
HETATM   12  C   UNL     1      -7.519   7.146  67.386  1.00  0.00    -0.100 C  
HETATM   13  C   UNL     1      -6.233   6.626  67.939  1.00  0.00    -0.036 C  
HETATM   14  O   UNL     1      -5.487   7.302  68.633  1.00  0.00    -0.020 OA 
BRANCH  12  15
HETATM   15  C   UNL     1      -8.616   6.203  66.969  1.00  0.00    -0.108 C  
BRANCH  15  16
HETATM   16  C   UNL     1      -8.331   5.300  65.797  1.00  0.00    -0.123 A  
HETATM   17  C   UNL     1      -7.691   3.506  64.452  1.00  0.00    -0.077 A  
HETATM   18  C   UNL     1      -8.022   3.953  65.763  1.00  0.00    -0.093 A  
HETATM   19  C   UNL     1      -7.825   4.505  63.516  1.00  0.00    -0.077 A  
HETATM   20  S   UNL     1      -8.352   5.972  64.216  1.00  0.00     0.070 SA 
ENDBRANCH  15  16
ENDBRANCH  12  15
ENDBRANCH   8  10
BRANCH   9  21
HETATM   21  C   UNL     1      -8.859  10.856  68.830  1.00  0.00    -0.138 C  
BRANCH  21  22
HETATM   22  C   UNL     1      -8.803   9.780  69.896  1.00  0.00    -0.248 A  
HETATM   23  C   UNL     1      -9.965   9.160  70.375  1.00  0.00    -0.263 A  
HETATM   24  C   UNL     1      -9.899   8.061  71.235  1.00  0.00    -0.200 A  
HETATM   25  C   UNL     1      -7.581   9.391  70.464  1.00  0.00    -0.162 A  
HETATM   26  O   UNL     1      -7.547   5.546  72.093  1.00  0.00    -0.096 OA 
HETATM   27  C   UNL     1      -7.501   8.289  71.321  1.00  0.00    -0.082 A  
HETATM   28  C   UNL     1      -8.658   7.579  71.648  1.00  0.00    -0.125 A  
HETATM   29  O   UNL     1      -9.465   5.977  73.216  1.00  0.00    -0.142 OA 
HETATM   30  C   UNL     1      -8.608   6.316  72.421  1.00  0.00    -0.121 C  
ENDBRANCH  21  22
ENDBRANCH   9  21
ENDBRANCH   4   5
ENDBRANCH   3   4
ENDBRANCH   2   3
TORSDOF 8
ENDMDL
MODEL      245
REMARK 921   NORMALIZED FREE ENERGY PREDICTED BY IDOCK:   -2.07 KCAL/MOL
REMARK 922        TOTAL FREE ENERGY PREDICTED BY IDOCK:   -5.15 KCAL/MOL
REMARK 923 INTER-LIGAND FREE ENERGY PREDICTED BY IDOCK:   -4.75 KCAL/MOL
REMARK 924 INTRA-LIGAND FREE ENERGY PREDICTED BY IDOCK:   -0.40 KCAL/MOL
REMARK 927      BINDING AFFINITY PREDICTED BY RF-SCORE:    0.00 PKD
ROOT
HETATM    1  C   UNL     1     -10.041   7.626  71.314  1.00  0.00    -0.203 C  
HETATM    2  C   UNL     1      -9.402   9.007  71.239  1.00  0.00    -0.324 C  
ENDROOT
BRANCH   2   3
HETATM    3  C   UNL     1      -7.899   8.882  70.988  1.00  0.00    -0.164 C  
BRANCH   3   4
HETATM    4  C   UNL     1      -7.402   9.391  69.639  1.00  0.00    -0.077 C  
BRANCH   4   5
HETATM    5  C   UNL     1      -7.229  10.875  69.564  1.00  0.00    -0.113 A  
HETATM    6  N   UNL     1      -6.471  11.531  70.420  1.00  0.00    -0.201 NA 
HETATM    7  C   UNL     1      -6.489  12.831  70.027  1.00  0.00     0.109 A  
HETATM    8  C   UNL     1      -7.281  13.000  68.915  1.00  0.00    -0.047 A  
HETATM    9  N   UNL     1      -7.814  11.744  68.645  1.00  0.00    -0.134 NA 
BRANCH   8  10
HETATM   10  C   UNL     1      -7.516  14.127  68.106  1.00  0.00    -0.129 C  
HETATM   11  O   UNL     1      -9.860  16.551  66.965  1.00  0.00    -0.245 OA 
HETATM   12  C   UNL     1      -8.747  14.609  67.842  1.00  0.00    -0.169 C  
HETATM   13  C   UNL     1      -8.739  15.808  66.953  1.00  0.00    -0.244 C  
HETATM   14  O   UNL     1      -7.791  16.099  66.239  1.00  0.00    -0.236 OA 
BRANCH  12  15
HETATM   15  C   UNL     1     -10.045  14.012  68.319  1.00  0.00    -0.246 C  
BRANCH  15  16
HETATM   16  C   UNL     1     -10.758  14.732  69.434  1.00  0.00    -0.239 A  
HETATM   17  C   UNL     1     -11.258  15.932  71.371  1.00  0.00    -0.298 A  
HETATM   18  C   UNL     1     -10.260  15.557  70.426  1.00  0.00    -0.036 A  
HETATM   19  C   UNL     1     -12.498  15.440  71.035  1.00  0.00    -0.411 A  
HETATM   20  S   UNL     1     -12.459  14.537  69.586  1.00  0.00    -0.067 SA 
ENDBRANCH  15  16
ENDBRANCH  12  15
ENDBRANCH   8  10
BRANCH   9  21
HETATM   21  C   UNL     1      -8.948  11.443  67.755  1.00  0.00    -0.147 C  
BRANCH  21  22
HETATM   22  C   UNL     1      -8.582  10.714  66.477  1.00  0.00    -0.143 A  
HETATM   23  C   UNL     1      -7.288  10.778  65.940  1.00  0.00    -0.094 A  
HETATM   24  C   UNL     1      -6.912   9.980  64.857  1.00  0.00    -0.136 A  
HETATM   25  C   UNL     1      -9.540   9.975  65.769  1.00  0.00    -0.291 A  
HETATM   26  O   UNL     1      -7.984   6.958  63.336  1.00  0.00    -0.122 OA 
HETATM   27  C   UNL     1      -9.175   9.167  64.688  1.00  0.00    -0.029 A  
HETATM   28  C   UNL     1      -7.841   9.116  64.279  1.00  0.00    -0.127 A  
HETATM   29  O   UNL     1      -6.493   8.411  62.445  1.00  0.00    -0.088 OA 
HETATM   30  C   UNL     1      -7.375   8.162  63.246  1.00  0.00    -0.103 C  
ENDBRANCH  21  22
ENDBRANCH   9  21
ENDBRANCH   4   5
ENDBRANCH   3   4
ENDBRANCH   2   3
TORSDOF 8
ENDMDL
MODEL      246
REMARK 921   NORMALIZED FREE ENERGY PREDICTED BY IDOCK:   -2.02 KCAL/MOL
REMARK 922        TOTAL FREE ENERGY PREDICTED BY IDOCK:   -5.09 KCAL/MOL
REMARK 923 INTER-LIGAND FREE ENERGY PREDICTED BY IDOCK:   -5.41 KCAL/MOL
REMARK 924 INTRA-LIGAND FREE ENERGY PREDICTED BY IDOCK:    0.32 KCAL/MOL
REMARK 927      BINDING AFFINITY PREDICTED BY RF-SCORE:    0.00 PKD
ROOT
HETATM    1  C   UNL     1      -7.205  13.621  69.816  1.00  0.00     0.439 C  
HETATM    2  C   UNL     1      -6.255  13.010  68.794  1.00  0.00    -0.079 C  
ENDROOT
BRANCH   2   3
HETATM    3  C   UNL     1      -6.822  13.171  67.382  1.00  0.00    -0.113 C  
BRANCH   3   4
HETATM    4  C   UNL     1      -8.250  12.676  67.175  1.00  0.00    -0.159 C  
BRANCH   4   5
HETATM    5  C   UNL     1      -8.574  11.404  67.893  1.00  0.00    -0.140 A  
HETATM    6  N   UNL     1      -7.987  10.264  67.588  1.00  0.00    -0.102 NA 
HETATM    7  C   UNL     1      -8.462   9.344  68.465  1.00  0.00    -0.119 A  
HETATM    8  C   UNL     1      -9.372   9.907  69.329  1.00  0.00    -0.206 A  
HETATM    9  N   UNL     1      -9.496  11.232  68.924  1.00  0.00    -0.140 NA 
BRANCH   8  10
HETATM   10  C   UNL     1     -10.037   9.379  70.450  1.00  0.00    -0.310 C  
HETATM   11  O   UNL     1     -11.740   6.600  71.882  1.00  0.00    -0.283 OA 
HETATM   12  C   UNL     1     -10.744   8.231  70.423  1.00  0.00    -0.239 C  
HETATM   13  C   UNL     1     -11.364   7.882  71.736  1.00  0.00    -0.264 C  
HETATM   14  O   UNL     1     -11.543   8.703  72.624  1.00  0.00    -0.315 OA 
BRANCH  12  15
HETATM   15  C   UNL     1     -10.970   7.367  69.211  1.00  0.00    -0.091 C  
BRANCH  15  16
HETATM   16  C   UNL     1     -10.133   6.119  69.096  1.00  0.00    -0.170 A  
HETATM   17  C   UNL     1      -8.550   4.441  69.437  1.00  0.00    -0.107 A  
HETATM   18  C   UNL     1      -9.237   5.561  69.988  1.00  0.00    -0.172 A  
HETATM   19  C   UNL     1      -8.991   4.137  68.171  1.00  0.00    -0.118 A  
HETATM   20  S   UNL     1     -10.230   5.192  67.652  1.00  0.00    -0.106 SA 
ENDBRANCH  15  16
ENDBRANCH  12  15
ENDBRANCH   8  10
BRANCH   9  21
HETATM   21  C   UNL     1     -10.555  12.177  69.317  1.00  0.00     0.088 C  
BRANCH  21  22
HETATM   22  C   UNL     1     -10.917  13.206  68.265  1.00  0.00    -0.278 A  
HETATM   23  C   UNL     1     -10.264  14.445  68.194  1.00  0.00    -0.232 A  
HETATM   24  C   UNL     1     -10.486  15.321  67.129  1.00  0.00    -0.280 A  
HETATM   25  C   UNL     1     -11.945  12.963  67.343  1.00  0.00    -0.360 A  
HETATM   26  O   UNL     1     -11.665  15.136  63.787  1.00  0.00    -0.114 OA 
HETATM   27  C   UNL     1     -12.172  13.830  66.269  1.00  0.00    -0.489 A  
HETATM   28  C   UNL     1     -11.388  14.976  66.125  1.00  0.00    -0.270 A  
HETATM   29  O   UNL     1     -11.340  17.050  64.953  1.00  0.00    -0.481 OA 
HETATM   30  C   UNL     1     -11.481  15.841  64.925  1.00  0.00    -0.193 C  
ENDBRANCH  21  22
ENDBRANCH   9  21
ENDBRANCH   4   5
ENDBRANCH   3   4
ENDBRANCH   2   3
TORSDOF 8
ENDMDL
MODEL      247
REMARK 921   NORMALIZED FREE ENERGY PREDICTED BY IDOCK:   -1.90 KCAL/MOL
REMARK 922        TOTAL FREE ENERGY PREDICTED BY IDOCK:   -4.90 KCAL/MOL
REMARK 923 INTER-LIGAND FREE ENERGY PREDICTED BY IDOCK:   -4.90 KCAL/MOL
REMARK 924 INTRA-LIGAND FREE ENERGY PREDICTED BY IDOCK:   -0.01 KCAL/MOL
REMARK 927      BINDING AFFINITY PREDICTED BY RF-SCORE:    0.00 PKD
ROOT
HETATM    1  C   UNL     1     -11.070  11.197  64.198  1.00  0.00    -0.171 C  
HETATM    2  C   UNL     1     -10.479  10.783  65.540  1.00  0.00    -0.264 C  
ENDROOT
BRANCH   2   3
HETATM    3  C   UNL     1      -9.124  10.104  65.334  1.00  0.00    -0.227 C  
BRANCH   3   4
HETATM    4  C   UNL     1      -8.004  10.551  66.269  1.00  0.00    -0.144 C  
BRANCH   4   5
HETATM    5  C   UNL     1      -7.772   9.642  67.435  1.00  0.00    -0.095 A  
HETATM    6  N   UNL     1      -7.664   8.336  67.288  1.00  0.00    -0.100 NA 
HETATM    7  C   UNL     1      -7.398   7.835  68.521  1.00  0.00    -0.091 A  
HETATM    8  C   UNL     1      -7.351   8.836  69.463  1.00  0.00    -0.067 A  
HETATM    9  N   UNL     1      -7.655  10.006  68.774  1.00  0.00    -0.080 NA 
BRANCH   8  10
HETATM   10  C   UNL     1      -7.013   8.811  70.827  1.00  0.00    -0.066 C  
HETATM   11  O   UNL     1      -8.104   8.243  74.169  1.00  0.00    -0.243 OA 
HETATM   12  C   UNL     1      -7.923   8.714  71.818  1.00  0.00    -0.151 C  
HETATM   13  C   UNL     1      -7.320   8.715  73.183  1.00  0.00     0.106 C  
HETATM   14  O   UNL     1      -6.194   9.133  73.412  1.00  0.00    -0.308 OA 
BRANCH  12  15
HETATM   15  C   UNL     1      -9.417   8.663  71.635  1.00  0.00    -0.339 C  
BRANCH  15  16
HETATM   16  C   UNL     1     -10.087   7.332  71.860  1.00  0.00    -0.178 A  
HETATM   17  C   UNL     1     -11.523   5.633  72.562  1.00  0.00    -0.335 A  
HETATM   18  C   UNL     1     -11.322   7.035  72.404  1.00  0.00    -0.307 A  
HETATM   19  C   UNL     1     -10.466   4.902  72.070  1.00  0.00    -0.176 A  
HETATM   20  S   UNL     1      -9.244   5.901  71.418  1.00  0.00    -0.146 SA 
ENDBRANCH  15  16
ENDBRANCH  12  15
ENDBRANCH   8  10
BRANCH   9  21
HETATM   21  C   UNL     1      -8.031  11.302  69.365  1.00  0.00     0.192 C  
BRANCH  21  22
HETATM   22  C   UNL     1      -8.413  12.374  68.364  1.00  0.00    -0.131 A  
HETATM   23  C   UNL     1      -9.754  12.686  68.098  1.00  0.00    -0.219 A  
HETATM   24  C   UNL     1     -10.100  13.779  67.301  1.00  0.00    -0.239 A  
HETATM   25  C   UNL     1      -7.433  13.070  67.643  1.00  0.00    -0.156 A  
HETATM   26  O   UNL     1      -8.614  16.824  66.244  1.00  0.00    -0.280 OA 
HETATM   27  C   UNL     1      -7.766  14.170  66.847  1.00  0.00     0.328 A  
HETATM   28  C   UNL     1      -9.100  14.568  66.735  1.00  0.00    -0.283 A  
HETATM   29  O   UNL     1     -10.517  15.937  65.397  1.00  0.00    -0.373 OA 
HETATM   30  C   UNL     1      -9.488  15.814  66.036  1.00  0.00    -0.357 C  
ENDBRANCH  21  22
ENDBRANCH   9  21
ENDBRANCH   4   5
ENDBRANCH   3   4
ENDBRANCH   2   3
TORSDOF 8
ENDMDL
MODEL      248
REMARK 921   NORMALIZED FREE ENERGY PREDICTED BY IDOCK:   -1.72 KCAL/MOL
REMARK 922        TOTAL FREE ENERGY PREDICTED BY IDOCK:   -4.64 KCAL/MOL
REMARK 923 INTER-LIGAND FREE ENERGY PREDICTED BY IDOCK:   -4.33 KCAL/MOL
REMARK 924 INTRA-LIGAND FREE ENERGY PREDICTED BY IDOCK:   -0.31 KCAL/MOL
REMARK 927      BINDING AFFINITY PREDICTED BY RF-SCORE:    0.00 PKD
ROOT
HETATM    1  C   UNL     1     -11.761   6.839  70.169  1.00  0.00    -0.370 C  
HETATM    2  C   UNL     1     -10.950   6.818  68.880  1.00  0.00    -0.272 C  
ENDROOT
BRANCH   2   3
HETATM    3  C   UNL     1     -10.195   5.495  68.752  1.00  0.00    -0.270 C  
BRANCH   3   4
HETATM    4  C   UNL     1      -8.845   5.561  68.044  1.00  0.00    -0.105 C  
BRANCH   4   5
HETATM    5  C   UNL     1      -8.594   6.840  67.309  1.00  0.00    -0.120 A  
HETATM    6  N   UNL     1      -9.196   7.117  66.170  1.00  0.00    -0.127 NA 
HETATM    7  C   UNL     1      -8.793   8.365  65.819  1.00  0.00    -0.165 A  
HETATM    8  C   UNL     1      -7.913   8.878  66.743  1.00  0.00    -0.107 A  
HETATM    9  N   UNL     1      -7.731   7.868  67.683  1.00  0.00    -0.115 NA 
BRANCH   8  10
HETATM   10  C   UNL     1      -7.321  10.149  66.854  1.00  0.00    -0.092 C  
HETATM   11  O   UNL     1      -7.816  13.660  67.172  1.00  0.00    -0.129 OA 
HETATM   12  C   UNL     1      -8.010  11.303  66.742  1.00  0.00    -0.159 C  
HETATM   13  C   UNL     1      -7.160  12.521  66.891  1.00  0.00     0.170 C  
HETATM   14  O   UNL     1      -5.946  12.505  66.749  1.00  0.00    -0.213 OA 
BRANCH  12  15
HETATM   15  C   UNL     1      -9.481  11.421  66.442  1.00  0.00    -0.224 C  
BRANCH  15  16
HETATM   16  C   UNL     1     -10.417  11.470  67.622  1.00  0.00    -0.189 A  
HETATM   17  C   UNL     1     -12.028  10.960  69.229  1.00  0.00    -0.382 A  
HETATM   18  C   UNL     1     -11.164  10.466  68.209  1.00  0.00    -0.330 A  
HETATM   19  C   UNL     1     -11.863  12.309  69.436  1.00  0.00    -0.310 A  
HETATM   20  S   UNL     1     -10.671  12.975  68.410  1.00  0.00    -0.261 SA 
ENDBRANCH  15  16
ENDBRANCH  12  15
ENDBRANCH   8  10
BRANCH   9  21
HETATM   21  C   UNL     1      -6.668   7.793  68.698  1.00  0.00    -0.058 C  
BRANCH  21  22
HETATM   22  C   UNL     1      -6.883   6.745  69.772  1.00  0.00    -0.054 A  
HETATM   23  C   UNL     1      -6.328   5.461  69.666  1.00  0.00    -0.030 A  
HETATM   24  C   UNL     1      -6.391   4.555  70.727  1.00  0.00    -0.026 A  
HETATM   25  C   UNL     1      -7.674   7.016  70.897  1.00  0.00    -0.095 A  
HETATM   26  O   UNL     1      -6.831   4.669  74.247  1.00  0.00    -0.063 OA 
HETATM   27  C   UNL     1      -7.740   6.120  71.968  1.00  0.00    -0.097 A  
HETATM   28  C   UNL     1      -7.035   4.915  71.909  1.00  0.00    -0.061 A  
HETATM   29  O   UNL     1      -6.906   2.792  72.982  1.00  0.00    -0.025 OA 
HETATM   30  C   UNL     1      -6.944   4.006  73.074  1.00  0.00    -0.057 C  
ENDBRANCH  21  22
ENDBRANCH   9  21
ENDBRANCH   4   5
ENDBRANCH   3   4
ENDBRANCH   2   3
TORSDOF 8
ENDMDL
MODEL      249
REMARK 921   NORMALIZED FREE ENERGY PREDICTED BY IDOCK:   -1.58 KCAL/MOL
REMARK 922        TOTAL FREE ENERGY PREDICTED BY IDOCK:   -4.43 KCAL/MOL
REMARK 923 INTER-LIGAND FREE ENERGY PREDICTED BY IDOCK:   -5.31 KCAL/MOL
REMARK 924 INTRA-LIGAND FREE ENERGY PREDICTED BY IDOCK:    0.88 KCAL/MOL
REMARK 927      BINDING AFFINITY PREDICTED BY RF-SCORE:    0.00 PKD
ROOT
HETATM    1  C   UNL     1     -10.821   7.162  71.685  1.00  0.00    -0.250 C  
HETATM    2  C   UNL     1      -9.979   8.386  71.345  1.00  0.00    -0.275 C  
ENDROOT
BRANCH   2   3
HETATM    3  C   UNL     1      -8.495   8.018  71.326  1.00  0.00    -0.138 C  
BRANCH   3   4
HETATM    4  C   UNL     1      -7.717   8.441  70.084  1.00  0.00    -0.083 C  
BRANCH   4   5
HETATM    5  C   UNL     1      -7.713   9.916  69.830  1.00  0.00    -0.155 A  
HETATM    6  N   UNL     1      -6.756  10.697  70.288  1.00  0.00    -0.256 NA 
HETATM    7  C   UNL     1      -7.028  11.944  69.825  1.00  0.00     0.233 A  
HETATM    8  C   UNL     1      -8.181  11.953  69.075  1.00  0.00     0.210 A  
HETATM    9  N   UNL     1      -8.665  10.650  69.125  1.00  0.00    -0.154 NA 
BRANCH   8  10
HETATM   10  C   UNL     1      -8.790  12.972  68.321  1.00  0.00    -0.172 C  
HETATM   11  O   UNL     1     -11.374  15.414  68.134  1.00  0.00    -0.324 OA 
HETATM   12  C   UNL     1      -9.981  13.521  68.638  1.00  0.00    -0.149 C  
HETATM   13  C   UNL     1     -10.422  14.579  67.683  1.00  0.00    -0.246 C  
HETATM   14  O   UNL     1      -9.971  14.682  66.551  1.00  0.00    -0.262 OA 
BRANCH  12  15
HETATM   15  C   UNL     1     -10.854  13.115  69.796  1.00  0.00     0.379 C  
BRANCH  15  16
HETATM   16  C   UNL     1     -11.428  14.223  70.640  1.00  0.00    -0.068 A  
HETATM   17  C   UNL     1     -11.692  16.088  72.016  1.00  0.00    -0.588 A  
HETATM   18  C   UNL     1     -10.827  15.358  71.150  1.00  0.00    -0.162 A  
HETATM   19  C   UNL     1     -12.946  15.527  72.083  1.00  0.00    -0.422 A  
HETATM   20  S   UNL     1     -13.080  14.133  71.106  1.00  0.00    -0.302 SA 
ENDBRANCH  15  16
ENDBRANCH  12  15
ENDBRANCH   8  10
BRANCH   9  21
HETATM   21  C   UNL     1     -10.014  10.197  68.746  1.00  0.00    -0.179 C  
BRANCH  21  22
HETATM   22  C   UNL     1     -10.409  10.494  67.313  1.00  0.00    -0.275 A  
HETATM   23  C   UNL     1     -11.472  11.355  67.008  1.00  0.00    -0.234 A  
HETATM   24  C   UNL     1     -11.729  11.752  65.693  1.00  0.00    -0.099 A  
HETATM   25  C   UNL     1      -9.739   9.888  66.240  1.00  0.00    -0.281 A  
HETATM   26  O   UNL     1      -9.951  11.978  62.631  1.00  0.00     0.037 OA 
HETATM   27  C   UNL     1      -9.983  10.282  64.921  1.00  0.00    -0.393 A  
HETATM   28  C   UNL     1     -10.933  11.271  64.656  1.00  0.00    -0.281 A  
HETATM   29  O   UNL     1     -12.194  12.191  62.856  1.00  0.00    -0.138 OA 
HETATM   30  C   UNL     1     -11.117  11.834  63.298  1.00  0.00    -0.286 C  
ENDBRANCH  21  22
ENDBRANCH   9  21
ENDBRANCH   4   5
ENDBRANCH   3   4
ENDBRANCH   2   3
TORSDOF 8
ENDMDL
MODEL      250
REMARK 921   NORMALIZED FREE ENERGY PREDICTED BY IDOCK:   -1.47 KCAL/MOL
REMARK 922        TOTAL FREE ENERGY PREDICTED BY IDOCK:   -4.27 KCAL/MOL
REMARK 923 INTER-LIGAND FREE ENERGY PREDICTED BY IDOCK:   -5.05 KCAL/MOL
REMARK 924 INTRA-LIGAND FREE ENERGY PREDICTED BY IDOCK:    0.78 KCAL/MOL
REMARK 927      BINDING AFFINITY PREDICTED BY RF-SCORE:    0.00 PKD
ROOT
HETATM    1  C   UNL     1      -6.992  20.052  64.866  1.00  0.00    -0.067 C  
HETATM    2  C   UNL     1      -5.774  19.734  65.724  1.00  0.00    -0.189 C  
ENDROOT
BRANCH   2   3
HETATM    3  C   UNL     1      -6.207  19.081  67.036  1.00  0.00    -0.182 C  
BRANCH   3   4
HETATM    4  C   UNL     1      -7.617  19.414  67.515  1.00  0.00    -0.282 C  
BRANCH   4   5
HETATM    5  C   UNL     1      -8.555  18.248  67.535  1.00  0.00    -0.250 A  
HETATM    6  N   UNL     1      -9.805  18.355  67.132  1.00  0.00    -0.308 NA 
HETATM    7  C   UNL     1     -10.342  17.112  67.223  1.00  0.00    -0.320 A  
HETATM    8  C   UNL     1      -9.422  16.209  67.703  1.00  0.00    -0.220 A  
HETATM    9  N   UNL     1      -8.276  16.953  67.966  1.00  0.00    -0.197 NA 
BRANCH   8  10
HETATM   10  C   UNL     1      -9.489  14.814  67.866  1.00  0.00    -0.201 C  
HETATM   11  O   UNL     1      -9.626  11.623  66.292  1.00  0.00    -0.209 OA 
HETATM   12  C   UNL     1      -9.740  13.958  66.854  1.00  0.00    -0.268 C  
HETATM   13  C   UNL     1      -9.767  12.527  67.277  1.00  0.00    -0.202 C  
HETATM   14  O   UNL     1      -9.927  12.181  68.439  1.00  0.00    -0.208 OA 
BRANCH  12  15
HETATM   15  C   UNL     1     -10.027  14.345  65.427  1.00  0.00    -0.344 C  
BRANCH  15  16
HETATM   16  C   UNL     1     -10.892  13.407  64.626  1.00  0.00    -0.392 A  
HETATM   17  C   UNL     1     -11.801  12.094  62.926  1.00  0.00     0.175 A  
HETATM   18  C   UNL     1     -10.665  12.812  63.399  1.00  0.00    -0.089 A  
HETATM   19  C   UNL     1     -12.833  12.104  63.836  1.00  0.00    -0.306 A  
HETATM   20  S   UNL     1     -12.432  12.970  65.252  1.00  0.00    -0.453 SA 
ENDBRANCH  15  16
ENDBRANCH  12  15
ENDBRANCH   8  10
BRANCH   9  21
HETATM   21  C   UNL     1      -7.117  16.527  68.768  1.00  0.00    -0.189 C  
BRANCH  21  22
HETATM   22  C   UNL     1      -6.782  15.052  68.675  1.00  0.00    -0.093 A  
HETATM   23  C   UNL     1      -6.808  14.221  69.804  1.00  0.00    -0.053 A  
HETATM   24  C   UNL     1      -6.659  12.837  69.690  1.00  0.00     0.015 A  
HETATM   25  C   UNL     1      -6.403  14.474  67.456  1.00  0.00    -0.033 A  
HETATM   26  O   UNL     1      -7.061  10.359  67.181  1.00  0.00    -0.086 OA 
HETATM   27  C   UNL     1      -6.256  13.089  67.327  1.00  0.00     0.052 A  
HETATM   28  C   UNL     1      -6.457  12.264  68.435  1.00  0.00    -0.057 A  
HETATM   29  O   UNL     1      -6.053  10.038  69.183  1.00  0.00    -0.040 OA 
HETATM   30  C   UNL     1      -6.469  10.787  68.318  1.00  0.00    -0.058 C  
ENDBRANCH  21  22
ENDBRANCH   9  21
ENDBRANCH   4   5
ENDBRANCH   3   4
ENDBRANCH   2   3
TORSDOF 8
ENDMDL
MODEL      251
REMARK 921   NORMALIZED FREE ENERGY PREDICTED BY IDOCK:   -1.31 KCAL/MOL
REMARK 922        TOTAL FREE ENERGY PREDICTED BY IDOCK:   -4.04 KCAL/MOL
REMARK 923 INTER-LIGAND FREE ENERGY PREDICTED BY IDOCK:   -3.45 KCAL/MOL
REMARK 924 INTRA-LIGAND FREE ENERGY PREDICTED BY IDOCK:   -0.60 KCAL/MOL
REMARK 927      BINDING AFFINITY PREDICTED BY RF-SCORE:    0.00 PKD
ROOT
HETATM    1  C   UNL     1      -8.278  19.494  64.895  1.00  0.00     2.049 C  
HETATM    2  C   UNL     1      -6.948  19.188  65.571  1.00  0.00    -0.247 C  
ENDROOT
BRANCH   2   3
HETATM    3  C   UNL     1      -7.122  19.156  67.090  1.00  0.00    -0.212 C  
BRANCH   3   4
HETATM    4  C   UNL     1      -8.544  19.360  67.604  1.00  0.00    -0.343 C  
BRANCH   4   5
HETATM    5  C   UNL     1      -9.403  18.136  67.546  1.00  0.00    -0.258 A  
HETATM    6  N   UNL     1     -10.561  18.130  66.916  1.00  0.00    -0.346 NA 
HETATM    7  C   UNL     1     -11.037  16.862  67.006  1.00  0.00     0.195 A  
HETATM    8  C   UNL     1     -10.174  16.058  67.714  1.00  0.00    -0.260 A  
HETATM    9  N   UNL     1      -9.139  16.895  68.121  1.00  0.00    -0.225 NA 
BRANCH   8  10
HETATM   10  C   UNL     1     -10.192  14.676  67.971  1.00  0.00    -0.231 C  
HETATM   11  O   UNL     1     -12.133  11.824  68.852  1.00  0.00    -0.300 OA 
HETATM   12  C   UNL     1     -11.249  14.033  68.510  1.00  0.00    -0.291 C  
HETATM   13  C   UNL     1     -11.025  12.569  68.693  1.00  0.00    -0.255 C  
HETATM   14  O   UNL     1      -9.911  12.065  68.719  1.00  0.00    -0.176 OA 
BRANCH  12  15
HETATM   15  C   UNL     1     -12.534  14.679  68.955  1.00  0.00     0.029 C  
BRANCH  15  16
HETATM   16  C   UNL     1     -12.770  14.777  70.440  1.00  0.00    -0.316 A  
HETATM   17  C   UNL     1     -13.745  14.825  72.558  1.00  0.00    -0.572 A  
HETATM   18  C   UNL     1     -13.885  14.454  71.190  1.00  0.00    -0.249 A  
HETATM   19  C   UNL     1     -12.504  15.355  72.824  1.00  0.00    -0.401 A  
HETATM   20  S   UNL     1     -11.513  15.399  71.434  1.00  0.00    -0.416 SA 
ENDBRANCH  15  16
ENDBRANCH  12  15
ENDBRANCH   8  10
BRANCH   9  21
HETATM   21  C   UNL     1      -8.126  16.605  69.149  1.00  0.00    -0.139 C  
BRANCH  21  22
HETATM   22  C   UNL     1      -7.370  15.306  68.954  1.00  0.00    -0.146 A  
HETATM   23  C   UNL     1      -7.089  14.451  70.029  1.00  0.00     0.104 A  
HETATM   24  C   UNL     1      -6.538  13.184  69.823  1.00  0.00     0.063 A  
HETATM   25  C   UNL     1      -6.896  14.931  67.689  1.00  0.00    -0.204 A  
HETATM   26  O   UNL     1      -6.304  10.829  67.179  1.00  0.00    -0.065 OA 
HETATM   27  C   UNL     1      -6.348  13.664  67.469  1.00  0.00    -0.076 A  
HETATM   28  C   UNL     1      -6.236  12.762  68.529  1.00  0.00    -0.068 A  
HETATM   29  O   UNL     1      -5.147  10.728  69.122  1.00  0.00    -0.042 OA 
HETATM   30  C   UNL     1      -5.812  11.359  68.320  1.00  0.00    -0.045 C  
ENDBRANCH  21  22
ENDBRANCH   9  21
ENDBRANCH   4   5
ENDBRANCH   3   4
ENDBRANCH   2   3
TORSDOF 8
ENDMDL
MODEL      252
REMARK 921   NORMALIZED FREE ENERGY PREDICTED BY IDOCK:   -1.11 KCAL/MOL
REMARK 922        TOTAL FREE ENERGY PREDICTED BY IDOCK:   -3.75 KCAL/MOL
REMARK 923 INTER-LIGAND FREE ENERGY PREDICTED BY IDOCK:   -3.15 KCAL/MOL
REMARK 924 INTRA-LIGAND FREE ENERGY PREDICTED BY IDOCK:   -0.60 KCAL/MOL
REMARK 927      BINDING AFFINITY PREDICTED BY RF-SCORE:    0.00 PKD
ROOT
HETATM    1  C   UNL     1      -9.282  10.564  66.293  1.00  0.00    -0.192 C  
HETATM    2  C   UNL     1     -10.186  10.413  67.509  1.00  0.00    -0.251 C  
ENDROOT
BRANCH   2   3
HETATM    3  C   UNL     1      -9.367   9.980  68.726  1.00  0.00    -0.162 C  
BRANCH   3   4
HETATM    4  C   UNL     1      -9.437   8.499  69.086  1.00  0.00    -0.154 C  
BRANCH   4   5
HETATM    5  C   UNL     1      -9.405   7.575  67.910  1.00  0.00    -0.138 A  
HETATM    6  N   UNL     1     -10.378   7.547  67.021  1.00  0.00    -0.299 NA 
HETATM    7  C   UNL     1     -10.000   6.655  66.070  1.00  0.00     0.349 A  
HETATM    8  C   UNL     1      -8.777   6.101  66.369  1.00  0.00    -0.138 A  
HETATM    9  N   UNL     1      -8.413   6.649  67.595  1.00  0.00    -0.121 NA 
BRANCH   8  10
HETATM   10  C   UNL     1      -7.952   5.224  65.642  1.00  0.00    -0.106 C  
HETATM   11  O   UNL     1      -7.330   1.877  64.601  1.00  0.00    -0.055 OA 
HETATM   12  C   UNL     1      -8.039   3.881  65.724  1.00  0.00    -0.097 C  
HETATM   13  C   UNL     1      -7.052   3.167  64.862  1.00  0.00    -0.058 C  
HETATM   14  O   UNL     1      -6.040   3.699  64.430  1.00  0.00    -0.021 OA 
BRANCH  12  15
HETATM   15  C   UNL     1      -8.979   3.115  66.617  1.00  0.00    -0.168 C  
BRANCH  15  16
HETATM   16  C   UNL     1      -8.424   2.619  67.927  1.00  0.00    -0.085 A  
HETATM   17  C   UNL     1      -7.003   1.943  69.648  1.00  0.00    -0.033 A  
HETATM   18  C   UNL     1      -7.129   2.636  68.410  1.00  0.00    -0.048 A  
HETATM   19  C   UNL     1      -8.214   1.479  70.106  1.00  0.00    -0.041 A  
HETATM   20  S   UNL     1      -9.495   1.882  69.051  1.00  0.00    -0.043 SA 
ENDBRANCH  15  16
ENDBRANCH  12  15
ENDBRANCH   8  10
BRANCH   9  21
HETATM   21  C   UNL     1      -7.350   6.167  68.493  1.00  0.00    -0.086 C  
BRANCH  21  22
HETATM   22  C   UNL     1      -7.837   5.571  69.799  1.00  0.00    -0.082 A  
HETATM   23  C   UNL     1      -7.009   5.500  70.928  1.00  0.00    -0.064 A  
HETATM   24  C   UNL     1      -7.509   5.102  72.170  1.00  0.00    -0.093 A  
HETATM   25  C   UNL     1      -9.129   5.039  69.911  1.00  0.00    -0.162 A  
HETATM   26  O   UNL     1     -10.659   4.941  73.796  1.00  0.00    -0.224 OA 
HETATM   27  C   UNL     1      -9.643   4.643  71.149  1.00  0.00    -0.238 A  
HETATM   28  C   UNL     1      -8.850   4.744  72.294  1.00  0.00    -0.133 A  
HETATM   29  O   UNL     1      -8.750   3.984  74.550  1.00  0.00    -0.094 OA 
HETATM   30  C   UNL     1      -9.394   4.488  73.648  1.00  0.00    -0.117 C  
ENDBRANCH  21  22
ENDBRANCH   9  21
ENDBRANCH   4   5
ENDBRANCH   3   4
ENDBRANCH   2   3
TORSDOF 8
ENDMDL
MODEL      253
REMARK 921   NORMALIZED FREE ENERGY PREDICTED BY IDOCK:   -1.11 KCAL/MOL
REMARK 922        TOTAL FREE ENERGY PREDICTED BY IDOCK:   -3.75 KCAL/MOL
REMARK 923 INTER-LIGAND FREE ENERGY PREDICTED BY IDOCK:   -3.98 KCAL/MOL
REMARK 924 INTRA-LIGAND FREE ENERGY PREDICTED BY IDOCK:    0.24 KCAL/MOL
REMARK 927      BINDING AFFINITY PREDICTED BY RF-SCORE:    0.00 PKD
ROOT
HETATM    1  C   UNL     1      -9.011   6.526  65.717  1.00  0.00    -0.060 C  
HETATM    2  C   UNL     1      -8.527   5.149  66.154  1.00  0.00    -0.115 C  
ENDROOT
BRANCH   2   3
HETATM    3  C   UNL     1      -7.135   4.872  65.586  1.00  0.00    -0.067 C  
BRANCH   3   4
HETATM    4  C   UNL     1      -6.097   5.970  65.796  1.00  0.00    -0.029 C  
BRANCH   4   5
HETATM    5  C   UNL     1      -6.214   6.689  67.103  1.00  0.00    -0.036 A  
HETATM    6  N   UNL     1      -6.589   6.072  68.205  1.00  0.00    -0.052 NA 
HETATM    7  C   UNL     1      -6.526   6.994  69.199  1.00  0.00    -0.040 A  
HETATM    8  C   UNL     1      -6.117   8.215  68.716  1.00  0.00    -0.044 A  
HETATM    9  N   UNL     1      -5.972   8.040  67.344  1.00  0.00    -0.048 NA 
BRANCH   8  10
HETATM   10  C   UNL     1      -5.812   9.419  69.376  1.00  0.00    -0.034 C  
HETATM   11  O   UNL     1      -5.424  11.111  72.484  1.00  0.00    -0.090 OA 
HETATM   12  C   UNL     1      -6.011   9.616  70.695  1.00  0.00    -0.072 C  
HETATM   13  C   UNL     1      -5.616  10.979  71.160  1.00  0.00     0.020 C  
HETATM   14  O   UNL     1      -5.490  11.929  70.401  1.00  0.00    -0.111 OA 
BRANCH  12  15
HETATM   15  C   UNL     1      -6.618   8.622  71.649  1.00  0.00    -0.074 C  
BRANCH  15  16
HETATM   16  C   UNL     1      -8.115   8.660  71.814  1.00  0.00    -0.114 A  
HETATM   17  C   UNL     1     -10.302   8.295  72.537  1.00  0.00    -0.401 A  
HETATM   18  C   UNL     1      -8.914   8.171  72.830  1.00  0.00    -0.328 A  
HETATM   19  C   UNL     1     -10.521   8.936  71.339  1.00  0.00    -0.305 A  
HETATM   20  S   UNL     1      -9.061   9.389  70.578  1.00  0.00    -0.227 SA 
ENDBRANCH  15  16
ENDBRANCH  12  15
ENDBRANCH   8  10
BRANCH   9  21
HETATM   21  C   UNL     1      -5.849   9.101  66.330  1.00  0.00    -0.058 C  
BRANCH  21  22
HETATM   22  C   UNL     1      -7.086   9.956  66.146  1.00  0.00    -0.103 A  
HETATM   23  C   UNL     1      -7.209  11.212  66.758  1.00  0.00    -0.146 A  
HETATM   24  C   UNL     1      -8.274  12.064  66.458  1.00  0.00     0.013 A  
HETATM   25  C   UNL     1      -8.169   9.503  65.379  1.00  0.00    -0.128 A  
HETATM   26  O   UNL     1     -10.601  12.517  63.817  1.00  0.00    -0.414 OA 
HETATM   27  C   UNL     1      -9.237  10.348  65.067  1.00  0.00    -0.256 A  
HETATM   28  C   UNL     1      -9.251  11.658  65.551  1.00  0.00    -0.111 A  
HETATM   29  O   UNL     1     -10.726  13.505  65.851  1.00  0.00    -0.273 OA 
HETATM   30  C   UNL     1     -10.275  12.639  65.123  1.00  0.00    -0.280 C  
ENDBRANCH  21  22
ENDBRANCH   9  21
ENDBRANCH   4   5
ENDBRANCH   3   4
ENDBRANCH   2   3
TORSDOF 8
ENDMDL
MODEL      254
REMARK 921   NORMALIZED FREE ENERGY PREDICTED BY IDOCK:   -1.00 KCAL/MOL
REMARK 922        TOTAL FREE ENERGY PREDICTED BY IDOCK:   -3.59 KCAL/MOL
REMARK 923 INTER-LIGAND FREE ENERGY PREDICTED BY IDOCK:   -2.01 KCAL/MOL
REMARK 924 INTRA-LIGAND FREE ENERGY PREDICTED BY IDOCK:   -1.58 KCAL/MOL
REMARK 927      BINDING AFFINITY PREDICTED BY RF-SCORE:    0.00 PKD
ROOT
HETATM    1  C   UNL     1      -6.604  15.196  69.464  1.00  0.00    -0.163 C  
HETATM    2  C   UNL     1      -5.734  14.150  70.148  1.00  0.00    -0.130 C  
ENDROOT
BRANCH   2   3
HETATM    3  C   UNL     1      -5.651  12.887  69.289  1.00  0.00    -0.076 C  
BRANCH   3   4
HETATM    4  C   UNL     1      -5.189  11.621  70.004  1.00  0.00    -0.079 C  
BRANCH   4   5
HETATM    5  C   UNL     1      -6.300  10.764  70.523  1.00  0.00    -0.051 A  
HETATM    6  N   UNL     1      -6.184  10.078  71.642  1.00  0.00    -0.292 NA 
HETATM    7  C   UNL     1      -7.382   9.473  71.844  1.00  0.00     0.872 A  
HETATM    8  C   UNL     1      -8.263   9.770  70.831  1.00  0.00     0.462 A  
HETATM    9  N   UNL     1      -7.547  10.559  69.936  1.00  0.00    -0.110 NA 
BRANCH   8  10
HETATM   10  C   UNL     1      -9.625   9.461  70.665  1.00  0.00    -0.331 C  
HETATM   11  O   UNL     1     -12.077   6.931  70.152  1.00  0.00    -0.234 OA 
HETATM   12  C   UNL     1     -10.072   8.251  70.269  1.00  0.00    -0.195 C  
HETATM   13  C   UNL     1     -11.558   8.171  70.160  1.00  0.00     0.097 C  
HETATM   14  O   UNL     1     -12.271   9.160  70.063  1.00  0.00     0.315 OA 
BRANCH  12  15
HETATM   15  C   UNL     1      -9.207   7.073  69.904  1.00  0.00    -0.144 C  
BRANCH  15  16
HETATM   16  C   UNL     1      -9.087   5.973  70.926  1.00  0.00    -0.153 A  
HETATM   17  C   UNL     1      -9.518   4.170  72.343  1.00  0.00    -0.179 A  
HETATM   18  C   UNL     1      -9.933   4.914  71.200  1.00  0.00    -0.278 A  
HETATM   19  C   UNL     1      -8.335   4.640  72.862  1.00  0.00    -0.100 A  
HETATM   20  S   UNL     1      -7.726   5.966  71.975  1.00  0.00    -0.102 SA 
ENDBRANCH  15  16
ENDBRANCH  12  15
ENDBRANCH   8  10
BRANCH   9  21
HETATM   21  C   UNL     1      -7.928  10.887  68.553  1.00  0.00    -0.134 C  
BRANCH  21  22
HETATM   22  C   UNL     1      -7.855   9.728  67.578  1.00  0.00    -0.095 A  
HETATM   23  C   UNL     1      -6.678   8.986  67.406  1.00  0.00    -0.069 A  
HETATM   24  C   UNL     1      -6.660   7.824  66.631  1.00  0.00    -0.054 A  
HETATM   25  C   UNL     1      -8.960   9.380  66.788  1.00  0.00    -0.152 A  
HETATM   26  O   UNL     1      -8.995   5.419  65.463  1.00  0.00    -0.159 OA 
HETATM   27  C   UNL     1      -8.956   8.216  66.013  1.00  0.00    -0.213 A  
HETATM   28  C   UNL     1      -7.824   7.398  65.994  1.00  0.00    -0.102 A  
HETATM   29  O   UNL     1      -6.853   5.611  64.754  1.00  0.00    -0.048 OA 
HETATM   30  C   UNL     1      -7.824   6.080  65.320  1.00  0.00    -0.107 C  
ENDBRANCH  21  22
ENDBRANCH   9  21
ENDBRANCH   4   5
ENDBRANCH   3   4
ENDBRANCH   2   3
TORSDOF 8
ENDMDL
MODEL      255
REMARK 921   NORMALIZED FREE ENERGY PREDICTED BY IDOCK:   -1.00 KCAL/MOL
REMARK 922        TOTAL FREE ENERGY PREDICTED BY IDOCK:   -3.58 KCAL/MOL
REMARK 923 INTER-LIGAND FREE ENERGY PREDICTED BY IDOCK:   -3.08 KCAL/MOL
REMARK 924 INTRA-LIGAND FREE ENERGY PREDICTED BY IDOCK:   -0.49 KCAL/MOL
REMARK 927      BINDING AFFINITY PREDICTED BY RF-SCORE:    0.00 PKD
ROOT
HETATM    1  C   UNL     1      -7.850   5.130  69.539  1.00  0.00    -0.076 C  
HETATM    2  C   UNL     1      -7.843   6.608  69.169  1.00  0.00    -0.111 C  
ENDROOT
BRANCH   2   3
HETATM    3  C   UNL     1      -7.210   7.430  70.292  1.00  0.00    -0.066 C  
BRANCH   3   4
HETATM    4  C   UNL     1      -8.011   8.638  70.769  1.00  0.00    -0.127 C  
BRANCH   4   5
HETATM    5  C   UNL     1      -9.248   8.912  69.975  1.00  0.00    -0.174 A  
HETATM    6  N   UNL     1     -10.423   8.431  70.329  1.00  0.00    -0.213 NA 
HETATM    7  C   UNL     1     -11.321   8.920  69.437  1.00  0.00     0.287 A  
HETATM    8  C   UNL     1     -10.703   9.711  68.497  1.00  0.00    -0.200 A  
HETATM    9  N   UNL     1      -9.347   9.661  68.804  1.00  0.00    -0.145 NA 
BRANCH   8  10
HETATM   10  C   UNL     1     -11.228  10.500  67.457  1.00  0.00    -0.299 C  
HETATM   11  O   UNL     1     -12.705  13.597  66.508  1.00  0.00    -0.255 OA 
HETATM   12  C   UNL     1     -11.910  11.645  67.664  1.00  0.00    -0.216 C  
HETATM   13  C   UNL     1     -12.372  12.299  66.404  1.00  0.00     0.477 C  
HETATM   14  O   UNL     1     -12.467  11.701  65.342  1.00  0.00     0.093 OA 
BRANCH  12  15
HETATM   15  C   UNL     1     -12.253  12.232  69.008  1.00  0.00    -0.047 C  
BRANCH  15  16
HETATM   16  C   UNL     1     -11.635  13.562  69.350  1.00  0.00    -0.312 A  
HETATM   17  C   UNL     1     -10.360  15.515  69.326  1.00  0.00    -0.252 A  
HETATM   18  C   UNL     1     -10.861  14.411  68.579  1.00  0.00    -0.260 A  
HETATM   19  C   UNL     1     -10.821  15.514  70.622  1.00  0.00    -0.303 A  
HETATM   20  S   UNL     1     -11.856  14.192  70.933  1.00  0.00    -0.134 SA 
ENDBRANCH  15  16
ENDBRANCH  12  15
ENDBRANCH   8  10
BRANCH   9  21
HETATM   21  C   UNL     1      -8.232  10.082  67.939  1.00  0.00    -0.113 C  
BRANCH  21  22
HETATM   22  C   UNL     1      -7.717   9.014  66.995  1.00  0.00    -0.098 A  
HETATM   23  C   UNL     1      -8.578   8.084  66.397  1.00  0.00    -0.155 A  
HETATM   24  C   UNL     1      -8.126   7.208  65.407  1.00  0.00    -0.137 A  
HETATM   25  C   UNL     1      -6.348   8.901  66.713  1.00  0.00    -0.059 A  
HETATM   26  O   UNL     1      -5.449   7.040  63.084  1.00  0.00    -0.031 OA 
HETATM   27  C   UNL     1      -5.884   8.033  65.720  1.00  0.00    -0.037 A  
HETATM   28  C   UNL     1      -6.789   7.236  65.016  1.00  0.00    -0.047 A  
HETATM   29  O   UNL     1      -6.856   5.336  63.580  1.00  0.00    -0.043 OA 
HETATM   30  C   UNL     1      -6.372   6.420  63.852  1.00  0.00    -0.030 C  
ENDBRANCH  21  22
ENDBRANCH   9  21
ENDBRANCH   4   5
ENDBRANCH   3   4
ENDBRANCH   2   3
TORSDOF 8
ENDMDL
MODEL      256
REMARK 921   NORMALIZED FREE ENERGY PREDICTED BY IDOCK:   -0.53 KCAL/MOL
REMARK 922        TOTAL FREE ENERGY PREDICTED BY IDOCK:   -2.89 KCAL/MOL
REMARK 923 INTER-LIGAND FREE ENERGY PREDICTED BY IDOCK:   -2.64 KCAL/MOL
REMARK 924 INTRA-LIGAND FREE ENERGY PREDICTED BY IDOCK:   -0.25 KCAL/MOL
REMARK 927      BINDING AFFINITY PREDICTED BY RF-SCORE:    0.00 PKD
ROOT
HETATM    1  C   UNL     1     -12.059  11.914  71.333  1.00  0.00     0.326 C  
HETATM    2  C   UNL     1     -12.488  10.452  71.325  1.00  0.00    -0.521 C  
ENDROOT
BRANCH   2   3
HETATM    3  C   UNL     1     -12.197   9.823  69.962  1.00  0.00     0.135 C  
BRANCH   3   4
HETATM    4  C   UNL     1     -11.728   8.372  69.982  1.00  0.00     0.308 C  
BRANCH   4   5
HETATM    5  C   UNL     1     -11.070   7.917  68.718  1.00  0.00     0.310 A  
HETATM    6  N   UNL     1     -11.650   7.062  67.900  1.00  0.00     0.487 NA 
HETATM    7  C   UNL     1     -10.815   6.923  66.839  1.00  0.00    -0.310 A  
HETATM    8  C   UNL     1      -9.685   7.691  66.994  1.00  0.00    -0.195 A  
HETATM    9  N   UNL     1      -9.815   8.293  68.242  1.00  0.00    -0.166 NA 
BRANCH   8  10
HETATM   10  C   UNL     1      -8.609   7.945  66.125  1.00  0.00    -0.164 C  
HETATM   11  O   UNL     1      -6.233  10.306  64.918  1.00  0.00    -0.121 OA 
HETATM   12  C   UNL     1      -8.130   9.181  65.875  1.00  0.00    -0.111 C  
HETATM   13  C   UNL     1      -6.989   9.194  64.913  1.00  0.00    -0.088 C  
HETATM   14  O   UNL     1      -6.754   8.269  64.149  1.00  0.00    -0.066 OA 
BRANCH  12  15
HETATM   15  C   UNL     1      -8.681  10.465  66.435  1.00  0.00    -0.149 C  
BRANCH  15  16
HETATM   16  C   UNL     1      -9.357  11.398  65.464  1.00  0.00    -0.208 A  
HETATM   17  C   UNL     1     -10.361  13.249  64.461  1.00  0.00    -0.394 A  
HETATM   18  C   UNL     1      -9.551  12.765  65.529  1.00  0.00    -0.001 A  
HETATM   19  C   UNL     1     -10.701  12.251  63.578  1.00  0.00    -0.451 A  
HETATM   20  S   UNL     1     -10.045  10.741  64.033  1.00  0.00    -0.317 SA 
ENDBRANCH  15  16
ENDBRANCH  12  15
ENDBRANCH   8  10
BRANCH   9  21
HETATM   21  C   UNL     1      -8.753   8.964  69.009  1.00  0.00    -0.136 C  
BRANCH  21  22
HETATM   22  C   UNL     1      -8.420   8.319  70.340  1.00  0.00    -0.129 A  
HETATM   23  C   UNL     1      -8.212   6.937  70.454  1.00  0.00    -0.124 A  
HETATM   24  C   UNL     1      -7.748   6.369  71.643  1.00  0.00    -0.100 A  
HETATM   25  C   UNL     1      -8.339   9.084  71.512  1.00  0.00    -0.070 A  
HETATM   26  O   UNL     1      -5.980   7.425  74.534  1.00  0.00    -0.079 OA 
HETATM   27  C   UNL     1      -7.870   8.528  72.706  1.00  0.00    -0.073 A  
HETATM   28  C   UNL     1      -7.505   7.181  72.749  1.00  0.00    -0.082 A  
HETATM   29  O   UNL     1      -7.041   5.438  74.305  1.00  0.00    -0.077 OA 
HETATM   30  C   UNL     1      -6.856   6.584  73.940  1.00  0.00    -0.077 C  
ENDBRANCH  21  22
ENDBRANCH   9  21
ENDBRANCH   4   5
ENDBRANCH   3   4
ENDBRANCH   2   3
TORSDOF 8
ENDMDL
MODEL      257
REMARK 921   NORMALIZED FREE ENERGY PREDICTED BY IDOCK:   -0.39 KCAL/MOL
REMARK 922        TOTAL FREE ENERGY PREDICTED BY IDOCK:   -2.69 KCAL/MOL
REMARK 923 INTER-LIGAND FREE ENERGY PREDICTED BY IDOCK:   -2.99 KCAL/MOL
REMARK 924 INTRA-LIGAND FREE ENERGY PREDICTED BY IDOCK:    0.29 KCAL/MOL
REMARK 927      BINDING AFFINITY PREDICTED BY RF-SCORE:    0.00 PKD
ROOT
HETATM    1  C   UNL     1      -7.866   5.161  69.439  1.00  0.00    -0.080 C  
HETATM    2  C   UNL     1      -7.658   6.451  68.656  1.00  0.00    -0.093 C  
ENDROOT
BRANCH   2   3
HETATM    3  C   UNL     1      -6.987   7.503  69.539  1.00  0.00    -0.060 C  
BRANCH   3   4
HETATM    4  C   UNL     1      -7.555   8.916  69.445  1.00  0.00    -0.081 C  
BRANCH   4   5
HETATM    5  C   UNL     1      -8.556   9.108  68.350  1.00  0.00    -0.129 A  
HETATM    6  N   UNL     1      -9.846   9.220  68.598  1.00  0.00    -0.158 NA 
HETATM    7  C   UNL     1     -10.446   9.445  67.401  1.00  0.00    -0.278 A  
HETATM    8  C   UNL     1      -9.524   9.461  66.381  1.00  0.00    -0.201 A  
HETATM    9  N   UNL     1      -8.301   9.181  66.982  1.00  0.00    -0.119 NA 
BRANCH   8  10
HETATM   10  C   UNL     1      -9.660   9.753  65.012  1.00  0.00    -0.333 C  
HETATM   11  O   UNL     1      -9.282  12.161  62.417  1.00  0.00     0.412 OA 
HETATM   12  C   UNL     1      -9.555  10.998  64.503  1.00  0.00    -0.299 C  
HETATM   13  C   UNL     1      -9.745  11.054  63.023  1.00  0.00    -0.354 C  
HETATM   14  O   UNL     1     -10.302  10.169  62.391  1.00  0.00     0.599 OA 
BRANCH  12  15
HETATM   15  C   UNL     1      -9.325  12.255  65.299  1.00  0.00     0.169 C  
BRANCH  15  16
HETATM   16  C   UNL     1     -10.537  13.090  65.621  1.00  0.00    -0.282 A  
HETATM   17  C   UNL     1     -12.720  13.872  65.872  1.00  0.00    -0.466 A  
HETATM   18  C   UNL     1     -11.875  12.747  65.648  1.00  0.00    -0.472 A  
HETATM   19  C   UNL     1     -11.999  15.025  66.078  1.00  0.00     0.060 A  
HETATM   20  S   UNL     1     -10.315  14.751  66.006  1.00  0.00    -0.324 SA 
ENDBRANCH  15  16
ENDBRANCH  12  15
ENDBRANCH   8  10
BRANCH   9  21
HETATM   21  C   UNL     1      -7.056   8.787  66.302  1.00  0.00    -0.082 C  
BRANCH  21  22
HETATM   22  C   UNL     1      -6.866   7.293  66.133  1.00  0.00    -0.057 A  
HETATM   23  C   UNL     1      -7.951   6.436  65.899  1.00  0.00    -0.117 A  
HETATM   24  C   UNL     1      -7.756   5.089  65.584  1.00  0.00    -0.087 A  
HETATM   25  C   UNL     1      -5.594   6.711  66.237  1.00  0.00    -0.018 A  
HETATM   26  O   UNL     1      -5.165   3.057  64.261  1.00  0.00    -0.008 OA 
HETATM   27  C   UNL     1      -5.386   5.366  65.917  1.00  0.00    -0.013 A  
HETATM   28  C   UNL     1      -6.464   4.572  65.520  1.00  0.00    -0.040 A  
HETATM   29  O   UNL     1      -7.067   2.287  65.218  1.00  0.00    -0.053 OA 
HETATM   30  C   UNL     1      -6.275   3.190  65.021  1.00  0.00    -0.023 C  
ENDBRANCH  21  22
ENDBRANCH   9  21
ENDBRANCH   4   5
ENDBRANCH   3   4
ENDBRANCH   2   3
TORSDOF 8
ENDMDL
MODEL      258
REMARK 921   NORMALIZED FREE ENERGY PREDICTED BY IDOCK:   -0.24 KCAL/MOL
REMARK 922        TOTAL FREE ENERGY PREDICTED BY IDOCK:   -2.47 KCAL/MOL
REMARK 923 INTER-LIGAND FREE ENERGY PREDICTED BY IDOCK:   -1.42 KCAL/MOL
REMARK 924 INTRA-LIGAND FREE ENERGY PREDICTED BY IDOCK:   -1.05 KCAL/MOL
REMARK 927      BINDING AFFINITY PREDICTED BY RF-SCORE:    0.00 PKD
ROOT
HETATM    1  C   UNL     1      -6.206  12.794  68.111  1.00  0.00    -0.088 C  
HETATM    2  C   UNL     1      -7.668  12.850  68.533  1.00  0.00    -0.109 C  
ENDROOT
BRANCH   2   3
HETATM    3  C   UNL     1      -7.835  13.778  69.738  1.00  0.00     0.947 C  
BRANCH   3   4
HETATM    4  C   UNL     1      -7.336  15.207  69.555  1.00  0.00    -0.210 C  
BRANCH   4   5
HETATM    5  C   UNL     1      -8.372  16.165  69.058  1.00  0.00    -0.247 A  
HETATM    6  N   UNL     1      -9.217  16.762  69.875  1.00  0.00     0.753 NA 
HETATM    7  C   UNL     1      -9.963  17.598  69.108  1.00  0.00    -0.192 A  
HETATM    8  C   UNL     1      -9.594  17.517  67.786  1.00  0.00    -0.269 A  
HETATM    9  N   UNL     1      -8.602  16.543  67.736  1.00  0.00    -0.176 NA 
BRANCH   8  10
HETATM   10  C   UNL     1     -10.005  18.255  66.661  1.00  0.00    -0.370 C  
HETATM   11  O   UNL     1      -9.705  21.268  64.788  1.00  0.00     1.934 OA 
HETATM   12  C   UNL     1      -9.713  19.559  66.479  1.00  0.00    -0.478 C  
HETATM   13  C   UNL     1     -10.266  20.122  65.212  1.00  0.00     0.298 C  
HETATM   14  O   UNL     1     -11.185  19.598  64.598  1.00  0.00     0.088 OA 
BRANCH  12  15
HETATM   15  C   UNL     1      -8.956  20.432  67.445  1.00  0.00    -0.449 C  
BRANCH  15  16
HETATM   16  C   UNL     1      -7.452  20.356  67.399  1.00  0.00    -0.322 A  
HETATM   17  C   UNL     1      -5.179  20.576  67.874  1.00  0.00    -0.231 A  
HETATM   18  C   UNL     1      -6.514  20.657  68.368  1.00  0.00    -0.303 A  
HETATM   19  C   UNL     1      -5.138  20.149  66.568  1.00  0.00    -0.157 A  
HETATM   20  S   UNL     1      -6.697  19.844  65.942  1.00  0.00    -0.271 SA 
ENDBRANCH  15  16
ENDBRANCH  12  15
ENDBRANCH   8  10
BRANCH   9  21
HETATM   21  C   UNL     1      -8.093  15.867  66.532  1.00  0.00    -0.235 C  
BRANCH  21  22
HETATM   22  C   UNL     1      -9.084  14.947  65.847  1.00  0.00     0.022 A  
HETATM   23  C   UNL     1      -9.058  13.560  66.047  1.00  0.00     0.211 A  
HETATM   24  C   UNL     1     -10.069  12.736  65.546  1.00  0.00    -0.278 A  
HETATM   25  C   UNL     1     -10.044  15.455  64.960  1.00  0.00    -0.210 A  
HETATM   26  O   UNL     1     -13.443  13.072  64.499  1.00  0.00    -0.143 OA 
HETATM   27  C   UNL     1     -11.064  14.641  64.457  1.00  0.00    -0.269 A  
HETATM   28  C   UNL     1     -11.115  13.292  64.811  1.00  0.00    -0.359 A  
HETATM   29  O   UNL     1     -12.147  11.245  64.163  1.00  0.00     0.127 OA 
HETATM   30  C   UNL     1     -12.257  12.427  64.435  1.00  0.00    -0.437 C  
ENDBRANCH  21  22
ENDBRANCH   9  21
ENDBRANCH   4   5
ENDBRANCH   3   4
ENDBRANCH   2   3
TORSDOF 8
ENDMDL
MODEL      259
REMARK 921   NORMALIZED FREE ENERGY PREDICTED BY IDOCK:    0.00 KCAL/MOL
REMARK 922        TOTAL FREE ENERGY PREDICTED BY IDOCK:   -2.11 KCAL/MOL
REMARK 923 INTER-LIGAND FREE ENERGY PREDICTED BY IDOCK:   -2.49 KCAL/MOL
REMARK 924 INTRA-LIGAND FREE ENERGY PREDICTED BY IDOCK:    0.38 KCAL/MOL
REMARK 927      BINDING AFFINITY PREDICTED BY RF-SCORE:    0.00 PKD
ROOT
HETATM    1  C   UNL     1      -9.701   6.640  65.807  1.00  0.00     0.410 C  
HETATM    2  C   UNL     1      -9.568   5.123  65.754  1.00  0.00    -0.138 C  
ENDROOT
BRANCH   2   3
HETATM    3  C   UNL     1      -8.181   4.731  65.244  1.00  0.00    -0.120 C  
BRANCH   3   4
HETATM    4  C   UNL     1      -7.007   5.115  66.139  1.00  0.00    -0.067 C  
BRANCH   4   5
HETATM    5  C   UNL     1      -7.345   5.216  67.593  1.00  0.00    -0.075 A  
HETATM    6  N   UNL     1      -7.750   4.171  68.287  1.00  0.00    -0.070 NA 
HETATM    7  C   UNL     1      -7.904   4.598  69.566  1.00  0.00    -0.062 A  
HETATM    8  C   UNL     1      -7.604   5.935  69.680  1.00  0.00    -0.081 A  
HETATM    9  N   UNL     1      -7.300   6.358  68.390  1.00  0.00    -0.085 NA 
BRANCH   8  10
HETATM   10  C   UNL     1      -7.521   6.775  70.805  1.00  0.00    -0.083 C  
HETATM   11  O   UNL     1      -6.006   7.398  73.966  1.00  0.00    -0.067 OA 
HETATM   12  C   UNL     1      -6.870   6.440  71.938  1.00  0.00    -0.068 C  
HETATM   13  C   UNL     1      -6.929   7.494  72.993  1.00  0.00    -0.068 C  
HETATM   14  O   UNL     1      -7.768   8.382  72.998  1.00  0.00    -0.256 OA 
BRANCH  12  15
HETATM   15  C   UNL     1      -6.180   5.127  72.197  1.00  0.00    -0.030 C  
BRANCH  15  16
HETATM   16  C   UNL     1      -6.900   4.139  73.078  1.00  0.00    -0.056 A  
HETATM   17  C   UNL     1      -7.414   2.391  74.534  1.00  0.00    -0.041 A  
HETATM   18  C   UNL     1      -6.403   3.246  74.008  1.00  0.00    -0.024 A  
HETATM   19  C   UNL     1      -8.660   2.704  74.042  1.00  0.00    -0.072 A  
HETATM   20  S   UNL     1      -8.610   4.022  72.957  1.00  0.00    -0.099 SA 
ENDBRANCH  15  16
ENDBRANCH  12  15
ENDBRANCH   8  10
BRANCH   9  21
HETATM   21  C   UNL     1      -7.208   7.750  67.919  1.00  0.00    -0.090 C  
BRANCH  21  22
HETATM   22  C   UNL     1      -8.425   8.605  68.212  1.00  0.00    -0.131 A  
HETATM   23  C   UNL     1      -9.727   8.119  68.026  1.00  0.00    -0.186 A  
HETATM   24  C   UNL     1     -10.841   8.848  68.449  1.00  0.00    -0.043 A  
HETATM   25  C   UNL     1      -8.286   9.930  68.651  1.00  0.00    -0.110 A  
HETATM   26  O   UNL     1     -11.551  11.426  70.782  1.00  0.00    -0.133 OA 
HETATM   27  C   UNL     1      -9.393  10.668  69.082  1.00  0.00    -0.174 A  
HETATM   28  C   UNL     1     -10.666  10.095  69.047  1.00  0.00    -0.249 A  
HETATM   29  O   UNL     1     -12.969  10.692  69.176  1.00  0.00     0.099 OA 
HETATM   30  C   UNL     1     -11.844  10.772  69.636  1.00  0.00    -0.320 C  
ENDBRANCH  21  22
ENDBRANCH   9  21
ENDBRANCH   4   5
ENDBRANCH   3   4
ENDBRANCH   2   3
TORSDOF 8
ENDMDL
MODEL      260
REMARK 921   NORMALIZED FREE ENERGY PREDICTED BY IDOCK:    0.03 KCAL/MOL
REMARK 922        TOTAL FREE ENERGY PREDICTED BY IDOCK:   -2.06 KCAL/MOL
REMARK 923 INTER-LIGAND FREE ENERGY PREDICTED BY IDOCK:   -2.12 KCAL/MOL
REMARK 924 INTRA-LIGAND FREE ENERGY PREDICTED BY IDOCK:    0.06 KCAL/MOL
REMARK 927      BINDING AFFINITY PREDICTED BY RF-SCORE:    0.00 PKD
ROOT
HETATM    1  C   UNL     1      -9.345   7.563  64.882  1.00  0.00     1.225 C  
HETATM    2  C   UNL     1      -8.516   8.566  65.674  1.00  0.00    -0.170 C  
ENDROOT
BRANCH   2   3
HETATM    3  C   UNL     1      -9.300   9.055  66.892  1.00  0.00    -0.203 C  
BRANCH   3   4
HETATM    4  C   UNL     1     -10.733   9.507  66.627  1.00  0.00    -0.086 C  
BRANCH   4   5
HETATM    5  C   UNL     1     -10.867  10.950  66.256  1.00  0.00    -0.124 A  
HETATM    6  N   UNL     1     -12.028  11.475  65.916  1.00  0.00    -0.058 NA 
HETATM    7  C   UNL     1     -11.801  12.797  65.707  1.00  0.00    -0.434 A  
HETATM    8  C   UNL     1     -10.476  13.110  65.905  1.00  0.00    -0.280 A  
HETATM    9  N   UNL     1      -9.852  11.902  66.202  1.00  0.00    -0.226 NA 
BRANCH   8  10
HETATM   10  C   UNL     1      -9.804  14.345  65.905  1.00  0.00    -0.336 C  
HETATM   11  O   UNL     1      -9.621  17.649  67.218  1.00  0.00    -0.262 OA 
HETATM   12  C   UNL     1     -10.290  15.456  66.494  1.00  0.00    -0.293 C  
HETATM   13  C   UNL     1      -9.398  16.644  66.353  1.00  0.00    -0.281 C  
HETATM   14  O   UNL     1      -8.528  16.723  65.498  1.00  0.00    -0.211 OA 
BRANCH  12  15
HETATM   15  C   UNL     1     -11.619  15.570  67.194  1.00  0.00     0.026 C  
BRANCH  15  16
HETATM   16  C   UNL     1     -11.607  15.489  68.698  1.00  0.00    -0.368 A  
HETATM   17  C   UNL     1     -11.298  15.937  70.966  1.00  0.00    -0.434 A  
HETATM   18  C   UNL     1     -11.331  16.461  69.642  1.00  0.00    -0.188 A  
HETATM   19  C   UNL     1     -11.618  14.600  71.001  1.00  0.00    -0.227 A  
HETATM   20  S   UNL     1     -11.960  13.982  69.446  1.00  0.00    -0.347 SA 
ENDBRANCH  15  16
ENDBRANCH  12  15
ENDBRANCH   8  10
BRANCH   9  21
HETATM   21  C   UNL     1      -8.403  11.638  66.199  1.00  0.00     0.036 C  
BRANCH  21  22
HETATM   22  C   UNL     1      -7.647  12.207  67.382  1.00  0.00    -0.155 A  
HETATM   23  C   UNL     1      -7.007  13.453  67.314  1.00  0.00     0.035 A  
HETATM   24  C   UNL     1      -6.451  14.045  68.451  1.00  0.00    -0.103 A  
HETATM   25  C   UNL     1      -7.535  11.487  68.580  1.00  0.00    -0.116 A  
HETATM   26  O   UNL     1      -6.829  13.819  71.972  1.00  0.00     1.509 OA 
HETATM   27  C   UNL     1      -6.987  12.072  69.726  1.00  0.00     0.270 A  
HETATM   28  C   UNL     1      -6.509  13.383  69.676  1.00  0.00    -0.056 A  
HETATM   29  O   UNL     1      -5.154  14.908  70.906  1.00  0.00    -0.117 OA 
HETATM   30  C   UNL     1      -6.065  14.101  70.893  1.00  0.00    -0.149 C  
ENDBRANCH  21  22
ENDBRANCH   9  21
ENDBRANCH   4   5
ENDBRANCH   3   4
ENDBRANCH   2   3
TORSDOF 8
ENDMDL
MODEL      261
REMARK 921   NORMALIZED FREE ENERGY PREDICTED BY IDOCK:    0.13 KCAL/MOL
REMARK 922        TOTAL FREE ENERGY PREDICTED BY IDOCK:   -1.92 KCAL/MOL
REMARK 923 INTER-LIGAND FREE ENERGY PREDICTED BY IDOCK:   -1.67 KCAL/MOL
REMARK 924 INTRA-LIGAND FREE ENERGY PREDICTED BY IDOCK:   -0.25 KCAL/MOL
REMARK 927      BINDING AFFINITY PREDICTED BY RF-SCORE:    0.00 PKD
ROOT
HETATM    1  C   UNL     1      -9.856   6.758  64.882  1.00  0.00     2.429 C  
HETATM    2  C   UNL     1      -9.251   7.727  65.890  1.00  0.00    -0.078 C  
ENDROOT
BRANCH   2   3
HETATM    3  C   UNL     1     -10.346   8.320  66.777  1.00  0.00    -0.361 C  
BRANCH   3   4
HETATM    4  C   UNL     1      -9.887   9.337  67.817  1.00  0.00    -0.210 C  
BRANCH   4   5
HETATM    5  C   UNL     1      -8.682   8.920  68.600  1.00  0.00    -0.134 A  
HETATM    6  N   UNL     1      -7.790   9.794  69.022  1.00  0.00    -0.082 NA 
HETATM    7  C   UNL     1      -6.880   9.091  69.743  1.00  0.00    -0.050 A  
HETATM    8  C   UNL     1      -7.193   7.752  69.765  1.00  0.00    -0.067 A  
HETATM    9  N   UNL     1      -8.330   7.625  68.973  1.00  0.00    -0.127 NA 
BRANCH   8  10
HETATM   10  C   UNL     1      -6.611   6.674  70.456  1.00  0.00    -0.052 C  
HETATM   11  O   UNL     1      -6.170   5.007  73.570  1.00  0.00    -0.046 OA 
HETATM   12  C   UNL     1      -6.580   6.582  71.801  1.00  0.00    -0.054 C  
HETATM   13  C   UNL     1      -5.902   5.349  72.298  1.00  0.00    -0.026 C  
HETATM   14  O   UNL     1      -5.133   4.691  71.611  1.00  0.00    -0.003 OA 
BRANCH  12  15
HETATM   15  C   UNL     1      -7.110   7.611  72.763  1.00  0.00    -0.084 C  
BRANCH  15  16
HETATM   16  C   UNL     1      -8.583   7.557  73.078  1.00  0.00    -0.142 A  
HETATM   17  C   UNL     1     -10.685   6.937  73.876  1.00  0.00    -0.122 A  
HETATM   18  C   UNL     1      -9.274   6.775  73.984  1.00  0.00    -0.220 A  
HETATM   19  C   UNL     1     -11.025   7.887  72.941  1.00  0.00    -0.388 A  
HETATM   20  S   UNL     1      -9.650   8.582  72.203  1.00  0.00    -0.311 SA 
ENDBRANCH  15  16
ENDBRANCH  12  15
ENDBRANCH   8  10
BRANCH   9  21
HETATM   21  C   UNL     1      -8.887   6.375  68.428  1.00  0.00    -0.119 C  
BRANCH  21  22
HETATM   22  C   UNL     1      -9.330   5.366  69.469  1.00  0.00    -0.166 A  
HETATM   23  C   UNL     1      -8.765   4.085  69.537  1.00  0.00    -0.124 A  
HETATM   24  C   UNL     1      -9.058   3.218  70.593  1.00  0.00    -0.190 A  
HETATM   25  C   UNL     1     -10.350   5.672  70.382  1.00  0.00    -0.330 A  
HETATM   26  O   UNL     1     -10.260   3.461  73.923  1.00  0.00    -0.123 OA 
HETATM   27  C   UNL     1     -10.648   4.816  71.446  1.00  0.00    -0.048 A  
HETATM   28  C   UNL     1      -9.946   3.617  71.590  1.00  0.00    -0.196 A  
HETATM   29  O   UNL     1     -10.054   1.537  72.746  1.00  0.00    -0.096 OA 
HETATM   30  C   UNL     1     -10.112   2.753  72.781  1.00  0.00    -0.149 C  
ENDBRANCH  21  22
ENDBRANCH   9  21
ENDBRANCH   4   5
ENDBRANCH   3   4
ENDBRANCH   2   3
TORSDOF 8
ENDMDL
MODEL      262
REMARK 921   NORMALIZED FREE ENERGY PREDICTED BY IDOCK:    0.39 KCAL/MOL
REMARK 922        TOTAL FREE ENERGY PREDICTED BY IDOCK:   -1.55 KCAL/MOL
REMARK 923 INTER-LIGAND FREE ENERGY PREDICTED BY IDOCK:   -0.44 KCAL/MOL
REMARK 924 INTRA-LIGAND FREE ENERGY PREDICTED BY IDOCK:   -1.10 KCAL/MOL
REMARK 927      BINDING AFFINITY PREDICTED BY RF-SCORE:    0.00 PKD
ROOT
HETATM    1  C   UNL     1     -12.060  11.920  71.330  1.00  0.00     0.167 C  
HETATM    2  C   UNL     1     -12.526  10.471  71.290  1.00  0.00    -0.524 C  
ENDROOT
BRANCH   2   3
HETATM    3  C   UNL     1     -12.259   9.867  69.910  1.00  0.00     0.133 C  
BRANCH   3   4
HETATM    4  C   UNL     1     -11.844   8.400  69.891  1.00  0.00     0.569 C  
BRANCH   4   5
HETATM    5  C   UNL     1     -11.200   7.956  68.615  1.00  0.00     0.511 A  
HETATM    6  N   UNL     1     -11.813   7.152  67.770  1.00  0.00     1.286 NA 
HETATM    7  C   UNL     1     -10.980   7.009  66.707  1.00  0.00    -0.053 A  
HETATM    8  C   UNL     1      -9.819   7.723  66.890  1.00  0.00    -0.235 A  
HETATM    9  N   UNL     1      -9.928   8.291  68.155  1.00  0.00    -0.184 NA 
BRANCH   8  10
HETATM   10  C   UNL     1      -8.729   7.956  66.032  1.00  0.00    -0.182 C  
HETATM   11  O   UNL     1      -6.582   6.661  63.504  1.00  0.00    -0.040 OA 
HETATM   12  C   UNL     1      -8.113   6.983  65.330  1.00  0.00    -0.134 C  
HETATM   13  C   UNL     1      -6.978   7.478  64.496  1.00  0.00    -0.055 C  
HETATM   14  O   UNL     1      -6.419   8.546  64.701  1.00  0.00    -0.065 OA 
BRANCH  12  15
HETATM   15  C   UNL     1      -8.452   5.516  65.379  1.00  0.00    -0.146 C  
BRANCH  15  16
HETATM   16  C   UNL     1      -7.429   4.600  65.999  1.00  0.00    -0.082 A  
HETATM   17  C   UNL     1      -6.222   2.729  66.693  1.00  0.00    -0.024 A  
HETATM   18  C   UNL     1      -7.209   3.249  65.807  1.00  0.00    -0.071 A  
HETATM   19  C   UNL     1      -5.670   3.711  67.483  1.00  0.00    -0.022 A  
HETATM   20  S   UNL     1      -6.335   5.249  67.155  1.00  0.00    -0.041 SA 
ENDBRANCH  15  16
ENDBRANCH  12  15
ENDBRANCH   8  10
BRANCH   9  21
HETATM   21  C   UNL     1      -8.841   8.892  68.946  1.00  0.00    -0.137 C  
BRANCH  21  22
HETATM   22  C   UNL     1      -8.548   8.198  70.261  1.00  0.00    -0.131 A  
HETATM   23  C   UNL     1      -8.409   6.805  70.341  1.00  0.00    -0.130 A  
HETATM   24  C   UNL     1      -7.980   6.186  71.518  1.00  0.00    -0.110 A  
HETATM   25  C   UNL     1      -8.438   8.928  71.453  1.00  0.00    -0.216 A  
HETATM   26  O   UNL     1      -6.183   7.082  74.443  1.00  0.00    -0.077 OA 
HETATM   27  C   UNL     1      -8.004   8.321  72.635  1.00  0.00    -0.193 A  
HETATM   28  C   UNL     1      -7.706   6.957  72.646  1.00  0.00    -0.094 A  
HETATM   29  O   UNL     1      -7.337   5.155  74.159  1.00  0.00    -0.081 OA 
HETATM   30  C   UNL     1      -7.095   6.300  73.824  1.00  0.00    -0.083 C  
ENDBRANCH  21  22
ENDBRANCH   9  21
ENDBRANCH   4   5
ENDBRANCH   3   4
ENDBRANCH   2   3
TORSDOF 8
ENDMDL
MODEL      263
REMARK 921   NORMALIZED FREE ENERGY PREDICTED BY IDOCK:    0.78 KCAL/MOL
REMARK 922        TOTAL FREE ENERGY PREDICTED BY IDOCK:   -0.96 KCAL/MOL
REMARK 923 INTER-LIGAND FREE ENERGY PREDICTED BY IDOCK:   -1.63 KCAL/MOL
REMARK 924 INTRA-LIGAND FREE ENERGY PREDICTED BY IDOCK:    0.67 KCAL/MOL
REMARK 927      BINDING AFFINITY PREDICTED BY RF-SCORE:    0.00 PKD
ROOT
HETATM    1  C   UNL     1     -13.751  12.667  64.116  1.00  0.00     1.707 C  
HETATM    2  C   UNL     1     -12.273  12.754  64.473  1.00  0.00    -0.500 C  
ENDROOT
BRANCH   2   3
HETATM    3  C   UNL     1     -11.808  11.451  65.125  1.00  0.00     0.385 C  
BRANCH   3   4
HETATM    4  C   UNL     1     -11.054  11.596  66.443  1.00  0.00    -0.347 C  
BRANCH   4   5
HETATM    5  C   UNL     1     -10.022  12.679  66.450  1.00  0.00    -0.255 A  
HETATM    6  N   UNL     1      -9.733  13.371  65.366  1.00  0.00    -0.087 NA 
HETATM    7  C   UNL     1      -8.816  14.299  65.739  1.00  0.00     0.913 A  
HETATM    8  C   UNL     1      -8.510  14.183  67.075  1.00  0.00    -0.156 A  
HETATM    9  N   UNL     1      -9.245  13.092  67.530  1.00  0.00    -0.197 NA 
BRANCH   8  10
HETATM   10  C   UNL     1      -7.707  14.975  67.916  1.00  0.00    -0.145 C  
HETATM   11  O   UNL     1      -7.458  17.907  69.919  1.00  0.00     0.565 OA 
HETATM   12  C   UNL     1      -8.044  16.219  68.310  1.00  0.00    -0.167 C  
HETATM   13  C   UNL     1      -7.026  16.860  69.195  1.00  0.00    -0.234 C  
HETATM   14  O   UNL     1      -5.865  16.482  69.253  1.00  0.00    -0.138 OA 
BRANCH  12  15
HETATM   15  C   UNL     1      -9.283  16.967  67.893  1.00  0.00    -0.239 C  
BRANCH  15  16
HETATM   16  C   UNL     1      -9.102  18.400  67.461  1.00  0.00    -0.271 A  
HETATM   17  C   UNL     1      -8.200  20.442  66.787  1.00  0.00    -0.276 A  
HETATM   18  C   UNL     1      -7.994  19.041  66.938  1.00  0.00    -0.270 A  
HETATM   19  C   UNL     1      -9.478  20.816  67.133  1.00  0.00    -0.304 A  
HETATM   20  S   UNL     1     -10.423  19.485  67.632  1.00  0.00    -0.455 SA 
ENDBRANCH  15  16
ENDBRANCH  12  15
ENDBRANCH   8  10
BRANCH   9  21
HETATM   21  C   UNL     1      -9.050  12.367  68.796  1.00  0.00     0.152 C  
BRANCH  21  22
HETATM   22  C   UNL     1      -9.045  10.856  68.673  1.00  0.00    -0.175 A  
HETATM   23  C   UNL     1      -8.188  10.194  67.783  1.00  0.00    -0.110 A  
HETATM   24  C   UNL     1      -8.071   8.802  67.789  1.00  0.00    -0.107 A  
HETATM   25  C   UNL     1      -9.926  10.069  69.428  1.00  0.00    -0.239 A  
HETATM   26  O   UNL     1      -8.675   6.133  70.048  1.00  0.00    -0.133 OA 
HETATM   27  C   UNL     1      -9.815   8.675  69.447  1.00  0.00    -0.184 A  
HETATM   28  C   UNL     1      -8.834   8.047  68.677  1.00  0.00    -0.134 A  
HETATM   29  O   UNL     1      -8.232   5.899  67.839  1.00  0.00    -0.107 OA 
HETATM   30  C   UNL     1      -8.571   6.593  68.781  1.00  0.00    -0.122 C  
ENDBRANCH  21  22
ENDBRANCH   9  21
ENDBRANCH   4   5
ENDBRANCH   3   4
ENDBRANCH   2   3
TORSDOF 8
ENDMDL
MODEL      264
REMARK 921   NORMALIZED FREE ENERGY PREDICTED BY IDOCK:    0.83 KCAL/MOL
REMARK 922        TOTAL FREE ENERGY PREDICTED BY IDOCK:   -0.89 KCAL/MOL
REMARK 923 INTER-LIGAND FREE ENERGY PREDICTED BY IDOCK:   -0.93 KCAL/MOL
REMARK 924 INTRA-LIGAND FREE ENERGY PREDICTED BY IDOCK:    0.04 KCAL/MOL
REMARK 927      BINDING AFFINITY PREDICTED BY RF-SCORE:    0.00 PKD
ROOT
HETATM    1  C   UNL     1      -7.108   9.406  73.067  1.00  0.00     1.086 C  
HETATM    2  C   UNL     1      -6.938   8.720  71.718  1.00  0.00    -0.073 C  
ENDROOT
BRANCH   2   3
HETATM    3  C   UNL     1      -6.682   9.758  70.625  1.00  0.00    -0.111 C  
BRANCH   3   4
HETATM    4  C   UNL     1      -7.464   9.572  69.329  1.00  0.00    -0.078 C  
BRANCH   4   5
HETATM    5  C   UNL     1      -7.484  10.775  68.439  1.00  0.00    -0.095 A  
HETATM    6  N   UNL     1      -6.486  11.636  68.413  1.00  0.00    -0.051 NA 
HETATM    7  C   UNL     1      -6.801  12.554  67.464  1.00  0.00    -0.150 A  
HETATM    8  C   UNL     1      -8.021  12.277  66.893  1.00  0.00    -0.068 A  
HETATM    9  N   UNL     1      -8.499  11.157  67.565  1.00  0.00    -0.124 NA 
BRANCH   8  10
HETATM   10  C   UNL     1      -8.700  12.878  65.817  1.00  0.00     0.896 C  
HETATM   11  O   UNL     1     -10.934  15.433  64.744  1.00  0.00    -0.420 OA 
HETATM   12  C   UNL     1      -9.680  13.791  65.973  1.00  0.00    -0.255 C  
HETATM   13  C   UNL     1     -10.252  14.276  64.682  1.00  0.00    -0.112 C  
HETATM   14  O   UNL     1     -10.134  13.663  63.631  1.00  0.00     0.578 OA 
BRANCH  12  15
HETATM   15  C   UNL     1     -10.227  14.275  67.289  1.00  0.00    -0.252 C  
BRANCH  15  16
HETATM   16  C   UNL     1      -9.891  15.688  67.690  1.00  0.00    -0.227 A  
HETATM   17  C   UNL     1      -9.992  17.880  68.480  1.00  0.00    -0.379 A  
HETATM   18  C   UNL     1     -10.609  16.596  68.446  1.00  0.00    -0.343 A  
HETATM   19  C   UNL     1      -8.791  17.894  67.810  1.00  0.00    -0.251 A  
HETATM   20  S   UNL     1      -8.408  16.367  67.148  1.00  0.00    -0.203 SA 
ENDBRANCH  15  16
ENDBRANCH  12  15
ENDBRANCH   8  10
BRANCH   9  21
HETATM   21  C   UNL     1      -9.878  10.643  67.548  1.00  0.00    -0.168 C  
BRANCH  21  22
HETATM   22  C   UNL     1     -10.161   9.536  68.543  1.00  0.00    -0.198 A  
HETATM   23  C   UNL     1     -10.732   9.802  69.796  1.00  0.00    -0.283 A  
HETATM   24  C   UNL     1     -11.139   8.768  70.642  1.00  0.00    -0.285 A  
HETATM   25  C   UNL     1      -9.829   8.204  68.254  1.00  0.00    -0.191 A  
HETATM   26  O   UNL     1     -12.038   5.347  70.352  1.00  0.00     1.897 OA 
HETATM   27  C   UNL     1     -10.236   7.160  69.090  1.00  0.00    -0.196 A  
HETATM   28  C   UNL     1     -10.957   7.442  70.252  1.00  0.00    -0.272 A  
HETATM   29  O   UNL     1     -11.639   6.431  72.299  1.00  0.00    -0.285 OA 
HETATM   30  C   UNL     1     -11.546   6.369  71.087  1.00  0.00    -0.318 C  
ENDBRANCH  21  22
ENDBRANCH   9  21
ENDBRANCH   4   5
ENDBRANCH   3   4
ENDBRANCH   2   3
TORSDOF 8
ENDMDL
MODEL      265
REMARK 921   NORMALIZED FREE ENERGY PREDICTED BY IDOCK:    0.98 KCAL/MOL
REMARK 922        TOTAL FREE ENERGY PREDICTED BY IDOCK:   -0.68 KCAL/MOL
REMARK 923 INTER-LIGAND FREE ENERGY PREDICTED BY IDOCK:   -1.78 KCAL/MOL
REMARK 924 INTRA-LIGAND FREE ENERGY PREDICTED BY IDOCK:    1.10 KCAL/MOL
REMARK 927      BINDING AFFINITY PREDICTED BY RF-SCORE:    0.00 PKD
ROOT
HETATM    1  C   UNL     1      -6.969  14.988  70.897  1.00  0.00     0.820 C  
HETATM    2  C   UNL     1      -5.837  15.320  69.934  1.00  0.00    -0.132 C  
ENDROOT
BRANCH   2   3
HETATM    3  C   UNL     1      -5.128  14.040  69.490  1.00  0.00    -0.083 C  
BRANCH   3   4
HETATM    4  C   UNL     1      -5.181  13.730  67.997  1.00  0.00    -0.105 C  
BRANCH   4   5
HETATM    5  C   UNL     1      -6.558  13.490  67.464  1.00  0.00    -0.117 A  
HETATM    6  N   UNL     1      -7.608  14.133  67.935  1.00  0.00    -0.140 NA 
HETATM    7  C   UNL     1      -8.669  13.727  67.193  1.00  0.00    -0.221 A  
HETATM    8  C   UNL     1      -8.287  12.803  66.248  1.00  0.00     0.566 A  
HETATM    9  N   UNL     1      -6.927  12.599  66.459  1.00  0.00     0.564 NA 
BRANCH   8  10
HETATM   10  C   UNL     1      -9.005  12.190  65.206  1.00  0.00     0.482 C  
HETATM   11  O   UNL     1     -12.095  11.923  63.457  1.00  0.00    -0.504 OA 
HETATM   12  C   UNL     1     -10.341  12.300  65.058  1.00  0.00    -0.321 C  
HETATM   13  C   UNL     1     -10.874  11.553  63.881  1.00  0.00    -0.401 C  
HETATM   14  O   UNL     1     -10.260  10.646  63.337  1.00  0.00    -0.291 OA 
BRANCH  12  15
HETATM   15  C   UNL     1     -11.269  13.042  65.984  1.00  0.00    -0.320 C  
BRANCH  15  16
HETATM   16  C   UNL     1     -11.299  12.595  67.422  1.00  0.00    -0.313 A  
HETATM   17  C   UNL     1     -11.206  11.331  69.381  1.00  0.00    -0.345 A  
HETATM   18  C   UNL     1     -10.875  11.411  67.997  1.00  0.00    -0.264 A  
HETATM   19  C   UNL     1     -11.809  12.482  69.834  1.00  0.00    -0.303 A  
HETATM   20  S   UNL     1     -11.969  13.651  68.600  1.00  0.00    -0.310 SA 
ENDBRANCH  15  16
ENDBRANCH  12  15
ENDBRANCH   8  10
BRANCH   9  21
HETATM   21  C   UNL     1      -6.110  11.497  65.923  1.00  0.00     0.468 C  
BRANCH  21  22
HETATM   22  C   UNL     1      -6.399  10.136  66.524  1.00  0.00    -0.074 A  
HETATM   23  C   UNL     1      -6.502   8.988  65.726  1.00  0.00    -0.064 A  
HETATM   24  C   UNL     1      -6.607   7.716  66.295  1.00  0.00    -0.050 A  
HETATM   25  C   UNL     1      -6.605   9.986  67.903  1.00  0.00    -0.063 A  
HETATM   26  O   UNL     1      -5.830   6.160  69.388  1.00  0.00    -0.015 OA 
HETATM   27  C   UNL     1      -6.704   8.718  68.485  1.00  0.00    -0.060 A  
HETATM   28  C   UNL     1      -6.632   7.578  67.681  1.00  0.00    -0.062 A  
HETATM   29  O   UNL     1      -7.083   5.240  67.742  1.00  0.00    -0.064 OA 
HETATM   30  C   UNL     1      -6.573   6.216  68.261  1.00  0.00    -0.058 C  
ENDBRANCH  21  22
ENDBRANCH   9  21
ENDBRANCH   4   5
ENDBRANCH   3   4
ENDBRANCH   2   3
TORSDOF 8
ENDMDL
MODEL      266
REMARK 921   NORMALIZED FREE ENERGY PREDICTED BY IDOCK:    1.28 KCAL/MOL
REMARK 922        TOTAL FREE ENERGY PREDICTED BY IDOCK:   -0.24 KCAL/MOL
REMARK 923 INTER-LIGAND FREE ENERGY PREDICTED BY IDOCK:   -4.37 KCAL/MOL
REMARK 924 INTRA-LIGAND FREE ENERGY PREDICTED BY IDOCK:    4.13 KCAL/MOL
REMARK 927      BINDING AFFINITY PREDICTED BY RF-SCORE:    0.00 PKD
ROOT
HETATM    1  C   UNL     1     -10.376   7.407  65.655  1.00  0.00     2.026 C  
HETATM    2  C   UNL     1      -9.216   6.743  66.386  1.00  0.00    -0.185 C  
ENDROOT
BRANCH   2   3
HETATM    3  C   UNL     1      -9.731   5.960  67.594  1.00  0.00    -0.122 C  
BRANCH   3   4
HETATM    4  C   UNL     1     -10.579   6.746  68.589  1.00  0.00    -0.263 C  
BRANCH   4   5
HETATM    5  C   UNL     1     -10.588   8.225  68.361  1.00  0.00    -0.099 A  
HETATM    6  N   UNL     1     -10.251   8.751  67.201  1.00  0.00    -0.251 NA 
HETATM    7  C   UNL     1     -10.430  10.091  67.324  1.00  0.00    -0.254 A  
HETATM    8  C   UNL     1     -10.873  10.417  68.584  1.00  0.00    -0.232 A  
HETATM    9  N   UNL     1     -10.919   9.215  69.283  1.00  0.00    -0.128 NA 
BRANCH   8  10
HETATM   10  C   UNL     1     -11.286  11.644  69.134  1.00  0.00    -0.345 C  
HETATM   11  O   UNL     1     -11.705  15.147  68.654  1.00  0.00    -0.335 OA 
HETATM   12  C   UNL     1     -11.040  12.838  68.559  1.00  0.00    -0.300 C  
HETATM   13  C   UNL     1     -11.572  13.996  69.336  1.00  0.00    -0.297 C  
HETATM   14  O   UNL     1     -11.856  13.924  70.523  1.00  0.00    -0.302 OA 
BRANCH  12  15
HETATM   15  C   UNL     1     -10.263  13.056  67.287  1.00  0.00    -0.239 C  
BRANCH  15  16
HETATM   16  C   UNL     1     -11.029  12.955  65.993  1.00  0.00    -0.276 A  
HETATM   17  C   UNL     1     -12.713  12.723  64.396  1.00  0.00    -0.370 A  
HETATM   18  C   UNL     1     -12.391  12.987  65.759  1.00  0.00    -0.477 A  
HETATM   19  C   UNL     1     -11.587  12.567  63.621  1.00  0.00    -0.504 A  
HETATM   20  S   UNL     1     -10.153  12.743  64.531  1.00  0.00    -0.184 SA 
ENDBRANCH  15  16
ENDBRANCH  12  15
ENDBRANCH   8  10
BRANCH   9  21
HETATM   21  C   UNL     1     -11.034   9.049  70.741  1.00  0.00    -0.258 C  
BRANCH  21  22
HETATM   22  C   UNL     1      -9.822   8.436  71.413  1.00  0.00    -0.259 A  
HETATM   23  C   UNL     1      -9.886   7.185  72.043  1.00  0.00    -0.174 A  
HETATM   24  C   UNL     1      -8.734   6.552  72.517  1.00  0.00    -0.125 A  
HETATM   25  C   UNL     1      -8.598   9.118  71.454  1.00  0.00    -0.063 A  
HETATM   26  O   UNL     1      -5.240   6.678  71.912  1.00  0.00    -0.026 OA 
HETATM   27  C   UNL     1      -7.438   8.493  71.920  1.00  0.00    -0.127 A  
HETATM   28  C   UNL     1      -7.496   7.178  72.386  1.00  0.00    -0.088 A  
HETATM   29  O   UNL     1      -6.227   5.601  73.642  1.00  0.00    -0.058 OA 
HETATM   30  C   UNL     1      -6.275   6.419  72.742  1.00  0.00    -0.054 C  
ENDBRANCH  21  22
ENDBRANCH   9  21
ENDBRANCH   4   5
ENDBRANCH   3   4
ENDBRANCH   2   3
TORSDOF 8
ENDMDL
MODEL      267
REMARK 921   NORMALIZED FREE ENERGY PREDICTED BY IDOCK:    1.76 KCAL/MOL
REMARK 922        TOTAL FREE ENERGY PREDICTED BY IDOCK:    0.46 KCAL/MOL
REMARK 923 INTER-LIGAND FREE ENERGY PREDICTED BY IDOCK:   -0.06 KCAL/MOL
REMARK 924 INTRA-LIGAND FREE ENERGY PREDICTED BY IDOCK:    0.52 KCAL/MOL
REMARK 927      BINDING AFFINITY PREDICTED BY RF-SCORE:    0.00 PKD
ROOT
HETATM    1  C   UNL     1     -10.541   1.985  64.015  1.00  0.00     0.176 C  
HETATM    2  C   UNL     1     -10.449   2.811  62.739  1.00  0.00    -0.150 C  
ENDROOT
BRANCH   2   3
HETATM    3  C   UNL     1     -11.015   4.212  62.974  1.00  0.00     0.192 C  
BRANCH   3   4
HETATM    4  C   UNL     1     -11.521   4.501  64.384  1.00  0.00     0.957 C  
BRANCH   4   5
HETATM    5  C   UNL     1     -10.469   4.426  65.445  1.00  0.00    -0.193 A  
HETATM    6  N   UNL     1     -10.428   3.436  66.314  1.00  0.00     1.210 NA 
HETATM    7  C   UNL     1      -9.327   3.646  67.080  1.00  0.00    -0.198 A  
HETATM    8  C   UNL     1      -8.671   4.793  66.698  1.00  0.00    -0.111 A  
HETATM    9  N   UNL     1      -9.442   5.338  65.677  1.00  0.00    -0.125 NA 
BRANCH   8  10
HETATM   10  C   UNL     1      -7.451   5.349  67.123  1.00  0.00    -0.084 C  
HETATM   11  O   UNL     1      -5.507   6.565  69.847  1.00  0.00    -0.014 OA 
HETATM   12  C   UNL     1      -7.257   5.863  68.355  1.00  0.00    -0.083 C  
HETATM   13  C   UNL     1      -5.880   6.401  68.566  1.00  0.00    -0.020 C  
HETATM   14  O   UNL     1      -5.135   6.697  67.643  1.00  0.00    -0.004 OA 
BRANCH  12  15
HETATM   15  C   UNL     1      -8.298   5.965  69.438  1.00  0.00    -0.114 C  
BRANCH  15  16
HETATM   16  C   UNL     1      -8.280   4.900  70.504  1.00  0.00    -0.096 A  
HETATM   17  C   UNL     1      -7.900   2.941  71.712  1.00  0.00    -0.053 A  
HETATM   18  C   UNL     1      -7.512   3.756  70.609  1.00  0.00    -0.041 A  
HETATM   19  C   UNL     1      -8.903   3.520  72.453  1.00  0.00    -0.088 A  
HETATM   20  S   UNL     1      -9.370   5.039  71.826  1.00  0.00    -0.150 SA 
ENDBRANCH  15  16
ENDBRANCH  12  15
ENDBRANCH   8  10
BRANCH   9  21
HETATM   21  C   UNL     1      -9.347   6.705  65.137  1.00  0.00     0.818 C  
BRANCH  21  22
HETATM   22  C   UNL     1      -9.761   7.802  66.097  1.00  0.00    -0.057 A  
HETATM   23  C   UNL     1      -9.731   9.153  65.725  1.00  0.00    -0.299 A  
HETATM   24  C   UNL     1     -10.265  10.145  66.551  1.00  0.00    -0.288 A  
HETATM   25  C   UNL     1     -10.161   7.501  67.407  1.00  0.00    -0.282 A  
HETATM   26  O   UNL     1     -12.623  10.361  69.195  1.00  0.00    -0.058 OA 
HETATM   27  C   UNL     1     -10.702   8.483  68.241  1.00  0.00    -0.092 A  
HETATM   28  C   UNL     1     -10.820   9.796  67.781  1.00  0.00    -0.306 A  
HETATM   29  O   UNL     1     -11.198  12.009  68.578  1.00  0.00    -0.216 OA 
HETATM   30  C   UNL     1     -11.528  10.837  68.562  1.00  0.00    -0.292 C  
ENDBRANCH  21  22
ENDBRANCH   9  21
ENDBRANCH   4   5
ENDBRANCH   3   4
ENDBRANCH   2   3
TORSDOF 8
ENDMDL
MODEL      268
REMARK 921   NORMALIZED FREE ENERGY PREDICTED BY IDOCK:    1.83 KCAL/MOL
REMARK 922        TOTAL FREE ENERGY PREDICTED BY IDOCK:    0.57 KCAL/MOL
REMARK 923 INTER-LIGAND FREE ENERGY PREDICTED BY IDOCK:   -3.45 KCAL/MOL
REMARK 924 INTRA-LIGAND FREE ENERGY PREDICTED BY IDOCK:    4.02 KCAL/MOL
REMARK 927      BINDING AFFINITY PREDICTED BY RF-SCORE:    0.00 PKD
ROOT
HETATM    1  C   UNL     1      -9.692   6.879  65.690  1.00  0.00     0.668 C  
HETATM    2  C   UNL     1      -9.645   5.358  65.749  1.00  0.00    -0.072 C  
ENDROOT
BRANCH   2   3
HETATM    3  C   UNL     1      -8.241   4.858  65.406  1.00  0.00    -0.121 C  
BRANCH   3   4
HETATM    4  C   UNL     1      -7.085   5.731  65.884  1.00  0.00    -0.070 C  
BRANCH   4   5
HETATM    5  C   UNL     1      -7.501   6.916  66.698  1.00  0.00    -0.082 A  
HETATM    6  N   UNL     1      -7.162   8.144  66.361  1.00  0.00    -0.078 NA 
HETATM    7  C   UNL     1      -7.752   8.964  67.268  1.00  0.00    -0.092 A  
HETATM    8  C   UNL     1      -8.461   8.243  68.199  1.00  0.00    -0.132 A  
HETATM    9  N   UNL     1      -8.252   6.907  67.871  1.00  0.00    -0.114 NA 
BRANCH   8  10
HETATM   10  C   UNL     1      -9.303   8.656  69.248  1.00  0.00    -0.153 C  
HETATM   11  O   UNL     1     -12.506   9.878  70.207  1.00  0.00    -0.116 OA 
HETATM   12  C   UNL     1     -10.484   9.276  69.054  1.00  0.00    -0.233 C  
HETATM   13  C   UNL     1     -11.191   9.622  70.322  1.00  0.00    -0.271 C  
HETATM   14  O   UNL     1     -10.622   9.691  71.402  1.00  0.00    -0.302 OA 
BRANCH  12  15
HETATM   15  C   UNL     1     -11.064   9.661  67.718  1.00  0.00    -0.089 C  
BRANCH  15  16
HETATM   16  C   UNL     1     -10.857  11.084  67.268  1.00  0.00    -0.281 A  
HETATM   17  C   UNL     1     -11.126  13.199  66.323  1.00  0.00    -0.308 A  
HETATM   18  C   UNL     1     -11.758  11.995  66.750  1.00  0.00    -0.339 A  
HETATM   19  C   UNL     1      -9.777  13.197  66.593  1.00  0.00    -0.261 A  
HETATM   20  S   UNL     1      -9.278  11.755  67.359  1.00  0.00    -0.179 SA 
ENDBRANCH  15  16
ENDBRANCH  12  15
ENDBRANCH   8  10
BRANCH   9  21
HETATM   21  C   UNL     1      -8.536   5.738  68.720  1.00  0.00    -0.107 C  
BRANCH  21  22
HETATM   22  C   UNL     1      -8.012   5.836  70.139  1.00  0.00    -0.100 A  
HETATM   23  C   UNL     1      -6.720   5.408  70.476  1.00  0.00    -0.047 A  
HETATM   24  C   UNL     1      -6.184   5.648  71.744  1.00  0.00    -0.039 A  
HETATM   25  C   UNL     1      -8.819   6.331  71.173  1.00  0.00    -0.142 A  
HETATM   26  O   UNL     1      -6.733   7.893  74.436  1.00  0.00    -0.102 OA 
HETATM   27  C   UNL     1      -8.293   6.581  72.444  1.00  0.00    -0.108 A  
HETATM   28  C   UNL     1      -6.949   6.304  72.706  1.00  0.00    -0.075 A  
HETATM   29  O   UNL     1      -5.434   6.040  74.526  1.00  0.00    -0.043 OA 
HETATM   30  C   UNL     1      -6.305   6.695  73.981  1.00  0.00    -0.065 C  
ENDBRANCH  21  22
ENDBRANCH   9  21
ENDBRANCH   4   5
ENDBRANCH   3   4
ENDBRANCH   2   3
TORSDOF 8
ENDMDL
MODEL      269
REMARK 921   NORMALIZED FREE ENERGY PREDICTED BY IDOCK:    1.93 KCAL/MOL
REMARK 922        TOTAL FREE ENERGY PREDICTED BY IDOCK:    0.71 KCAL/MOL
REMARK 923 INTER-LIGAND FREE ENERGY PREDICTED BY IDOCK:    2.05 KCAL/MOL
REMARK 924 INTRA-LIGAND FREE ENERGY PREDICTED BY IDOCK:   -1.34 KCAL/MOL
REMARK 927      BINDING AFFINITY PREDICTED BY RF-SCORE:    0.00 PKD
ROOT
HETATM    1  C   UNL     1     -10.918  19.254  66.528  1.00  0.00    -0.252 C  
HETATM    2  C   UNL     1     -11.967  18.174  66.292  1.00  0.00     3.783 C  
ENDROOT
BRANCH   2   3
HETATM    3  C   UNL     1     -11.318  16.790  66.326  1.00  0.00     0.734 C  
BRANCH   3   4
HETATM    4  C   UNL     1     -10.072  16.657  67.196  1.00  0.00    -0.276 C  
BRANCH   4   5
HETATM    5  C   UNL     1     -10.049  15.437  68.062  1.00  0.00    -0.226 A  
HETATM    6  N   UNL     1      -9.178  15.296  69.041  1.00  0.00    -0.210 NA 
HETATM    7  C   UNL     1      -9.479  14.121  69.651  1.00  0.00     0.784 A  
HETATM    8  C   UNL     1     -10.546  13.505  69.041  1.00  0.00    -0.098 A  
HETATM    9  N   UNL     1     -10.884  14.325  67.968  1.00  0.00    -0.236 NA 
BRANCH   8  10
HETATM   10  C   UNL     1     -11.266  12.344  69.378  1.00  0.00    -0.225 C  
HETATM   11  O   UNL     1     -11.148   9.009  70.618  1.00  0.00    -0.245 OA 
HETATM   12  C   UNL     1     -10.681  11.160  69.651  1.00  0.00    -0.144 C  
HETATM   13  C   UNL     1     -11.654  10.076  69.975  1.00  0.00    -0.214 C  
HETATM   14  O   UNL     1     -12.836  10.130  69.665  1.00  0.00     0.127 OA 
BRANCH  12  15
HETATM   15  C   UNL     1      -9.202  10.878  69.599  1.00  0.00     0.372 C  
BRANCH  15  16
HETATM   16  C   UNL     1      -8.678  10.219  68.350  1.00  0.00    -0.129 A  
HETATM   17  C   UNL     1      -8.379   8.819  66.508  1.00  0.00    -0.112 A  
HETATM   18  C   UNL     1      -9.271   9.292  67.513  1.00  0.00    -0.140 A  
HETATM   19  C   UNL     1      -7.157   9.448  66.565  1.00  0.00    -0.085 A  
HETATM   20  S   UNL     1      -7.089  10.605  67.820  1.00  0.00    -0.084 SA 
ENDBRANCH  15  16
ENDBRANCH  12  15
ENDBRANCH   8  10
BRANCH   9  21
HETATM   21  C   UNL     1     -11.749  13.974  66.831  1.00  0.00    -0.410 C  
BRANCH  21  22
HETATM   22  C   UNL     1     -11.063  13.210  65.717  1.00  0.00    -0.293 A  
HETATM   23  C   UNL     1      -9.695  12.905  65.769  1.00  0.00    -0.155 A  
HETATM   24  C   UNL     1      -9.102  12.065  64.824  1.00  0.00     0.488 A  
HETATM   25  C   UNL     1     -11.771  12.808  64.575  1.00  0.00    -0.420 A  
HETATM   26  O   UNL     1     -10.134   9.544  62.549  1.00  0.00     1.041 OA 
HETATM   27  C   UNL     1     -11.190  11.963  63.625  1.00  0.00    -0.522 A  
HETATM   28  C   UNL     1      -9.872  11.533  63.791  1.00  0.00    -0.348 A  
HETATM   29  O   UNL     1      -8.090  10.517  62.580  1.00  0.00    -0.155 OA 
HETATM   30  C   UNL     1      -9.264  10.516  62.903  1.00  0.00    -0.304 C  
ENDBRANCH  21  22
ENDBRANCH   9  21
ENDBRANCH   4   5
ENDBRANCH   3   4
ENDBRANCH   2   3
TORSDOF 8
ENDMDL
MODEL      270
REMARK 921   NORMALIZED FREE ENERGY PREDICTED BY IDOCK:    3.09 KCAL/MOL
REMARK 922        TOTAL FREE ENERGY PREDICTED BY IDOCK:    2.42 KCAL/MOL
REMARK 923 INTER-LIGAND FREE ENERGY PREDICTED BY IDOCK:    2.11 KCAL/MOL
REMARK 924 INTRA-LIGAND FREE ENERGY PREDICTED BY IDOCK:    0.31 KCAL/MOL
REMARK 927      BINDING AFFINITY PREDICTED BY RF-SCORE:    0.00 PKD
ROOT
HETATM    1  C   UNL     1      -7.411  15.004  71.827  1.00  0.00     3.080 C  
HETATM    2  C   UNL     1      -6.425  15.564  70.810  1.00  0.00     0.503 C  
ENDROOT
BRANCH   2   3
HETATM    3  C   UNL     1      -5.306  14.556  70.546  1.00  0.00    -0.125 C  
BRANCH   3   4
HETATM    4  C   UNL     1      -5.168  14.071  69.107  1.00  0.00    -0.074 C  
BRANCH   4   5
HETATM    5  C   UNL     1      -6.402  13.435  68.548  1.00  0.00    -0.087 A  
HETATM    6  N   UNL     1      -7.596  13.967  68.718  1.00  0.00    -0.125 NA 
HETATM    7  C   UNL     1      -8.466  13.178  68.036  1.00  0.00    -0.181 A  
HETATM    8  C   UNL     1      -7.814  12.125  67.439  1.00  0.00    -0.168 A  
HETATM    9  N   UNL     1      -6.481  12.251  67.818  1.00  0.00    -0.092 NA 
BRANCH   8  10
HETATM   10  C   UNL     1      -8.273  11.126  66.562  1.00  0.00    -0.167 C  
HETATM   11  O   UNL     1     -11.056   9.664  64.890  1.00  0.00     2.351 OA 
HETATM   12  C   UNL     1      -9.579  10.841  66.377  1.00  0.00    -0.226 C  
HETATM   13  C   UNL     1      -9.815   9.736  65.403  1.00  0.00    -0.295 C  
HETATM   14  O   UNL     1      -8.952   8.926  65.095  1.00  0.00    -0.197 OA 
BRANCH  12  15
HETATM   15  C   UNL     1     -10.730  11.498  67.092  1.00  0.00    -0.294 C  
BRANCH  15  16
HETATM   16  C   UNL     1     -11.160  12.853  66.593  1.00  0.00    -0.284 A  
HETATM   17  C   UNL     1     -12.278  14.875  66.273  1.00  0.00     0.105 A  
HETATM   18  C   UNL     1     -12.050  13.762  67.133  1.00  0.00    -0.416 A  
HETATM   19  C   UNL     1     -11.503  14.816  65.138  1.00  0.00    -0.371 A  
HETATM   20  S   UNL     1     -10.506  13.431  65.112  1.00  0.00    -0.356 SA 
ENDBRANCH  15  16
ENDBRANCH  12  15
ENDBRANCH   8  10
BRANCH   9  21
HETATM   21  C   UNL     1      -5.432  11.224  67.701  1.00  0.00    -0.043 C  
BRANCH  21  22
HETATM   22  C   UNL     1      -5.570  10.057  68.657  1.00  0.00    -0.038 A  
HETATM   23  C   UNL     1      -5.913  10.247  70.003  1.00  0.00    -0.063 A  
HETATM   24  C   UNL     1      -6.197   9.164  70.839  1.00  0.00    -0.062 A  
HETATM   25  C   UNL     1      -5.326   8.743  68.232  1.00  0.00    -0.034 A  
HETATM   26  O   UNL     1      -7.221   5.784  70.490  1.00  0.00    -0.073 OA 
HETATM   27  C   UNL     1      -5.613   7.652  69.057  1.00  0.00    -0.022 A  
HETATM   28  C   UNL     1      -6.118   7.865  70.341  1.00  0.00    -0.029 A  
HETATM   29  O   UNL     1      -6.468   6.729  72.405  1.00  0.00    -0.056 OA 
HETATM   30  C   UNL     1      -6.585   6.748  71.194  1.00  0.00    -0.053 C  
ENDBRANCH  21  22
ENDBRANCH   9  21
ENDBRANCH   4   5
ENDBRANCH   3   4
ENDBRANCH   2   3
TORSDOF 8
ENDMDL
MODEL      271
REMARK 921   NORMALIZED FREE ENERGY PREDICTED BY IDOCK:    3.67 KCAL/MOL
REMARK 922        TOTAL FREE ENERGY PREDICTED BY IDOCK:    3.27 KCAL/MOL
REMARK 923 INTER-LIGAND FREE ENERGY PREDICTED BY IDOCK:    1.81 KCAL/MOL
REMARK 924 INTRA-LIGAND FREE ENERGY PREDICTED BY IDOCK:    1.47 KCAL/MOL
REMARK 927      BINDING AFFINITY PREDICTED BY RF-SCORE:    0.00 PKD
ROOT
HETATM    1  C   UNL     1     -10.045  20.907  69.205  1.00  0.00     0.770 C  
HETATM    2  C   UNL     1      -8.863  20.270  69.923  1.00  0.00     1.197 C  
ENDROOT
BRANCH   2   3
HETATM    3  C   UNL     1      -9.355  19.376  71.062  1.00  0.00     2.707 C  
BRANCH   3   4
HETATM    4  C   UNL     1     -10.447  18.374  70.701  1.00  0.00     2.129 C  
BRANCH   4   5
HETATM    5  C   UNL     1     -10.280  17.733  69.359  1.00  0.00    -0.008 A  
HETATM    6  N   UNL     1      -9.406  18.180  68.479  1.00  0.00    -0.305 NA 
HETATM    7  C   UNL     1      -9.473  17.340  67.415  1.00  0.00    -0.245 A  
HETATM    8  C   UNL     1     -10.411  16.356  67.620  1.00  0.00    -0.284 A  
HETATM    9  N   UNL     1     -10.983  16.641  68.856  1.00  0.00    -0.316 NA 
BRANCH   8  10
HETATM   10  C   UNL     1     -10.751  15.225  66.857  1.00  0.00    -0.313 C  
HETATM   11  O   UNL     1      -9.620  12.279  65.208  1.00  0.00    -0.160 OA 
HETATM   12  C   UNL     1      -9.841  14.432  66.255  1.00  0.00    -0.321 C  
HETATM   13  C   UNL     1     -10.448  13.298  65.496  1.00  0.00    -0.288 C  
HETATM   14  O   UNL     1     -11.616  13.291  65.135  1.00  0.00    -0.297 OA 
BRANCH  12  15
HETATM   15  C   UNL     1      -8.350  14.645  66.262  1.00  0.00     0.599 C  
BRANCH  15  16
HETATM   16  C   UNL     1      -7.623  14.331  67.543  1.00  0.00    -0.184 A  
HETATM   17  C   UNL     1      -6.894  13.337  69.523  1.00  0.00     0.081 A  
HETATM   18  C   UNL     1      -7.611  13.176  68.303  1.00  0.00    -0.139 A  
HETATM   19  C   UNL     1      -6.323  14.584  69.626  1.00  0.00    -0.141 A  
HETATM   20  S   UNL     1      -6.647  15.552  68.257  1.00  0.00    -0.133 SA 
ENDBRANCH  15  16
ENDBRANCH  12  15
ENDBRANCH   8  10
BRANCH   9  21
HETATM   21  C   UNL     1     -12.232  16.080  69.397  1.00  0.00     0.036 C  
BRANCH  21  22
HETATM   22  C   UNL     1     -12.121  14.662  69.921  1.00  0.00    -0.385 A  
HETATM   23  C   UNL     1     -12.852  14.232  71.038  1.00  0.00    -0.427 A  
HETATM   24  C   UNL     1     -12.872  12.888  71.419  1.00  0.00    -0.377 A  
HETATM   25  C   UNL     1     -11.254  13.737  69.322  1.00  0.00    -0.291 A  
HETATM   26  O   UNL     1     -12.277   9.731  69.912  1.00  0.00     0.073 OA 
HETATM   27  C   UNL     1     -11.270  12.388  69.690  1.00  0.00    -0.106 A  
HETATM   28  C   UNL     1     -12.136  11.953  70.694  1.00  0.00    -0.389 A  
HETATM   29  O   UNL     1     -12.514  10.093  72.135  1.00  0.00    -0.278 OA 
HETATM   30  C   UNL     1     -12.305  10.516  71.012  1.00  0.00    -0.399 C  
ENDBRANCH  21  22
ENDBRANCH   9  21
ENDBRANCH   4   5
ENDBRANCH   3   4
ENDBRANCH   2   3
TORSDOF 8
ENDMDL
MODEL      272
REMARK 921   NORMALIZED FREE ENERGY PREDICTED BY IDOCK:    4.35 KCAL/MOL
REMARK 922        TOTAL FREE ENERGY PREDICTED BY IDOCK:    4.27 KCAL/MOL
REMARK 923 INTER-LIGAND FREE ENERGY PREDICTED BY IDOCK:    1.67 KCAL/MOL
REMARK 924 INTRA-LIGAND FREE ENERGY PREDICTED BY IDOCK:    2.60 KCAL/MOL
REMARK 927      BINDING AFFINITY PREDICTED BY RF-SCORE:    0.00 PKD
ROOT
HETATM    1  C   UNL     1      -7.411  15.004  71.827  1.00  0.00     3.080 C  
HETATM    2  C   UNL     1      -6.425  15.564  70.810  1.00  0.00     0.503 C  
ENDROOT
BRANCH   2   3
HETATM    3  C   UNL     1      -5.306  14.556  70.546  1.00  0.00    -0.125 C  
BRANCH   3   4
HETATM    4  C   UNL     1      -5.168  14.071  69.107  1.00  0.00    -0.074 C  
BRANCH   4   5
HETATM    5  C   UNL     1      -6.402  13.435  68.548  1.00  0.00    -0.087 A  
HETATM    6  N   UNL     1      -7.596  13.967  68.718  1.00  0.00    -0.125 NA 
HETATM    7  C   UNL     1      -8.466  13.178  68.036  1.00  0.00    -0.181 A  
HETATM    8  C   UNL     1      -7.814  12.125  67.439  1.00  0.00    -0.168 A  
HETATM    9  N   UNL     1      -6.481  12.251  67.818  1.00  0.00    -0.092 NA 
BRANCH   8  10
HETATM   10  C   UNL     1      -8.273  11.126  66.562  1.00  0.00    -0.167 C  
HETATM   11  O   UNL     1     -11.056   9.664  64.890  1.00  0.00     2.351 OA 
HETATM   12  C   UNL     1      -9.579  10.841  66.377  1.00  0.00    -0.226 C  
HETATM   13  C   UNL     1      -9.815   9.736  65.403  1.00  0.00    -0.295 C  
HETATM   14  O   UNL     1      -8.952   8.926  65.095  1.00  0.00    -0.197 OA 
BRANCH  12  15
HETATM   15  C   UNL     1     -10.730  11.498  67.092  1.00  0.00    -0.294 C  
BRANCH  15  16
HETATM   16  C   UNL     1     -11.013  11.036  68.498  1.00  0.00    -0.228 A  
HETATM   17  C   UNL     1     -11.899  10.785  70.641  1.00  0.00    -0.460 A  
HETATM   18  C   UNL     1     -12.079  11.318  69.332  1.00  0.00    -0.384 A  
HETATM   19  C   UNL     1     -10.737  10.055  70.746  1.00  0.00    -0.202 A  
HETATM   20  S   UNL     1      -9.873  10.010  69.274  1.00  0.00    -0.226 SA 
ENDBRANCH  15  16
ENDBRANCH  12  15
ENDBRANCH   8  10
BRANCH   9  21
HETATM   21  C   UNL     1      -5.432  11.224  67.701  1.00  0.00    -0.043 C  
BRANCH  21  22
HETATM   22  C   UNL     1      -5.940   9.801  67.588  1.00  0.00    -0.047 A  
HETATM   23  C   UNL     1      -6.991   9.331  68.389  1.00  0.00    -0.067 A  
HETATM   24  C   UNL     1      -7.563   8.075  68.171  1.00  0.00    -0.109 A  
HETATM   25  C   UNL     1      -5.351   8.893  66.696  1.00  0.00    -0.039 A  
HETATM   26  O   UNL     1      -7.821   5.741  65.510  1.00  0.00    -0.093 OA 
HETATM   27  C   UNL     1      -5.918   7.636  66.465  1.00  0.00    -0.040 A  
HETATM   28  C   UNL     1      -7.071   7.257  67.155  1.00  0.00    -0.087 A  
HETATM   29  O   UNL     1      -8.371   5.327  67.667  1.00  0.00    -0.106 OA 
HETATM   30  C   UNL     1      -7.798   6.007  66.835  1.00  0.00    -0.101 C  
ENDBRANCH  21  22
ENDBRANCH   9  21
ENDBRANCH   4   5
ENDBRANCH   3   4
ENDBRANCH   2   3
TORSDOF 8
ENDMDL
MODEL      273
REMARK 921   NORMALIZED FREE ENERGY PREDICTED BY IDOCK:    4.58 KCAL/MOL
REMARK 922        TOTAL FREE ENERGY PREDICTED BY IDOCK:    4.61 KCAL/MOL
REMARK 923 INTER-LIGAND FREE ENERGY PREDICTED BY IDOCK:   -0.69 KCAL/MOL
REMARK 924 INTRA-LIGAND FREE ENERGY PREDICTED BY IDOCK:    5.29 KCAL/MOL
REMARK 927      BINDING AFFINITY PREDICTED BY RF-SCORE:    0.00 PKD
ROOT
HETATM    1  C   UNL     1      -7.718  18.755  64.333  1.00  0.00     4.498 C  
HETATM    2  C   UNL     1      -6.478  18.388  65.137  1.00  0.00    -0.080 C  
ENDROOT
BRANCH   2   3
HETATM    3  C   UNL     1      -6.830  18.250  66.619  1.00  0.00    -0.230 C  
BRANCH   3   4
HETATM    4  C   UNL     1      -8.316  18.296  66.960  1.00  0.00    -0.256 C  
BRANCH   4   5
HETATM    5  C   UNL     1      -9.051  17.019  66.698  1.00  0.00    -0.254 A  
HETATM    6  N   UNL     1     -10.102  16.971  65.904  1.00  0.00    -0.522 NA 
HETATM    7  C   UNL     1     -10.474  15.667  65.843  1.00  0.00    -0.344 A  
HETATM    8  C   UNL     1      -9.656  14.882  66.621  1.00  0.00    -0.266 A  
HETATM    9  N   UNL     1      -8.766  15.762  67.228  1.00  0.00    -0.182 NA 
BRANCH   8  10
HETATM   10  C   UNL     1      -9.592  13.487  66.786  1.00  0.00    -0.268 C  
HETATM   11  O   UNL     1     -11.370  10.464  67.401  1.00  0.00    -0.355 OA 
HETATM   12  C   UNL     1     -10.622  12.743  67.239  1.00  0.00    -0.245 C  
HETATM   13  C   UNL     1     -10.309  11.287  67.335  1.00  0.00    -0.200 C  
HETATM   14  O   UNL     1      -9.166  10.855  67.373  1.00  0.00    -0.147 OA 
BRANCH  12  15
HETATM   15  C   UNL     1     -11.963  13.274  67.673  1.00  0.00    -0.366 C  
BRANCH  15  16
HETATM   16  C   UNL     1     -11.969  14.272  68.801  1.00  0.00    -0.311 A  
HETATM   17  C   UNL     1     -11.996  16.237  70.058  1.00  0.00     0.120 A  
HETATM   18  C   UNL     1     -12.227  15.630  68.790  1.00  0.00     0.023 A  
HETATM   19  C   UNL     1     -11.637  15.315  71.013  1.00  0.00    -0.356 A  
HETATM   20  S   UNL     1     -11.584  13.728  70.385  1.00  0.00     0.027 SA 
ENDBRANCH  15  16
ENDBRANCH  12  15
ENDBRANCH   8  10
BRANCH   9  21
HETATM   21  C   UNL     1      -7.890  15.475  68.376  1.00  0.00    -0.126 C  
BRANCH  21  22
HETATM   22  C   UNL     1      -7.269  16.694  69.028  1.00  0.00    -0.222 A  
HETATM   23  C   UNL     1      -7.922  17.935  69.036  1.00  0.00    -0.070 A  
HETATM   24  C   UNL     1      -7.424  19.012  69.774  1.00  0.00     0.322 A  
HETATM   25  C   UNL     1      -6.000  16.628  69.620  1.00  0.00    -0.214 A  
HETATM   26  O   UNL     1      -5.277  19.510  72.555  1.00  0.00    -0.228 OA 
HETATM   27  C   UNL     1      -5.494  17.696  70.367  1.00  0.00    -0.260 A  
HETATM   28  C   UNL     1      -6.245  18.866  70.502  1.00  0.00     0.127 A  
HETATM   29  O   UNL     1      -6.023  21.141  71.173  1.00  0.00    -0.017 OA 
HETATM   30  C   UNL     1      -5.829  19.962  71.407  1.00  0.00    -0.286 C  
ENDBRANCH  21  22
ENDBRANCH   9  21
ENDBRANCH   4   5
ENDBRANCH   3   4
ENDBRANCH   2   3
TORSDOF 8
ENDMDL
MODEL      274
REMARK 921   NORMALIZED FREE ENERGY PREDICTED BY IDOCK:    4.82 KCAL/MOL
REMARK 922        TOTAL FREE ENERGY PREDICTED BY IDOCK:    4.95 KCAL/MOL
REMARK 923 INTER-LIGAND FREE ENERGY PREDICTED BY IDOCK:   -3.09 KCAL/MOL
REMARK 924 INTRA-LIGAND FREE ENERGY PREDICTED BY IDOCK:    8.05 KCAL/MOL
REMARK 927      BINDING AFFINITY PREDICTED BY RF-SCORE:    0.00 PKD
ROOT
HETATM    1  C   UNL     1     -12.656  11.021  63.961  1.00  0.00     1.951 C  
HETATM    2  C   UNL     1     -11.667  11.369  65.067  1.00  0.00     0.188 C  
ENDROOT
BRANCH   2   3
HETATM    3  C   UNL     1     -10.235  11.309  64.533  1.00  0.00    -0.370 C  
BRANCH   3   4
HETATM    4  C   UNL     1      -9.264  12.336  65.108  1.00  0.00     0.356 C  
BRANCH   4   5
HETATM    5  C   UNL     1      -9.804  13.730  65.170  1.00  0.00    -0.093 A  
HETATM    6  N   UNL     1     -10.752  14.146  64.354  1.00  0.00    -0.279 NA 
HETATM    7  C   UNL     1     -11.042  15.419  64.725  1.00  0.00    -0.403 A  
HETATM    8  C   UNL     1     -10.258  15.818  65.782  1.00  0.00    -0.370 A  
HETATM    9  N   UNL     1      -9.408  14.746  66.037  1.00  0.00    -0.259 NA 
BRANCH   8  10
HETATM   10  C   UNL     1     -10.271  16.992  66.556  1.00  0.00    -0.321 C  
HETATM   11  O   UNL     1      -8.457  19.182  68.698  1.00  0.00    -0.350 OA 
HETATM   12  C   UNL     1      -9.292  17.323  67.422  1.00  0.00    -0.236 C  
HETATM   13  C   UNL     1      -9.536  18.613  68.132  1.00  0.00    -0.325 C  
HETATM   14  O   UNL     1     -10.643  19.123  68.221  1.00  0.00    -0.336 OA 
BRANCH  12  15
HETATM   15  C   UNL     1      -8.074  16.492  67.729  1.00  0.00    -0.170 C  
BRANCH  15  16
HETATM   16  C   UNL     1      -6.901  17.204  68.351  1.00  0.00    -0.191 A  
HETATM   17  C   UNL     1      -5.156  17.847  69.759  1.00  0.00    -0.195 A  
HETATM   18  C   UNL     1      -6.067  16.818  69.383  1.00  0.00    -0.211 A  
HETATM   19  C   UNL     1      -5.275  18.959  68.958  1.00  0.00    -0.192 A  
HETATM   20  S   UNL     1      -6.474  18.760  67.758  1.00  0.00    -0.212 SA 
ENDBRANCH  15  16
ENDBRANCH  12  15
ENDBRANCH   8  10
BRANCH   9  21
HETATM   21  C   UNL     1      -8.186  14.769  66.858  1.00  0.00    -0.109 C  
BRANCH  21  22
HETATM   22  C   UNL     1      -7.839  13.454  67.525  1.00  0.00    -0.181 A  
HETATM   23  C   UNL     1      -6.525  12.964  67.545  1.00  0.00    -0.162 A  
HETATM   24  C   UNL     1      -6.182  11.838  68.298  1.00  0.00    -0.050 A  
HETATM   25  C   UNL     1      -8.832  12.663  68.121  1.00  0.00    -0.194 A  
HETATM   26  O   UNL     1      -7.466  10.065  71.091  1.00  0.00    -0.137 OA 
HETATM   27  C   UNL     1      -8.501  11.538  68.881  1.00  0.00     0.011 A  
HETATM   28  C   UNL     1      -7.162  11.168  69.028  1.00  0.00    -0.118 A  
HETATM   29  O   UNL     1      -5.815   9.332  69.725  1.00  0.00    -0.035 OA 
HETATM   30  C   UNL     1      -6.747  10.083  69.946  1.00  0.00    -0.099 C  
ENDBRANCH  21  22
ENDBRANCH   9  21
ENDBRANCH   4   5
ENDBRANCH   3   4
ENDBRANCH   2   3
TORSDOF 8
ENDMDL
MODEL      275
REMARK 921   NORMALIZED FREE ENERGY PREDICTED BY IDOCK:    4.85 KCAL/MOL
REMARK 922        TOTAL FREE ENERGY PREDICTED BY IDOCK:    5.00 KCAL/MOL
REMARK 923 INTER-LIGAND FREE ENERGY PREDICTED BY IDOCK:   -2.94 KCAL/MOL
REMARK 924 INTRA-LIGAND FREE ENERGY PREDICTED BY IDOCK:    7.93 KCAL/MOL
REMARK 927      BINDING AFFINITY PREDICTED BY RF-SCORE:    0.00 PKD
ROOT
HETATM    1  C   UNL     1      -6.204  15.765  69.309  1.00  0.00    -0.138 C  
HETATM    2  C   UNL     1      -6.859  16.095  67.974  1.00  0.00    -0.138 C  
ENDROOT
BRANCH   2   3
HETATM    3  C   UNL     1      -8.035  15.152  67.715  1.00  0.00    -0.155 C  
BRANCH   3   4
HETATM    4  C   UNL     1      -7.750  13.962  66.805  1.00  0.00     0.596 C  
BRANCH   4   5
HETATM    5  C   UNL     1      -7.707  12.642  67.508  1.00  0.00    -0.161 A  
HETATM    6  N   UNL     1      -6.845  11.703  67.173  1.00  0.00    -0.131 NA 
HETATM    7  C   UNL     1      -7.038  10.680  68.044  1.00  0.00    -0.085 A  
HETATM    8  C   UNL     1      -8.046  10.970  68.933  1.00  0.00    -0.135 A  
HETATM    9  N   UNL     1      -8.527  12.219  68.552  1.00  0.00    -0.123 NA 
BRANCH   8  10
HETATM   10  C   UNL     1      -8.521  10.272  70.058  1.00  0.00     0.084 C  
HETATM   11  O   UNL     1      -9.750   7.199  71.370  1.00  0.00    -0.169 OA 
HETATM   12  C   UNL     1      -9.102   9.056  69.989  1.00  0.00    -0.187 C  
HETATM   13  C   UNL     1      -9.530   8.524  71.316  1.00  0.00    -0.205 C  
HETATM   14  O   UNL     1      -9.694   9.237  72.295  1.00  0.00    -0.046 OA 
BRANCH  12  15
HETATM   15  C   UNL     1      -9.371   8.283  68.724  1.00  0.00    -0.143 C  
BRANCH  15  16
HETATM   16  C   UNL     1      -9.868   9.067  67.538  1.00  0.00    -0.179 A  
HETATM   17  C   UNL     1     -10.049  10.143  65.477  1.00  0.00    -0.338 A  
HETATM   18  C   UNL     1      -9.339   9.195  66.267  1.00  0.00    -0.274 A  
HETATM   19  C   UNL     1     -11.137  10.658  66.142  1.00  0.00     0.203 A  
HETATM   20  S   UNL     1     -11.303   9.997  67.708  1.00  0.00     0.364 SA 
ENDBRANCH  15  16
ENDBRANCH  12  15
ENDBRANCH   8  10
BRANCH   9  21
HETATM   21  C   UNL     1      -9.790  12.842  68.981  1.00  0.00     0.304 C  
BRANCH  21  22
HETATM   22  C   UNL     1     -10.115  14.158  68.303  1.00  0.00    -0.241 A  
HETATM   23  C   UNL     1     -10.167  15.361  69.021  1.00  0.00    -0.233 A  
HETATM   24  C   UNL     1     -10.307  16.589  68.370  1.00  0.00    -0.294 A  
HETATM   25  C   UNL     1     -10.408  14.211  66.932  1.00  0.00    -0.269 A  
HETATM   26  O   UNL     1      -9.726  17.916  65.130  1.00  0.00     0.487 OA 
HETATM   27  C   UNL     1     -10.543  15.434  66.269  1.00  0.00    -0.311 A  
HETATM   28  C   UNL     1     -10.419  16.628  66.981  1.00  0.00    -0.283 A  
HETATM   29  O   UNL     1     -10.872  18.959  66.781  1.00  0.00    -0.370 OA 
HETATM   30  C   UNL     1     -10.397  17.945  66.303  1.00  0.00    -0.364 C  
ENDBRANCH  21  22
ENDBRANCH   9  21
ENDBRANCH   4   5
ENDBRANCH   3   4
ENDBRANCH   2   3
TORSDOF 8
ENDMDL
MODEL      276
REMARK 921   NORMALIZED FREE ENERGY PREDICTED BY IDOCK:    5.34 KCAL/MOL
REMARK 922        TOTAL FREE ENERGY PREDICTED BY IDOCK:    5.73 KCAL/MOL
REMARK 923 INTER-LIGAND FREE ENERGY PREDICTED BY IDOCK:   -0.85 KCAL/MOL
REMARK 924 INTRA-LIGAND FREE ENERGY PREDICTED BY IDOCK:    6.57 KCAL/MOL
REMARK 927      BINDING AFFINITY PREDICTED BY RF-SCORE:    0.00 PKD
ROOT
HETATM    1  C   UNL     1     -12.006   9.142  69.732  1.00  0.00     0.590 C  
HETATM    2  C   UNL     1     -12.075  10.636  70.024  1.00  0.00    -0.393 C  
ENDROOT
BRANCH   2   3
HETATM    3  C   UNL     1     -12.388  10.871  71.502  1.00  0.00    -0.344 C  
BRANCH   3   4
HETATM    4  C   UNL     1     -13.093  12.183  71.835  1.00  0.00    -0.475 C  
BRANCH   4   5
HETATM    5  C   UNL     1     -12.306  13.410  71.499  1.00  0.00    -0.038 A  
HETATM    6  N   UNL     1     -12.618  14.592  71.991  1.00  0.00    -0.326 NA 
HETATM    7  C   UNL     1     -11.673  15.455  71.539  1.00  0.00    -0.404 A  
HETATM    8  C   UNL     1     -10.759  14.812  70.738  1.00  0.00     0.251 A  
HETATM    9  N   UNL     1     -11.199  13.494  70.658  1.00  0.00     0.631 NA 
BRANCH   8  10
HETATM   10  C   UNL     1      -9.569  15.264  70.139  1.00  0.00     0.190 C  
HETATM   11  O   UNL     1      -7.710  18.037  68.903  1.00  0.00    -0.278 OA 
HETATM   12  C   UNL     1      -9.411  16.509  69.646  1.00  0.00     0.272 C  
HETATM   13  C   UNL     1      -8.061  16.748  69.054  1.00  0.00    -0.179 C  
HETATM   14  O   UNL     1      -7.319  15.841  68.705  1.00  0.00    -0.126 OA 
BRANCH  12  15
HETATM   15  C   UNL     1     -10.467  17.581  69.614  1.00  0.00     0.237 C  
BRANCH  15  16
HETATM   16  C   UNL     1     -10.550  18.422  68.366  1.00  0.00    -0.135 A  
HETATM   17  C   UNL     1     -11.309  19.700  66.569  1.00  0.00     0.343 A  
HETATM   18  C   UNL     1     -11.605  19.150  67.850  1.00  0.00     1.277 A  
HETATM   19  C   UNL     1     -10.017  19.432  66.179  1.00  0.00    -0.425 A  
HETATM   20  S   UNL     1      -9.166  18.530  67.353  1.00  0.00    -0.281 SA 
ENDBRANCH  15  16
ENDBRANCH  12  15
ENDBRANCH   8  10
BRANCH   9  21
HETATM   21  C   UNL     1     -10.754  12.476  69.692  1.00  0.00     0.461 C  
BRANCH  21  22
HETATM   22  C   UNL     1     -11.093  12.775  68.246  1.00  0.00    -0.288 A  
HETATM   23  C   UNL     1     -12.149  12.126  67.590  1.00  0.00     0.017 A  
HETATM   24  C   UNL     1     -12.560  12.519  66.314  1.00  0.00     0.659 A  
HETATM   25  C   UNL     1     -10.337  13.692  67.502  1.00  0.00    -0.241 A  
HETATM   26  O   UNL     1     -12.341  15.408  64.265  1.00  0.00    -0.528 OA 
HETATM   27  C   UNL     1     -10.742  14.097  66.227  1.00  0.00    -0.293 A  
HETATM   28  C   UNL     1     -11.900  13.559  65.663  1.00  0.00    -0.397 A  
HETATM   29  O   UNL     1     -13.021  13.363  63.569  1.00  0.00    -0.334 OA 
HETATM   30  C   UNL     1     -12.458  14.067  64.388  1.00  0.00    -0.289 C  
ENDBRANCH  21  22
ENDBRANCH   9  21
ENDBRANCH   4   5
ENDBRANCH   3   4
ENDBRANCH   2   3
TORSDOF 8
ENDMDL
MODEL      277
REMARK 921   NORMALIZED FREE ENERGY PREDICTED BY IDOCK:    5.96 KCAL/MOL
REMARK 922        TOTAL FREE ENERGY PREDICTED BY IDOCK:    6.63 KCAL/MOL
REMARK 923 INTER-LIGAND FREE ENERGY PREDICTED BY IDOCK:    2.21 KCAL/MOL
REMARK 924 INTRA-LIGAND FREE ENERGY PREDICTED BY IDOCK:    4.42 KCAL/MOL
REMARK 927      BINDING AFFINITY PREDICTED BY RF-SCORE:    0.00 PKD
ROOT
HETATM    1  C   UNL     1      -7.902  19.512  69.919  1.00  0.00     0.515 C  
HETATM    2  C   UNL     1      -7.771  17.994  69.949  1.00  0.00     1.240 C  
ENDROOT
BRANCH   2   3
HETATM    3  C   UNL     1      -9.153  17.343  69.906  1.00  0.00     1.482 C  
BRANCH   3   4
HETATM    4  C   UNL     1      -9.179  15.821  70.006  1.00  0.00     0.343 C  
BRANCH   4   5
HETATM    5  C   UNL     1      -8.941  15.112  68.710  1.00  0.00    -0.197 A  
HETATM    6  N   UNL     1      -7.763  15.121  68.119  1.00  0.00    -0.111 NA 
HETATM    7  C   UNL     1      -7.884  14.339  67.016  1.00  0.00     0.079 A  
HETATM    8  C   UNL     1      -9.160  13.839  66.902  1.00  0.00    -0.242 A  
HETATM    9  N   UNL     1      -9.869  14.387  67.966  1.00  0.00    -0.216 NA 
BRANCH   8  10
HETATM   10  C   UNL     1      -9.719  12.918  65.997  1.00  0.00    -0.228 C  
HETATM   11  O   UNL     1     -12.003  12.363  63.323  1.00  0.00    -0.479 OA 
HETATM   12  C   UNL     1     -10.798  13.186  65.234  1.00  0.00    -0.314 C  
HETATM   13  C   UNL     1     -11.206  12.048  64.359  1.00  0.00    -0.344 C  
HETATM   14  O   UNL     1     -10.863  10.893  64.569  1.00  0.00    -0.279 OA 
BRANCH  12  15
HETATM   15  C   UNL     1     -11.591  14.466  65.254  1.00  0.00    -0.353 C  
BRANCH  15  16
HETATM   16  C   UNL     1     -10.841  15.729  65.591  1.00  0.00    -0.307 A  
HETATM   17  C   UNL     1     -10.258  17.859  66.340  1.00  0.00    -0.372 A  
HETATM   18  C   UNL     1     -11.205  16.796  66.391  1.00  0.00     0.509 A  
HETATM   19  C   UNL     1      -9.170  17.544  65.561  1.00  0.00     0.812 A  
HETATM   20  S   UNL     1      -9.288  15.974  64.899  1.00  0.00     2.462 SA 
ENDBRANCH  15  16
ENDBRANCH  12  15
ENDBRANCH   8  10
BRANCH   9  21
HETATM   21  C   UNL     1     -11.332  14.415  68.127  1.00  0.00    -0.294 C  
BRANCH  21  22
HETATM   22  C   UNL     1     -11.816  14.614  69.549  1.00  0.00    -0.374 A  
HETATM   23  C   UNL     1     -11.883  13.549  70.458  1.00  0.00    -0.254 A  
HETATM   24  C   UNL     1     -12.173  13.764  71.808  1.00  0.00    -0.010 A  
HETATM   25  C   UNL     1     -12.244  15.873  69.996  1.00  0.00    -0.213 A  
HETATM   26  O   UNL     1     -12.008  16.446  74.126  1.00  0.00    -0.348 OA 
HETATM   27  C   UNL     1     -12.530  16.102  71.345  1.00  0.00    -0.149 A  
HETATM   28  C   UNL     1     -12.423  15.057  72.264  1.00  0.00    -0.429 A  
HETATM   29  O   UNL     1     -13.059  14.473  74.485  1.00  0.00     0.880 OA 
HETATM   30  C   UNL     1     -12.561  15.281  73.722  1.00  0.00    -0.600 C  
ENDBRANCH  21  22
ENDBRANCH   9  21
ENDBRANCH   4   5
ENDBRANCH   3   4
ENDBRANCH   2   3
TORSDOF 8
ENDMDL
MODEL      278
REMARK 921   NORMALIZED FREE ENERGY PREDICTED BY IDOCK:    6.59 KCAL/MOL
REMARK 922        TOTAL FREE ENERGY PREDICTED BY IDOCK:    7.56 KCAL/MOL
REMARK 923 INTER-LIGAND FREE ENERGY PREDICTED BY IDOCK:    8.64 KCAL/MOL
REMARK 924 INTRA-LIGAND FREE ENERGY PREDICTED BY IDOCK:   -1.08 KCAL/MOL
REMARK 927      BINDING AFFINITY PREDICTED BY RF-SCORE:    0.00 PKD
ROOT
HETATM    1  C   UNL     1     -12.890   4.970  65.285  1.00  0.00     6.421 C  
HETATM    2  C   UNL     1     -11.554   5.295  64.630  1.00  0.00     2.839 C  
ENDROOT
BRANCH   2   3
HETATM    3  C   UNL     1     -10.537   5.725  65.689  1.00  0.00     0.711 C  
BRANCH   3   4
HETATM    4  C   UNL     1     -10.784   5.207  67.102  1.00  0.00    -0.067 C  
BRANCH   4   5
HETATM    5  C   UNL     1      -9.541   4.868  67.862  1.00  0.00    -0.145 A  
HETATM    6  N   UNL     1      -8.415   4.557  67.251  1.00  0.00    -0.104 NA 
HETATM    7  C   UNL     1      -7.490   4.373  68.227  1.00  0.00    -0.065 A  
HETATM    8  C   UNL     1      -8.042   4.557  69.473  1.00  0.00    -0.061 A  
HETATM    9  N   UNL     1      -9.389   4.818  69.247  1.00  0.00    -0.122 NA 
BRANCH   8  10
HETATM   10  C   UNL     1      -7.459   4.572  70.753  1.00  0.00    -0.052 C  
HETATM   11  O   UNL     1      -5.176   6.155  72.980  1.00  0.00    -0.029 OA 
HETATM   12  C   UNL     1      -6.394   5.334  71.077  1.00  0.00    -0.027 C  
HETATM   13  C   UNL     1      -5.955   5.172  72.494  1.00  0.00    -0.026 C  
HETATM   14  O   UNL     1      -6.258   4.204  73.177  1.00  0.00    -0.018 OA 
BRANCH  12  15
HETATM   15  C   UNL     1      -5.644   6.239  70.135  1.00  0.00    -0.014 C  
BRANCH  15  16
HETATM   16  C   UNL     1      -6.197   7.626  69.935  1.00  0.00    -0.027 A  
HETATM   17  C   UNL     1      -6.540   9.825  69.238  1.00  0.00    -0.052 A  
HETATM   18  C   UNL     1      -5.872   8.589  68.999  1.00  0.00    -0.039 A  
HETATM   19  C   UNL     1      -7.405   9.746  70.305  1.00  0.00    -0.158 A  
HETATM   20  S   UNL     1      -7.414   8.191  71.009  1.00  0.00    -0.073 SA 
ENDBRANCH  15  16
ENDBRANCH  12  15
ENDBRANCH   8  10
BRANCH   9  21
HETATM   21  C   UNL     1     -10.471   4.787  70.244  1.00  0.00     0.024 C  
BRANCH  21  22
HETATM   22  C   UNL     1     -11.053   6.141  70.599  1.00  0.00    -0.384 A  
HETATM   23  C   UNL     1     -10.467   6.959  71.575  1.00  0.00    -0.231 A  
HETATM   24  C   UNL     1     -10.908   8.268  71.784  1.00  0.00    -0.332 A  
HETATM   25  C   UNL     1     -12.222   6.607  69.982  1.00  0.00     0.163 A  
HETATM   26  O   UNL     1     -12.666  10.760  69.969  1.00  0.00    -0.283 OA 
HETATM   27  C   UNL     1     -12.670   7.917  70.178  1.00  0.00     1.206 A  
HETATM   28  C   UNL     1     -11.965   8.771  71.028  1.00  0.00    -0.291 A  
HETATM   29  O   UNL     1     -12.201  10.841  72.184  1.00  0.00     0.261 OA 
HETATM   30  C   UNL     1     -12.304  10.209  71.149  1.00  0.00    -0.385 C  
ENDBRANCH  21  22
ENDBRANCH   9  21
ENDBRANCH   4   5
ENDBRANCH   3   4
ENDBRANCH   2   3
TORSDOF 8
ENDMDL
MODEL      279
REMARK 921   NORMALIZED FREE ENERGY PREDICTED BY IDOCK:    9.23 KCAL/MOL
REMARK 922        TOTAL FREE ENERGY PREDICTED BY IDOCK:   11.44 KCAL/MOL
REMARK 923 INTER-LIGAND FREE ENERGY PREDICTED BY IDOCK:    0.93 KCAL/MOL
REMARK 924 INTRA-LIGAND FREE ENERGY PREDICTED BY IDOCK:   10.51 KCAL/MOL
REMARK 927      BINDING AFFINITY PREDICTED BY RF-SCORE:    0.00 PKD
ROOT
HETATM    1  C   UNL     1     -10.432   7.519  66.083  1.00  0.00     0.803 C  
HETATM    2  C   UNL     1      -9.420   6.592  66.745  1.00  0.00    -0.188 C  
ENDROOT
BRANCH   2   3
HETATM    3  C   UNL     1     -10.027   5.953  67.994  1.00  0.00    -0.161 C  
BRANCH   3   4
HETATM    4  C   UNL     1     -10.880   6.869  68.867  1.00  0.00    -0.247 C  
BRANCH   4   5
HETATM    5  C   UNL     1     -11.021   8.264  68.345  1.00  0.00     0.229 A  
HETATM    6  N   UNL     1     -10.835   8.552  67.072  1.00  0.00    -0.112 NA 
HETATM    7  C   UNL     1     -11.103   9.876  66.939  1.00  0.00     0.170 A  
HETATM    8  C   UNL     1     -11.450  10.435  68.146  1.00  0.00    -0.118 A  
HETATM    9  N   UNL     1     -11.340   9.406  69.076  1.00  0.00     0.120 NA 
BRANCH   8  10
HETATM   10  C   UNL     1     -11.902  11.726  68.476  1.00  0.00    -0.365 C  
HETATM   11  O   UNL     1     -11.047  15.011  69.548  1.00  0.00    -0.252 OA 
HETATM   12  C   UNL     1     -11.128  12.656  69.070  1.00  0.00    -0.291 C  
HETATM   13  C   UNL     1     -11.836  13.945  69.325  1.00  0.00    -0.348 C  
HETATM   14  O   UNL     1     -13.054  14.040  69.353  1.00  0.00     0.613 OA 
BRANCH  12  15
HETATM   15  C   UNL     1      -9.701  12.460  69.509  1.00  0.00     1.243 C  
BRANCH  15  16
HETATM   16  C   UNL     1      -8.636  12.603  68.453  1.00  0.00    -0.122 A  
HETATM   17  C   UNL     1      -6.897  13.390  67.113  1.00  0.00     0.282 A  
HETATM   18  C   UNL     1      -7.606  13.518  68.342  1.00  0.00    -0.133 A  
HETATM   19  C   UNL     1      -7.361  12.340  66.357  1.00  0.00     0.666 A  
HETATM   20  S   UNL     1      -8.640  11.511  67.126  1.00  0.00    -0.161 SA 
ENDBRANCH  15  16
ENDBRANCH  12  15
ENDBRANCH   8  10
BRANCH   9  21
HETATM   21  C   UNL     1     -11.306   9.545  70.541  1.00  0.00    -0.283 C  
BRANCH  21  22
HETATM   22  C   UNL     1     -10.137   8.860  71.222  1.00  0.00    -0.365 A  
HETATM   23  C   UNL     1      -9.772   9.168  72.540  1.00  0.00     0.789 A  
HETATM   24  C   UNL     1      -8.802   8.423  73.216  1.00  0.00    -0.196 A  
HETATM   25  C   UNL     1      -9.359   7.914  70.539  1.00  0.00    -0.162 A  
HETATM   26  O   UNL     1      -7.352   5.192  72.990  1.00  0.00    -0.087 OA 
HETATM   27  C   UNL     1      -8.390   7.159  71.206  1.00  0.00    -0.113 A  
HETATM   28  C   UNL     1      -8.164   7.368  72.568  1.00  0.00    -0.123 A  
HETATM   29  O   UNL     1      -6.573   6.886  74.276  1.00  0.00    -0.082 OA 
HETATM   30  C   UNL     1      -7.265   6.491  73.355  1.00  0.00    -0.081 C  
ENDBRANCH  21  22
ENDBRANCH   9  21
ENDBRANCH   4   5
ENDBRANCH   3   4
ENDBRANCH   2   3
TORSDOF 8
ENDMDL
MODEL      280
REMARK 921   NORMALIZED FREE ENERGY PREDICTED BY IDOCK:   11.59 KCAL/MOL
REMARK 922        TOTAL FREE ENERGY PREDICTED BY IDOCK:   14.89 KCAL/MOL
REMARK 923 INTER-LIGAND FREE ENERGY PREDICTED BY IDOCK:    8.82 KCAL/MOL
REMARK 924 INTRA-LIGAND FREE ENERGY PREDICTED BY IDOCK:    6.08 KCAL/MOL
REMARK 927      BINDING AFFINITY PREDICTED BY RF-SCORE:    0.00 PKD
ROOT
HETATM    1  C   UNL     1     -11.508  10.068  64.011  1.00  0.00     4.995 C  
HETATM    2  C   UNL     1     -10.820   9.738  65.330  1.00  0.00     1.474 C  
ENDROOT
BRANCH   2   3
HETATM    3  C   UNL     1      -9.747   8.671  65.114  1.00  0.00     0.691 C  
BRANCH   3   4
HETATM    4  C   UNL     1      -8.428   8.890  65.849  1.00  0.00    -0.147 C  
BRANCH   4   5
HETATM    5  C   UNL     1      -8.122   7.861  66.891  1.00  0.00    -0.115 A  
HETATM    6  N   UNL     1      -7.500   6.737  66.595  1.00  0.00    -0.077 NA 
HETATM    7  C   UNL     1      -7.331   6.075  67.769  1.00  0.00    -0.077 A  
HETATM    8  C   UNL     1      -7.866   6.785  68.818  1.00  0.00    -0.111 A  
HETATM    9  N   UNL     1      -8.436   7.918  68.247  1.00  0.00    -0.124 NA 
BRANCH   8  10
HETATM   10  C   UNL     1      -7.840   6.552  70.205  1.00  0.00    -0.107 C  
HETATM   11  O   UNL     1      -7.984   7.952  73.475  1.00  0.00    -0.143 OA 
HETATM   12  C   UNL     1      -7.723   7.534  71.122  1.00  0.00    -0.089 C  
HETATM   13  C   UNL     1      -7.712   7.036  72.529  1.00  0.00    -0.093 C  
HETATM   14  O   UNL     1      -7.454   5.878  72.822  1.00  0.00    -0.093 OA 
BRANCH  12  15
HETATM   15  C   UNL     1      -7.561   9.001  70.822  1.00  0.00    -0.131 C  
BRANCH  15  16
HETATM   16  C   UNL     1      -6.757   9.814  71.804  1.00  0.00     0.657 A  
HETATM   17  C   UNL     1      -5.262  11.314  72.780  1.00  0.00     0.568 A  
HETATM   18  C   UNL     1      -5.959  10.924  71.600  1.00  0.00     0.744 A  
HETATM   19  C   UNL     1      -5.602  10.535  73.862  1.00  0.00     0.767 A  
HETATM   20  S   UNL     1      -6.757   9.344  73.457  1.00  0.00     1.018 SA 
ENDBRANCH  15  16
ENDBRANCH  12  15
ENDBRANCH   8  10
BRANCH   9  21
HETATM   21  C   UNL     1      -9.389   8.840  68.886  1.00  0.00    -0.145 C  
BRANCH  21  22
HETATM   22  C   UNL     1      -9.058  10.311  68.730  1.00  0.00    -0.159 A  
HETATM   23  C   UNL     1     -10.034  11.305  68.892  1.00  0.00    -0.169 A  
HETATM   24  C   UNL     1      -9.693  12.660  68.908  1.00  0.00     0.183 A  
HETATM   25  C   UNL     1      -7.764  10.726  68.385  1.00  0.00    -0.113 A  
HETATM   26  O   UNL     1      -6.806  14.627  69.530  1.00  0.00    -0.145 OA 
HETATM   27  C   UNL     1      -7.410  12.078  68.404  1.00  0.00    -0.096 A  
HETATM   28  C   UNL     1      -8.364  13.041  68.738  1.00  0.00     0.134 A  
HETATM   29  O   UNL     1      -8.738  15.392  68.630  1.00  0.00    -0.171 OA 
HETATM   30  C   UNL     1      -8.005  14.466  68.926  1.00  0.00    -0.109 C  
ENDBRANCH  21  22
ENDBRANCH   9  21
ENDBRANCH   4   5
ENDBRANCH   3   4
ENDBRANCH   2   3
TORSDOF 8
ENDMDL
MODEL      281
REMARK 921   NORMALIZED FREE ENERGY PREDICTED BY IDOCK:   12.63 KCAL/MOL
REMARK 922        TOTAL FREE ENERGY PREDICTED BY IDOCK:   16.42 KCAL/MOL
REMARK 923 INTER-LIGAND FREE ENERGY PREDICTED BY IDOCK:   10.08 KCAL/MOL
REMARK 924 INTRA-LIGAND FREE ENERGY PREDICTED BY IDOCK:    6.34 KCAL/MOL
REMARK 927      BINDING AFFINITY PREDICTED BY RF-SCORE:    0.00 PKD
ROOT
HETATM    1  C   UNL     1     -12.561  10.768  63.946  1.00  0.00     3.238 C  
HETATM    2  C   UNL     1     -11.337  11.031  64.813  1.00  0.00     0.220 C  
ENDROOT
BRANCH   2   3
HETATM    3  C   UNL     1     -10.087  11.153  63.940  1.00  0.00    -0.404 C  
BRANCH   3   4
HETATM    4  C   UNL     1      -8.961  12.015  64.503  1.00  0.00     0.727 C  
BRANCH   4   5
HETATM    5  C   UNL     1      -9.399  13.353  65.007  1.00  0.00     0.761 A  
HETATM    6  N   UNL     1     -10.294  14.079  64.366  1.00  0.00    -0.244 NA 
HETATM    7  C   UNL     1     -10.501  15.186  65.124  1.00  0.00    -0.410 A  
HETATM    8  C   UNL     1      -9.715  15.167  66.252  1.00  0.00    -0.290 A  
HETATM    9  N   UNL     1      -8.951  14.008  66.152  1.00  0.00     0.078 NA 
BRANCH   8  10
HETATM   10  C   UNL     1      -9.661  16.031  67.361  1.00  0.00    -0.232 C  
HETATM   11  O   UNL     1      -8.016  16.903  70.395  1.00  0.00     2.142 OA 
HETATM   12  C   UNL     1      -8.892  15.804  68.445  1.00  0.00    -0.185 C  
HETATM   13  C   UNL     1      -9.011  16.860  69.492  1.00  0.00     0.398 C  
HETATM   14  O   UNL     1      -9.958  17.632  69.552  1.00  0.00    -0.064 OA 
BRANCH  12  15
HETATM   15  C   UNL     1      -8.017  14.597  68.663  1.00  0.00    -0.141 C  
BRANCH  15  16
HETATM   16  C   UNL     1      -7.089  14.633  69.849  1.00  0.00    -0.056 A  
HETATM   17  C   UNL     1      -5.215  14.814  71.226  1.00  0.00    -0.139 A  
HETATM   18  C   UNL     1      -5.785  15.081  69.948  1.00  0.00    -0.121 A  
HETATM   19  C   UNL     1      -6.121  14.234  72.084  1.00  0.00     0.429 A  
HETATM   20  S   UNL     1      -7.649  14.018  71.353  1.00  0.00     5.054 SA 
ENDBRANCH  15  16
ENDBRANCH  12  15
ENDBRANCH   8  10
BRANCH   9  21
HETATM   21  C   UNL     1      -7.751  13.675  66.937  1.00  0.00     0.379 C  
BRANCH  21  22
HETATM   22  C   UNL     1      -7.736  12.277  67.521  1.00  0.00    -0.158 A  
HETATM   23  C   UNL     1      -8.812  11.784  68.273  1.00  0.00    -0.172 A  
HETATM   24  C   UNL     1      -8.865  10.446  68.670  1.00  0.00    -0.142 A  
HETATM   25  C   UNL     1      -6.625  11.438  67.355  1.00  0.00    -0.090 A  
HETATM   26  O   UNL     1      -7.446   7.354  67.659  1.00  0.00    -0.093 OA 
HETATM   27  C   UNL     1      -6.669  10.095  67.743  1.00  0.00    -0.071 A  
HETATM   28  C   UNL     1      -7.823   9.582  68.338  1.00  0.00    -0.086 A  
HETATM   29  O   UNL     1      -8.582   7.701  69.587  1.00  0.00    -0.133 OA 
HETATM   30  C   UNL     1      -7.980   8.137  68.623  1.00  0.00    -0.115 C  
ENDBRANCH  21  22
ENDBRANCH   9  21
ENDBRANCH   4   5
ENDBRANCH   3   4
ENDBRANCH   2   3
TORSDOF 8
ENDMDL
MODEL      282
REMARK 921   NORMALIZED FREE ENERGY PREDICTED BY IDOCK:   14.72 KCAL/MOL
REMARK 922        TOTAL FREE ENERGY PREDICTED BY IDOCK:   19.49 KCAL/MOL
REMARK 923 INTER-LIGAND FREE ENERGY PREDICTED BY IDOCK:   17.11 KCAL/MOL
REMARK 924 INTRA-LIGAND FREE ENERGY PREDICTED BY IDOCK:    2.39 KCAL/MOL
REMARK 927      BINDING AFFINITY PREDICTED BY RF-SCORE:    0.00 PKD
ROOT
HETATM    1  C   UNL     1      -7.505   9.568  73.192  1.00  0.00     1.874 C  
HETATM    2  C   UNL     1      -7.641   9.058  71.764  1.00  0.00     0.074 C  
ENDROOT
BRANCH   2   3
HETATM    3  C   UNL     1      -7.040  10.065  70.782  1.00  0.00     0.106 C  
BRANCH   3   4
HETATM    4  C   UNL     1      -7.972  10.567  69.684  1.00  0.00    -0.076 C  
BRANCH   4   5
HETATM    5  C   UNL     1      -7.692  11.963  69.226  1.00  0.00     0.273 A  
HETATM    6  N   UNL     1      -6.583  12.595  69.558  1.00  0.00    -0.076 NA 
HETATM    7  C   UNL     1      -6.626  13.797  68.928  1.00  0.00    -0.104 A  
HETATM    8  C   UNL     1      -7.785  13.932  68.200  1.00  0.00    -0.142 A  
HETATM    9  N   UNL     1      -8.510  12.769  68.438  1.00  0.00    -0.149 NA 
BRANCH   8  10
HETATM   10  C   UNL     1      -8.215  14.941  67.320  1.00  0.00    -0.234 C  
HETATM   11  O   UNL     1     -10.014  17.986  66.911  1.00  0.00    -0.308 OA 
HETATM   12  C   UNL     1      -9.130  15.875  67.649  1.00  0.00    -0.200 C  
HETATM   13  C   UNL     1      -9.427  16.834  66.543  1.00  0.00    -0.266 C  
HETATM   14  O   UNL     1      -9.177  16.593  65.371  1.00  0.00    -0.324 OA 
BRANCH  12  15
HETATM   15  C   UNL     1      -9.858  15.966  68.964  1.00  0.00    -0.234 C  
BRANCH  15  16
HETATM   16  C   UNL     1      -9.477  17.101  69.878  1.00  0.00     1.047 A  
HETATM   17  C   UNL     1      -9.520  18.846  71.424  1.00  0.00     4.924 A  
HETATM   18  C   UNL     1     -10.198  17.716  70.884  1.00  0.00     2.716 A  
HETATM   19  C   UNL     1      -8.275  19.017  70.864  1.00  0.00     3.841 A  
HETATM   20  S   UNL     1      -7.927  17.819  69.698  1.00  0.00     1.104 SA 
ENDBRANCH  15  16
ENDBRANCH  12  15
ENDBRANCH   8  10
BRANCH   9  21
HETATM   21  C   UNL     1      -9.936  12.546  68.144  1.00  0.00    -0.224 C  
BRANCH  21  22
HETATM   22  C   UNL     1     -10.487  11.219  68.624  1.00  0.00    -0.226 A  
HETATM   23  C   UNL     1     -11.705  11.136  69.315  1.00  0.00    -0.401 A  
HETATM   24  C   UNL     1     -12.288   9.902  69.612  1.00  0.00     0.427 A  
HETATM   25  C   UNL     1      -9.778  10.027  68.419  1.00  0.00    -0.157 A  
HETATM   26  O   UNL     1     -12.120   6.569  68.405  1.00  0.00     1.151 OA 
HETATM   27  C   UNL     1     -10.354   8.785  68.707  1.00  0.00    -0.234 A  
HETATM   28  C   UNL     1     -11.643   8.724  69.239  1.00  0.00     0.717 A  
HETATM   29  O   UNL     1     -13.126   7.211  70.330  1.00  0.00     0.388 OA 
HETATM   30  C   UNL     1     -12.357   7.438  69.413  1.00  0.00     1.818 C  
ENDBRANCH  21  22
ENDBRANCH   9  21
ENDBRANCH   4   5
ENDBRANCH   3   4
ENDBRANCH   2   3
TORSDOF 8
ENDMDL
MODEL      283
REMARK 921   NORMALIZED FREE ENERGY PREDICTED BY IDOCK:   15.77 KCAL/MOL
REMARK 922        TOTAL FREE ENERGY PREDICTED BY IDOCK:   21.04 KCAL/MOL
REMARK 923 INTER-LIGAND FREE ENERGY PREDICTED BY IDOCK:   20.87 KCAL/MOL
REMARK 924 INTRA-LIGAND FREE ENERGY PREDICTED BY IDOCK:    0.17 KCAL/MOL
REMARK 927      BINDING AFFINITY PREDICTED BY RF-SCORE:    0.00 PKD
ROOT
HETATM    1  C   UNL     1     -13.306   5.213  65.015  1.00  0.00     8.445 C  
HETATM    2  C   UNL     1     -12.284   5.821  64.063  1.00  0.00     7.687 C  
ENDROOT
BRANCH   2   3
HETATM    3  C   UNL     1     -11.210   6.574  64.850  1.00  0.00     7.020 C  
BRANCH   3   4
HETATM    4  C   UNL     1     -11.077   6.202  66.323  1.00  0.00     0.452 C  
BRANCH   4   5
HETATM    5  C   UNL     1      -9.673   6.209  66.838  1.00  0.00    -0.149 A  
HETATM    6  N   UNL     1      -8.635   6.133  66.030  1.00  0.00    -0.140 NA 
HETATM    7  C   UNL     1      -7.532   6.230  66.815  1.00  0.00    -0.087 A  
HETATM    8  C   UNL     1      -7.877   6.355  68.140  1.00  0.00    -0.105 A  
HETATM    9  N   UNL     1      -9.266   6.281  68.169  1.00  0.00    -0.112 NA 
BRANCH   8  10
HETATM   10  C   UNL     1      -7.094   6.585  69.285  1.00  0.00    -0.084 C  
HETATM   11  O   UNL     1      -5.403   8.964  71.324  1.00  0.00    -0.032 OA 
HETATM   12  C   UNL     1      -6.483   7.759  69.546  1.00  0.00    -0.035 C  
HETATM   13  C   UNL     1      -5.704   7.754  70.819  1.00  0.00    -0.030 C  
HETATM   14  O   UNL     1      -5.337   6.726  71.370  1.00  0.00    -0.026 OA 
BRANCH  12  15
HETATM   15  C   UNL     1      -6.500   8.974  68.657  1.00  0.00    -0.054 C  
BRANCH  15  16
HETATM   16  C   UNL     1      -7.774   9.778  68.624  1.00  0.00    -0.080 A  
HETATM   17  C   UNL     1      -9.790  10.810  69.183  1.00  0.00    -0.194 A  
HETATM   18  C   UNL     1      -8.607  10.170  69.655  1.00  0.00    -0.170 A  
HETATM   19  C   UNL     1      -9.790  10.948  67.814  1.00  0.00    -0.175 A  
HETATM   20  S   UNL     1      -8.372  10.314  67.105  1.00  0.00    -0.122 SA 
ENDBRANCH  15  16
ENDBRANCH  12  15
ENDBRANCH   8  10
BRANCH   9  21
HETATM   21  C   UNL     1     -10.110   6.060  69.355  1.00  0.00    -0.192 C  
BRANCH  21  22
HETATM   22  C   UNL     1      -9.353   5.733  70.627  1.00  0.00    -0.186 A  
HETATM   23  C   UNL     1      -8.921   4.430  70.911  1.00  0.00    -0.161 A  
HETATM   24  C   UNL     1      -8.087   4.164  71.999  1.00  0.00    -0.086 A  
HETATM   25  C   UNL     1      -9.086   6.725  71.582  1.00  0.00    -0.144 A  
HETATM   26  O   UNL     1      -5.810   5.951  74.052  1.00  0.00    -0.056 OA 
HETATM   27  C   UNL     1      -8.248   6.472  72.672  1.00  0.00    -0.110 A  
HETATM   28  C   UNL     1      -7.689   5.203  72.838  1.00  0.00    -0.098 A  
HETATM   29  O   UNL     1      -6.587   3.866  74.473  1.00  0.00    -0.038 OA 
HETATM   30  C   UNL     1      -6.675   4.926  73.881  1.00  0.00    -0.070 C  
ENDBRANCH  21  22
ENDBRANCH   9  21
ENDBRANCH   4   5
ENDBRANCH   3   4
ENDBRANCH   2   3
TORSDOF 8
ENDMDL
MODEL      284
REMARK 921   NORMALIZED FREE ENERGY PREDICTED BY IDOCK:   18.78 KCAL/MOL
REMARK 922        TOTAL FREE ENERGY PREDICTED BY IDOCK:   25.45 KCAL/MOL
REMARK 923 INTER-LIGAND FREE ENERGY PREDICTED BY IDOCK:   24.61 KCAL/MOL
REMARK 924 INTRA-LIGAND FREE ENERGY PREDICTED BY IDOCK:    0.83 KCAL/MOL
REMARK 927      BINDING AFFINITY PREDICTED BY RF-SCORE:    0.00 PKD
ROOT
HETATM    1  C   UNL     1     -13.949   5.349  65.643  1.00  0.00    12.472 C  
HETATM    2  C   UNL     1     -12.936   5.955  64.681  1.00  0.00     8.467 C  
ENDROOT
BRANCH   2   3
HETATM    3  C   UNL     1     -11.860   6.716  65.455  1.00  0.00     6.222 C  
BRANCH   3   4
HETATM    4  C   UNL     1     -11.715   6.353  66.930  1.00  0.00     1.077 C  
BRANCH   4   5
HETATM    5  C   UNL     1     -10.303   6.323  67.423  1.00  0.00    -0.211 A  
HETATM    6  N   UNL     1      -9.292   6.687  66.660  1.00  0.00    -0.159 NA 
HETATM    7  C   UNL     1      -8.180   6.599  67.433  1.00  0.00    -0.121 A  
HETATM    8  C   UNL     1      -8.490   6.159  68.699  1.00  0.00    -0.114 A  
HETATM    9  N   UNL     1      -9.861   5.918  68.681  1.00  0.00    -0.129 NA 
BRANCH   8  10
HETATM   10  C   UNL     1      -7.698   6.014  69.852  1.00  0.00    -0.092 C  
HETATM   11  O   UNL     1      -6.521   7.481  72.874  1.00  0.00    -0.058 OA 
HETATM   12  C   UNL     1      -7.397   7.034  70.681  1.00  0.00    -0.076 C  
HETATM   13  C   UNL     1      -6.536   6.633  71.832  1.00  0.00    -0.054 C  
HETATM   14  O   UNL     1      -5.865   5.610  71.834  1.00  0.00    -0.024 OA 
BRANCH  12  15
HETATM   15  C   UNL     1      -7.812   8.470  70.492  1.00  0.00    -0.086 C  
BRANCH  15  16
HETATM   16  C   UNL     1      -9.250   8.809  70.785  1.00  0.00    -0.198 A  
HETATM   17  C   UNL     1     -11.307   9.893  70.964  1.00  0.00    -0.460 A  
HETATM   18  C   UNL     1     -10.027   9.863  70.341  1.00  0.00    -0.222 A  
HETATM   19  C   UNL     1     -11.495   8.825  71.811  1.00  0.00    -0.342 A  
HETATM   20  S   UNL     1     -10.136   7.791  71.849  1.00  0.00    -0.191 SA 
ENDBRANCH  15  16
ENDBRANCH  12  15
ENDBRANCH   8  10
BRANCH   9  21
HETATM   21  C   UNL     1     -10.633   5.157  69.677  1.00  0.00    -0.086 C  
BRANCH  21  22
HETATM   22  C   UNL     1      -9.800   4.452  70.729  1.00  0.00    -0.273 A  
HETATM   23  C   UNL     1      -8.825   3.507  70.382  1.00  0.00    -0.143 A  
HETATM   24  C   UNL     1      -7.952   2.982  71.338  1.00  0.00    -0.055 A  
HETATM   25  C   UNL     1     -10.002   4.702  72.094  1.00  0.00    -0.241 A  
HETATM   26  O   UNL     1      -6.709   3.897  74.533  1.00  0.00    -0.043 OA 
HETATM   27  C   UNL     1      -9.131   4.187  73.059  1.00  0.00    -0.123 A  
HETATM   28  C   UNL     1      -8.059   3.382  72.669  1.00  0.00    -0.076 A  
HETATM   29  O   UNL     1      -6.460   1.863  73.570  1.00  0.00    -0.012 OA 
HETATM   30  C   UNL     1      -7.021   2.942  73.629  1.00  0.00    -0.036 C  
ENDBRANCH  21  22
ENDBRANCH   9  21
ENDBRANCH   4   5
ENDBRANCH   3   4
ENDBRANCH   2   3
TORSDOF 8
ENDMDL
MODEL      285
REMARK 921   NORMALIZED FREE ENERGY PREDICTED BY IDOCK:   21.46 KCAL/MOL
REMARK 922        TOTAL FREE ENERGY PREDICTED BY IDOCK:   29.38 KCAL/MOL
REMARK 923 INTER-LIGAND FREE ENERGY PREDICTED BY IDOCK:   17.09 KCAL/MOL
REMARK 924 INTRA-LIGAND FREE ENERGY PREDICTED BY IDOCK:   12.29 KCAL/MOL
REMARK 927      BINDING AFFINITY PREDICTED BY RF-SCORE:    0.00 PKD
ROOT
HETATM    1  C   UNL     1     -12.672  10.819  64.307  1.00  0.00     3.997 C  
HETATM    2  C   UNL     1     -13.797  11.659  64.899  1.00  0.00     5.055 C  
ENDROOT
BRANCH   2   3
HETATM    3  C   UNL     1     -13.276  12.490  66.071  1.00  0.00     2.546 C  
BRANCH   3   4
HETATM    4  C   UNL     1     -12.832  13.911  65.738  1.00  0.00    -0.437 C  
BRANCH   4   5
HETATM    5  C   UNL     1     -12.063  14.590  66.827  1.00  0.00    -0.288 A  
HETATM    6  N   UNL     1     -12.474  15.720  67.368  1.00  0.00     1.337 NA 
HETATM    7  C   UNL     1     -11.587  16.016  68.352  1.00  0.00    -0.279 A  
HETATM    8  C   UNL     1     -10.594  15.068  68.425  1.00  0.00    -0.239 A  
HETATM    9  N   UNL     1     -10.863  14.170  67.396  1.00  0.00    -0.284 NA 
BRANCH   8  10
HETATM   10  C   UNL     1      -9.536  14.900  69.336  1.00  0.00    -0.068 C  
HETATM   11  O   UNL     1      -6.385  13.386  70.014  1.00  0.00    -0.116 OA 
HETATM   12  C   UNL     1      -8.563  13.978  69.186  1.00  0.00     0.277 C  
HETATM   13  C   UNL     1      -7.556  13.989  70.287  1.00  0.00     1.241 C  
HETATM   14  O   UNL     1      -7.773  14.492  71.380  1.00  0.00     2.214 OA 
BRANCH  12  15
HETATM   15  C   UNL     1      -8.475  12.970  68.070  1.00  0.00    -0.181 C  
BRANCH  15  16
HETATM   16  C   UNL     1      -7.305  12.021  68.099  1.00  0.00    -0.094 A  
HETATM   17  C   UNL     1      -5.358  10.843  67.585  1.00  0.00    -0.040 A  
HETATM   18  C   UNL     1      -6.159  11.993  67.327  1.00  0.00    -0.147 A  
HETATM   19  C   UNL     1      -5.881  10.066  68.593  1.00  0.00    -0.041 A  
HETATM   20  S   UNL     1      -7.325  10.723  69.226  1.00  0.00    -0.127 SA 
ENDBRANCH  15  16
ENDBRANCH  12  15
ENDBRANCH   8  10
BRANCH   9  21
HETATM   21  C   UNL     1      -9.946  13.154  66.854  1.00  0.00    -0.245 C  
BRANCH  21  22
HETATM   22  C   UNL     1     -10.178  11.746  67.366  1.00  0.00    -0.220 A  
HETATM   23  C   UNL     1     -10.058  11.430  68.726  1.00  0.00    -0.199 A  
HETATM   24  C   UNL     1     -10.429  10.175  69.215  1.00  0.00    -0.246 A  
HETATM   25  C   UNL     1     -10.491  10.701  66.484  1.00  0.00    -0.285 A  
HETATM   26  O   UNL     1     -12.526   7.492  68.216  1.00  0.00     3.542 OA 
HETATM   27  C   UNL     1     -10.869   9.443  66.962  1.00  0.00    -0.096 A  
HETATM   28  C   UNL     1     -10.907   9.204  68.337  1.00  0.00    -0.098 A  
HETATM   29  O   UNL     1     -11.016   7.411  69.902  1.00  0.00    -0.250 OA 
HETATM   30  C   UNL     1     -11.449   7.945  68.897  1.00  0.00     0.860 C  
ENDBRANCH  21  22
ENDBRANCH   9  21
ENDBRANCH   4   5
ENDBRANCH   3   4
ENDBRANCH   2   3
TORSDOF 8
ENDMDL
MODEL      286
REMARK 921   NORMALIZED FREE ENERGY PREDICTED BY IDOCK:   21.70 KCAL/MOL
REMARK 922        TOTAL FREE ENERGY PREDICTED BY IDOCK:   29.73 KCAL/MOL
REMARK 923 INTER-LIGAND FREE ENERGY PREDICTED BY IDOCK:   26.77 KCAL/MOL
REMARK 924 INTRA-LIGAND FREE ENERGY PREDICTED BY IDOCK:    2.97 KCAL/MOL
REMARK 927      BINDING AFFINITY PREDICTED BY RF-SCORE:    0.00 PKD
ROOT
HETATM    1  C   UNL     1     -13.949   5.349  65.643  1.00  0.00    12.472 C  
HETATM    2  C   UNL     1     -12.936   5.955  64.681  1.00  0.00     8.467 C  
ENDROOT
BRANCH   2   3
HETATM    3  C   UNL     1     -11.860   6.716  65.455  1.00  0.00     6.222 C  
BRANCH   3   4
HETATM    4  C   UNL     1     -11.715   6.353  66.930  1.00  0.00     1.077 C  
BRANCH   4   5
HETATM    5  C   UNL     1     -10.303   6.323  67.423  1.00  0.00    -0.211 A  
HETATM    6  N   UNL     1      -9.292   6.687  66.660  1.00  0.00    -0.159 NA 
HETATM    7  C   UNL     1      -8.180   6.599  67.433  1.00  0.00    -0.121 A  
HETATM    8  C   UNL     1      -8.490   6.159  68.699  1.00  0.00    -0.114 A  
HETATM    9  N   UNL     1      -9.861   5.918  68.681  1.00  0.00    -0.129 NA 
BRANCH   8  10
HETATM   10  C   UNL     1      -7.698   6.014  69.852  1.00  0.00    -0.092 C  
HETATM   11  O   UNL     1      -6.521   7.481  72.874  1.00  0.00    -0.058 OA 
HETATM   12  C   UNL     1      -7.397   7.034  70.681  1.00  0.00    -0.076 C  
HETATM   13  C   UNL     1      -6.536   6.633  71.832  1.00  0.00    -0.054 C  
HETATM   14  O   UNL     1      -5.865   5.610  71.834  1.00  0.00    -0.024 OA 
BRANCH  12  15
HETATM   15  C   UNL     1      -7.812   8.470  70.492  1.00  0.00    -0.086 C  
BRANCH  15  16
HETATM   16  C   UNL     1      -6.800   9.525  70.858  1.00  0.00    -0.078 A  
HETATM   17  C   UNL     1      -5.155  11.177  70.783  1.00  0.00    -0.106 A  
HETATM   18  C   UNL     1      -6.136  10.438  70.060  1.00  0.00    -0.083 A  
HETATM   19  C   UNL     1      -5.149  10.856  72.120  1.00  0.00     0.136 A  
HETATM   20  S   UNL     1      -6.322   9.674  72.501  1.00  0.00     0.871 SA 
ENDBRANCH  15  16
ENDBRANCH  12  15
ENDBRANCH   8  10
BRANCH   9  21
HETATM   21  C   UNL     1     -10.633   5.157  69.677  1.00  0.00    -0.086 C  
BRANCH  21  22
HETATM   22  C   UNL     1      -9.800   4.452  70.729  1.00  0.00    -0.273 A  
HETATM   23  C   UNL     1      -8.825   3.507  70.382  1.00  0.00    -0.143 A  
HETATM   24  C   UNL     1      -7.952   2.982  71.338  1.00  0.00    -0.055 A  
HETATM   25  C   UNL     1     -10.002   4.702  72.094  1.00  0.00    -0.241 A  
HETATM   26  O   UNL     1      -6.709   3.897  74.533  1.00  0.00    -0.043 OA 
HETATM   27  C   UNL     1      -9.131   4.187  73.059  1.00  0.00    -0.123 A  
HETATM   28  C   UNL     1      -8.059   3.382  72.669  1.00  0.00    -0.076 A  
HETATM   29  O   UNL     1      -6.460   1.863  73.570  1.00  0.00    -0.012 OA 
HETATM   30  C   UNL     1      -7.021   2.942  73.629  1.00  0.00    -0.036 C  
ENDBRANCH  21  22
ENDBRANCH   9  21
ENDBRANCH   4   5
ENDBRANCH   3   4
ENDBRANCH   2   3
TORSDOF 8
ENDMDL
MODEL      287
REMARK 921   NORMALIZED FREE ENERGY PREDICTED BY IDOCK:   21.72 KCAL/MOL
REMARK 922        TOTAL FREE ENERGY PREDICTED BY IDOCK:   29.76 KCAL/MOL
REMARK 923 INTER-LIGAND FREE ENERGY PREDICTED BY IDOCK:    7.08 KCAL/MOL
REMARK 924 INTRA-LIGAND FREE ENERGY PREDICTED BY IDOCK:   22.68 KCAL/MOL
REMARK 927      BINDING AFFINITY PREDICTED BY RF-SCORE:    0.00 PKD
ROOT
HETATM    1  C   UNL     1      -6.368  13.035  68.349  1.00  0.00    -0.082 C  
HETATM    2  C   UNL     1      -7.741  12.430  68.082  1.00  0.00    -0.139 C  
ENDROOT
BRANCH   2   3
HETATM    3  C   UNL     1      -8.652  12.633  69.293  1.00  0.00     0.923 C  
BRANCH   3   4
HETATM    4  C   UNL     1      -8.538  13.981  69.997  1.00  0.00     1.776 C  
BRANCH   4   5
HETATM    5  C   UNL     1      -9.479  15.027  69.488  1.00  0.00    -0.073 A  
HETATM    6  N   UNL     1     -10.394  15.575  70.262  1.00  0.00    -0.279 NA 
HETATM    7  C   UNL     1     -11.019  16.514  69.507  1.00  0.00    -0.289 A  
HETATM    8  C   UNL     1     -10.501  16.551  68.234  1.00  0.00    -0.313 A  
HETATM    9  N   UNL     1      -9.541  15.545  68.196  1.00  0.00    -0.199 NA 
BRANCH   8  10
HETATM   10  C   UNL     1     -10.755  17.415  67.154  1.00  0.00    -0.188 C  
HETATM   11  O   UNL     1      -9.449  19.825  64.882  1.00  0.00     0.893 OA 
HETATM   12  C   UNL     1      -9.887  18.359  66.736  1.00  0.00    -0.351 C  
HETATM   13  C   UNL     1     -10.385  19.155  65.576  1.00  0.00     0.076 C  
HETATM   14  O   UNL     1     -11.569  19.220  65.274  1.00  0.00     0.617 OA 
BRANCH  12  15
HETATM   15  C   UNL     1      -8.556  18.669  67.368  1.00  0.00    -0.281 C  
BRANCH  15  16
HETATM   16  C   UNL     1      -8.008  17.653  68.337  1.00  0.00    -0.270 A  
HETATM   17  C   UNL     1      -7.413  15.669  69.409  1.00  0.00    -0.221 A  
HETATM   18  C   UNL     1      -7.845  16.288  68.200  1.00  0.00    -0.156 A  
HETATM   19  C   UNL     1      -7.193  16.588  70.408  1.00  0.00     1.671 A  
HETATM   20  S   UNL     1      -7.500  18.186  69.890  1.00  0.00     1.250 SA 
ENDBRANCH  15  16
ENDBRANCH  12  15
ENDBRANCH   8  10
BRANCH   9  21
HETATM   21  C   UNL     1      -8.914  14.972  66.993  1.00  0.00    -0.234 C  
BRANCH  21  22
HETATM   22  C   UNL     1      -9.475  13.634  66.556  1.00  0.00    -0.270 A  
HETATM   23  C   UNL     1      -8.915  12.916  65.490  1.00  0.00     0.779 A  
HETATM   24  C   UNL     1      -9.329  11.614  65.195  1.00  0.00    -0.076 A  
HETATM   25  C   UNL     1     -10.600  13.083  67.186  1.00  0.00    -0.251 A  
HETATM   26  O   UNL     1     -10.928   8.931  66.879  1.00  0.00    -0.056 OA 
HETATM   27  C   UNL     1     -11.020  11.779  66.904  1.00  0.00    -0.333 A  
HETATM   28  C   UNL     1     -10.334  11.019  65.955  1.00  0.00    -0.315 A  
HETATM   29  O   UNL     1     -10.569   9.042  64.646  1.00  0.00     2.897 OA 
HETATM   30  C   UNL     1     -10.638   9.586  65.733  1.00  0.00     0.571 C  
ENDBRANCH  21  22
ENDBRANCH   9  21
ENDBRANCH   4   5
ENDBRANCH   3   4
ENDBRANCH   2   3
TORSDOF 8
ENDMDL
MODEL      288
REMARK 921   NORMALIZED FREE ENERGY PREDICTED BY IDOCK:   27.21 KCAL/MOL
REMARK 922        TOTAL FREE ENERGY PREDICTED BY IDOCK:   37.82 KCAL/MOL
REMARK 923 INTER-LIGAND FREE ENERGY PREDICTED BY IDOCK:   35.67 KCAL/MOL
REMARK 924 INTRA-LIGAND FREE ENERGY PREDICTED BY IDOCK:    2.15 KCAL/MOL
REMARK 927      BINDING AFFINITY PREDICTED BY RF-SCORE:    0.00 PKD
ROOT
HETATM    1  C   UNL     1      -7.557  20.484  71.279  1.00  0.00     1.850 C  
HETATM    2  C   UNL     1      -7.827  19.066  71.767  1.00  0.00     5.860 C  
ENDROOT
BRANCH   2   3
HETATM    3  C   UNL     1      -9.038  18.478  71.041  1.00  0.00     5.515 C  
BRANCH   3   4
HETATM    4  C   UNL     1      -8.857  17.077  70.466  1.00  0.00     3.764 C  
BRANCH   4   5
HETATM    5  C   UNL     1      -8.553  17.045  69.002  1.00  0.00    -0.126 A  
HETATM    6  N   UNL     1      -7.580  17.764  68.477  1.00  0.00    -0.268 NA 
HETATM    7  C   UNL     1      -7.542  17.449  67.158  1.00  0.00    -0.200 A  
HETATM    8  C   UNL     1      -8.513  16.528  66.840  1.00  0.00    -0.212 A  
HETATM    9  N   UNL     1      -9.214  16.307  68.022  1.00  0.00    -0.195 NA 
BRANCH   8  10
HETATM   10  C   UNL     1      -8.786  15.841  65.644  1.00  0.00     0.571 C  
HETATM   11  O   UNL     1     -11.130  15.164  63.052  1.00  0.00     2.678 OA 
HETATM   12  C   UNL     1     -10.016  15.756  65.098  1.00  0.00    -0.050 C  
HETATM   13  C   UNL     1     -10.052  14.968  63.831  1.00  0.00     3.574 C  
HETATM   14  O   UNL     1      -9.176  14.176  63.516  1.00  0.00     5.078 OA 
BRANCH  12  15
HETATM   15  C   UNL     1     -11.278  16.329  65.686  1.00  0.00     0.155 C  
BRANCH  15  16
HETATM   16  C   UNL     1     -11.279  17.804  65.995  1.00  0.00     0.836 A  
HETATM   17  C   UNL     1     -11.761  19.913  66.867  1.00  0.00     1.403 A  
HETATM   18  C   UNL     1     -11.907  18.503  67.009  1.00  0.00     2.348 A  
HETATM   19  C   UNL     1     -10.969  20.244  65.792  1.00  0.00     0.255 A  
HETATM   20  S   UNL     1     -10.403  18.863  64.963  1.00  0.00     2.155 SA 
ENDBRANCH  15  16
ENDBRANCH  12  15
ENDBRANCH   8  10
BRANCH   9  21
HETATM   21  C   UNL     1     -10.524  15.649  68.157  1.00  0.00    -0.259 C  
BRANCH  21  22
HETATM   22  C   UNL     1     -11.043  15.543  69.577  1.00  0.00    -0.286 A  
HETATM   23  C   UNL     1     -10.659  14.493  70.424  1.00  0.00     0.377 A  
HETATM   24  C   UNL     1     -11.008  14.487  71.776  1.00  0.00     1.213 A  
HETATM   25  C   UNL     1     -11.954  16.481  70.084  1.00  0.00     0.615 A  
HETATM   26  O   UNL     1     -11.967  16.851  74.244  1.00  0.00    -0.335 OA 
HETATM   27  C   UNL     1     -12.306  16.489  71.437  1.00  0.00     0.656 A  
HETATM   28  C   UNL     1     -11.772  15.529  72.299  1.00  0.00    -0.578 A  
HETATM   29  O   UNL     1     -12.101  14.601  74.468  1.00  0.00    -0.327 OA 
HETATM   30  C   UNL     1     -11.987  15.587  73.763  1.00  0.00    -0.399 C  
ENDBRANCH  21  22
ENDBRANCH   9  21
ENDBRANCH   4   5
ENDBRANCH   3   4
ENDBRANCH   2   3
TORSDOF 8
ENDMDL
MODEL      289
REMARK 921   NORMALIZED FREE ENERGY PREDICTED BY IDOCK:   37.02 KCAL/MOL
REMARK 922        TOTAL FREE ENERGY PREDICTED BY IDOCK:   52.22 KCAL/MOL
REMARK 923 INTER-LIGAND FREE ENERGY PREDICTED BY IDOCK:   33.14 KCAL/MOL
REMARK 924 INTRA-LIGAND FREE ENERGY PREDICTED BY IDOCK:   19.08 KCAL/MOL
REMARK 927      BINDING AFFINITY PREDICTED BY RF-SCORE:    0.00 PKD
ROOT
HETATM    1  C   UNL     1      -6.077  12.687  64.867  1.00  0.00     8.271 C  
HETATM    2  C   UNL     1      -6.809  12.460  66.183  1.00  0.00     1.809 C  
ENDROOT
BRANCH   2   3
HETATM    3  C   UNL     1      -6.464  13.568  67.178  1.00  0.00     0.481 C  
BRANCH   3   4
HETATM    4  C   UNL     1      -5.697  14.759  66.613  1.00  0.00     2.546 C  
BRANCH   4   5
HETATM    5  C   UNL     1      -6.251  16.093  67.003  1.00  0.00    -0.005 A  
HETATM    6  N   UNL     1      -5.487  17.162  67.099  1.00  0.00    -0.140 NA 
HETATM    7  C   UNL     1      -6.313  18.195  67.405  1.00  0.00    -0.172 A  
HETATM    8  C   UNL     1      -7.615  17.770  67.518  1.00  0.00    -0.204 A  
HETATM    9  N   UNL     1      -7.575  16.394  67.319  1.00  0.00    -0.150 NA 
BRANCH   8  10
HETATM   10  C   UNL     1      -8.811  18.484  67.716  1.00  0.00    -0.290 C  
HETATM   11  O   UNL     1     -12.150  18.441  68.951  1.00  0.00     3.704 OA 
HETATM   12  C   UNL     1      -9.970  17.905  68.090  1.00  0.00    -0.350 C  
HETATM   13  C   UNL     1     -11.100  18.870  68.228  1.00  0.00     0.569 C  
HETATM   14  O   UNL     1     -11.097  19.976  67.707  1.00  0.00    -0.062 OA 
BRANCH  12  15
HETATM   15  C   UNL     1     -10.184  16.430  68.308  1.00  0.00    -0.255 C  
BRANCH  15  16
HETATM   16  C   UNL     1     -11.611  15.951  68.382  1.00  0.00    -0.315 A  
HETATM   17  C   UNL     1     -13.915  15.715  68.106  1.00  0.00     8.198 A  
HETATM   18  C   UNL     1     -12.711  16.305  67.623  1.00  0.00     2.836 A  
HETATM   19  C   UNL     1     -13.687  14.877  69.172  1.00  0.00     3.901 A  
HETATM   20  S   UNL     1     -12.032  14.799  69.585  1.00  0.00    -0.314 SA 
ENDBRANCH  15  16
ENDBRANCH  12  15
ENDBRANCH   8  10
BRANCH   9  21
HETATM   21  C   UNL     1      -8.640  15.427  67.632  1.00  0.00    -0.167 C  
BRANCH  21  22
HETATM   22  C   UNL     1      -8.173  14.159  68.316  1.00  0.00    -0.148 A  
HETATM   23  C   UNL     1      -7.755  14.158  69.655  1.00  0.00     0.387 A  
HETATM   24  C   UNL     1      -7.481  12.965  70.328  1.00  0.00     2.341 A  
HETATM   25  C   UNL     1      -8.112  12.943  67.619  1.00  0.00    -0.167 A  
HETATM   26  O   UNL     1      -8.319   9.530  70.017  1.00  0.00    -0.142 OA 
HETATM   27  C   UNL     1      -7.845  11.742  68.283  1.00  0.00    -0.137 A  
HETATM   28  C   UNL     1      -7.600  11.749  69.658  1.00  0.00     0.598 A  
HETATM   29  O   UNL     1      -6.721  10.366  71.388  1.00  0.00     0.004 OA 
HETATM   30  C   UNL     1      -7.467  10.494  70.434  1.00  0.00     0.510 C  
ENDBRANCH  21  22
ENDBRANCH   9  21
ENDBRANCH   4   5
ENDBRANCH   3   4
ENDBRANCH   2   3
TORSDOF 8
ENDMDL
MODEL      290
REMARK 921   NORMALIZED FREE ENERGY PREDICTED BY IDOCK:   38.69 KCAL/MOL
REMARK 922        TOTAL FREE ENERGY PREDICTED BY IDOCK:   54.68 KCAL/MOL
REMARK 923 INTER-LIGAND FREE ENERGY PREDICTED BY IDOCK:   25.80 KCAL/MOL
REMARK 924 INTRA-LIGAND FREE ENERGY PREDICTED BY IDOCK:   28.88 KCAL/MOL
REMARK 927      BINDING AFFINITY PREDICTED BY RF-SCORE:    0.00 PKD
ROOT
HETATM    1  C   UNL     1      -8.134  19.065  63.752  1.00  0.00     9.366 C  
HETATM    2  C   UNL     1      -7.000  18.718  64.709  1.00  0.00     0.963 C  
ENDROOT
BRANCH   2   3
HETATM    3  C   UNL     1      -7.543  18.529  66.126  1.00  0.00    -0.273 C  
BRANCH   3   4
HETATM    4  C   UNL     1      -8.987  18.049  66.230  1.00  0.00    -0.194 C  
BRANCH   4   5
HETATM    5  C   UNL     1      -9.144  16.561  66.245  1.00  0.00    -0.313 A  
HETATM    6  N   UNL     1     -10.118  15.958  65.593  1.00  0.00    -0.350 NA 
HETATM    7  C   UNL     1      -9.926  14.625  65.768  1.00  0.00    -0.338 A  
HETATM    8  C   UNL     1      -8.823  14.383  66.553  1.00  0.00    -0.089 A  
HETATM    9  N   UNL     1      -8.345  15.638  66.918  1.00  0.00    -0.230 NA 
BRANCH   8  10
HETATM   10  C   UNL     1      -8.185  13.183  66.913  1.00  0.00     0.020 C  
HETATM   11  O   UNL     1      -8.346  10.156  68.781  1.00  0.00    -0.109 OA 
HETATM   12  C   UNL     1      -8.621  12.377  67.904  1.00  0.00    -0.171 C  
HETATM   13  C   UNL     1      -7.773  11.165  68.102  1.00  0.00    -0.107 C  
HETATM   14  O   UNL     1      -6.623  11.086  67.696  1.00  0.00    -0.062 OA 
BRANCH  12  15
HETATM   15  C   UNL     1      -9.805  12.644  68.795  1.00  0.00     0.016 C  
BRANCH  15  16
HETATM   16  C   UNL     1     -10.365  14.043  68.786  1.00  0.00    -0.222 A  
HETATM   17  C   UNL     1     -11.715  15.921  69.088  1.00  0.00    -0.369 A  
HETATM   18  C   UNL     1     -11.427  14.583  69.486  1.00  0.00    -0.330 A  
HETATM   19  C   UNL     1     -10.822  16.383  68.150  1.00  0.00    -0.346 A  
HETATM   20  S   UNL     1      -9.642  15.212  67.755  1.00  0.00    -0.203 SA 
ENDBRANCH  15  16
ENDBRANCH  12  15
ENDBRANCH   8  10
BRANCH   9  21
HETATM   21  C   UNL     1      -7.377  15.934  67.987  1.00  0.00    -0.131 C  
BRANCH  21  22
HETATM   22  C   UNL     1      -7.775  17.066  68.914  1.00  0.00    -0.231 A  
HETATM   23  C   UNL     1      -8.193  18.309  68.419  1.00  0.00    -0.326 A  
HETATM   24  C   UNL     1      -8.711  19.290  69.267  1.00  0.00    -0.030 A  
HETATM   25  C   UNL     1      -7.706  16.915  70.307  1.00  0.00     2.264 A  
HETATM   26  O   UNL     1     -10.220  19.448  72.475  1.00  0.00     2.328 OA 
HETATM   27  C   UNL     1      -8.227  17.887  71.165  1.00  0.00     7.643 A  
HETATM   28  C   UNL     1      -8.797  19.047  70.637  1.00  0.00     3.029 A  
HETATM   29  O   UNL     1      -9.489  21.232  71.287  1.00  0.00     2.058 OA 
HETATM   30  C   UNL     1      -9.501  20.031  71.490  1.00  0.00     2.535 C  
ENDBRANCH  21  22
ENDBRANCH   9  21
ENDBRANCH   4   5
ENDBRANCH   3   4
ENDBRANCH   2   3
TORSDOF 8
ENDMDL
MODEL      291
REMARK 921   NORMALIZED FREE ENERGY PREDICTED BY IDOCK:   48.42 KCAL/MOL
REMARK 922        TOTAL FREE ENERGY PREDICTED BY IDOCK:   68.95 KCAL/MOL
REMARK 923 INTER-LIGAND FREE ENERGY PREDICTED BY IDOCK:   30.87 KCAL/MOL
REMARK 924 INTRA-LIGAND FREE ENERGY PREDICTED BY IDOCK:   38.08 KCAL/MOL
REMARK 927      BINDING AFFINITY PREDICTED BY RF-SCORE:    0.00 PKD
ROOT
HETATM    1  C   UNL     1      -7.867   5.214  69.452  1.00  0.00    -0.080 C  
HETATM    2  C   UNL     1      -7.573   6.620  68.945  1.00  0.00    -0.101 C  
ENDROOT
BRANCH   2   3
HETATM    3  C   UNL     1      -6.888   7.443  70.037  1.00  0.00    -0.055 C  
BRANCH   3   4
HETATM    4  C   UNL     1      -7.405   8.866  70.226  1.00  0.00    -0.067 C  
BRANCH   4   5
HETATM    5  C   UNL     1      -8.580   9.215  69.369  1.00  0.00    -0.138 A  
HETATM    6  N   UNL     1      -9.633   9.842  69.854  1.00  0.00    -0.233 NA 
HETATM    7  C   UNL     1     -10.468  10.054  68.805  1.00  0.00    -0.208 A  
HETATM    8  C   UNL     1      -9.942   9.541  67.643  1.00  0.00    -0.180 A  
HETATM    9  N   UNL     1      -8.743   8.940  68.012  1.00  0.00    -0.133 NA 
BRANCH   8  10
HETATM   10  C   UNL     1     -10.390   9.610  66.312  1.00  0.00    -0.230 C  
HETATM   11  O   UNL     1     -10.122  11.219  63.147  1.00  0.00    -0.343 OA 
HETATM   12  C   UNL     1     -10.085  10.624  65.476  1.00  0.00    -0.343 C  
HETATM   13  C   UNL     1     -10.684  10.476  64.116  1.00  0.00     0.440 C  
HETATM   14  O   UNL     1     -11.637   9.746  63.887  1.00  0.00     5.468 OA 
BRANCH  12  15
HETATM   15  C   UNL     1      -9.271  11.840  65.831  1.00  0.00    -0.178 C  
BRANCH  15  16
HETATM   16  C   UNL     1      -7.945  12.001  65.135  1.00  0.00     2.003 A  
HETATM   17  C   UNL     1      -5.946  11.610  63.999  1.00  0.00     2.863 A  
HETATM   18  C   UNL     1      -7.226  11.105  64.366  1.00  0.00     1.049 A  
HETATM   19  C   UNL     1      -5.755  12.900  64.438  1.00  0.00    11.264 A  
HETATM   20  S   UNL     1      -7.113  13.498  65.283  1.00  0.00    10.953 SA 
ENDBRANCH  15  16
ENDBRANCH  12  15
ENDBRANCH   8  10
BRANCH   9  21
HETATM   21  C   UNL     1      -7.949   7.994  67.210  1.00  0.00    -0.121 C  
BRANCH  21  22
HETATM   22  C   UNL     1      -7.947   6.567  67.721  1.00  0.00    -0.115 A  
HETATM   23  C   UNL     1      -9.049   6.028  68.398  1.00  0.00    -0.112 A  
HETATM   24  C   UNL     1      -9.108   4.670  68.722  1.00  0.00    -0.158 A  
HETATM   25  C   UNL     1      -6.822   5.746  67.559  1.00  0.00    -0.060 A  
HETATM   26  O   UNL     1      -7.618   1.646  67.613  1.00  0.00    -0.057 OA 
HETATM   27  C   UNL     1      -6.871   4.384  67.874  1.00  0.00    -0.055 A  
HETATM   28  C   UNL     1      -8.044   3.833  68.391  1.00  0.00    -0.079 A  
HETATM   29  O   UNL     1      -8.839   1.883  69.505  1.00  0.00    -0.064 OA 
HETATM   30  C   UNL     1      -8.200   2.373  68.593  1.00  0.00    -0.056 C  
ENDBRANCH  21  22
ENDBRANCH   9  21
ENDBRANCH   4   5
ENDBRANCH   3   4
ENDBRANCH   2   3
TORSDOF 8
ENDMDL
MODEL      292
REMARK 921   NORMALIZED FREE ENERGY PREDICTED BY IDOCK:   65.13 KCAL/MOL
REMARK 922        TOTAL FREE ENERGY PREDICTED BY IDOCK:   93.47 KCAL/MOL
REMARK 923 INTER-LIGAND FREE ENERGY PREDICTED BY IDOCK:   78.72 KCAL/MOL
REMARK 924 INTRA-LIGAND FREE ENERGY PREDICTED BY IDOCK:   14.76 KCAL/MOL
REMARK 927      BINDING AFFINITY PREDICTED BY RF-SCORE:    0.00 PKD
ROOT
HETATM    1  C   UNL     1      -6.259  15.619  68.985  1.00  0.00    -0.113 C  
HETATM    2  C   UNL     1      -6.103  15.782  67.479  1.00  0.00    -0.162 C  
ENDROOT
BRANCH   2   3
HETATM    3  C   UNL     1      -6.792  14.629  66.748  1.00  0.00     1.367 C  
BRANCH   3   4
HETATM    4  C   UNL     1      -5.965  13.359  66.574  1.00  0.00     2.763 C  
BRANCH   4   5
HETATM    5  C   UNL     1      -6.607  12.123  67.120  1.00  0.00    -0.127 A  
HETATM    6  N   UNL     1      -5.910  11.196  67.747  1.00  0.00    -0.046 NA 
HETATM    7  C   UNL     1      -6.803  10.261  68.160  1.00  0.00    -0.066 A  
HETATM    8  C   UNL     1      -8.081  10.595  67.776  1.00  0.00    -0.111 A  
HETATM    9  N   UNL     1      -7.953  11.773  67.047  1.00  0.00    -0.161 NA 
BRANCH   8  10
HETATM   10  C   UNL     1      -9.322   9.996  68.060  1.00  0.00    -0.139 C  
HETATM   11  O   UNL     1     -11.797   9.263  70.512  1.00  0.00    -0.233 OA 
HETATM   12  C   UNL     1      -9.784   9.800  69.312  1.00  0.00    -0.204 C  
HETATM   13  C   UNL     1     -11.122   9.139  69.356  1.00  0.00    -0.008 C  
HETATM   14  O   UNL     1     -11.581   8.505  68.417  1.00  0.00     0.946 OA 
BRANCH  12  15
HETATM   15  C   UNL     1      -9.050  10.140  70.582  1.00  0.00     0.764 C  
BRANCH  15  16
HETATM   16  C   UNL     1      -7.643   9.619  70.718  1.00  0.00     0.002 A  
HETATM   17  C   UNL     1      -5.320   9.433  70.825  1.00  0.00    -0.032 A  
HETATM   18  C   UNL     1      -6.450  10.300  70.868  1.00  0.00     0.082 A  
HETATM   19  C   UNL     1      -5.688   8.112  70.713  1.00  0.00    -0.029 A  
HETATM   20  S   UNL     1      -7.384   7.921  70.665  1.00  0.00    -0.062 SA 
ENDBRANCH  15  16
ENDBRANCH  12  15
ENDBRANCH   8  10
BRANCH   9  21
HETATM   21  C   UNL     1      -8.968  12.377  66.167  1.00  0.00     0.037 C  
BRANCH  21  22
HETATM   22  C   UNL     1      -8.515  13.620  65.429  1.00  0.00     2.889 A  
HETATM   23  C   UNL     1      -9.412  14.645  65.097  1.00  0.00     0.457 A  
HETATM   24  C   UNL     1      -8.965  15.856  64.563  1.00  0.00     5.351 A  
HETATM   25  C   UNL     1      -7.181  13.772  65.023  1.00  0.00    12.206 A  
HETATM   26  O   UNL     1      -5.949  17.725  64.479  1.00  0.00     0.558 OA 
HETATM   27  C   UNL     1      -6.720  14.981  64.494  1.00  0.00    18.921 A  
HETATM   28  C   UNL     1      -7.604  16.050  64.332  1.00  0.00    12.346 A  
HETATM   29  O   UNL     1      -7.785  18.151  63.223  1.00  0.00    11.443 OA 
HETATM   30  C   UNL     1      -7.137  17.396  63.925  1.00  0.00    10.076 C  
ENDBRANCH  21  22
ENDBRANCH   9  21
ENDBRANCH   4   5
ENDBRANCH   3   4
ENDBRANCH   2   3
TORSDOF 8
ENDMDL
