MODEL        1
REMARK 921   NORMALIZED FREE ENERGY PREDICTED BY IDOCK:   -8.73 KCAL/MOL
REMARK 922        TOTAL FREE ENERGY PREDICTED BY IDOCK:  -11.18 KCAL/MOL
REMARK 923 INTER-LIGAND FREE ENERGY PREDICTED BY IDOCK:  -11.28 KCAL/MOL
REMARK 924 INTRA-LIGAND FREE ENERGY PREDICTED BY IDOCK:    0.10 KCAL/MOL
REMARK 927      BINDING AFFINITY PREDICTED BY RF-SCORE:    0.00 PKD
ROOT
HETATM    1  C   UNL     1     -10.713  15.539  68.944  1.00  0.00    -0.242 C  
HETATM    2  C   UNL     1     -11.197  15.096  70.319  1.00  0.00    -0.306 C  
HETATM    3  C   UNL     1     -11.705  13.697  70.313  1.00  0.00    -0.259 A  
HETATM    4  C   UNL     1     -12.661  13.344  71.263  1.00  0.00    -0.338 A  
HETATM    5  C   UNL     1     -13.143  12.052  71.359  1.00  0.00    -0.295 A  
HETATM    6  F   UNL     1     -13.111  14.264  72.128  1.00  0.00    -0.364 F  
HETATM    7  C   UNL     1     -12.689  11.077  70.477  1.00  0.00    -0.247 A  
HETATM    8  C   UNL     1      -7.374  19.147  67.827  1.00  0.00    -0.249 C  
HETATM    9  C   UNL     1     -11.710  11.419  69.520  1.00  0.00    -0.348 A  
HETATM   10  H   UNL     1      -8.680  17.407  65.493  1.00  0.00     0.000 HD 
HETATM   11  O   UNL     1     -11.342  10.461  68.611  1.00  0.00    -0.352 OA 
HETATM   12  C   UNL     1     -11.188  12.725  69.447  1.00  0.00    -0.198 A  
HETATM   13  C   UNL     1      -8.729  18.796  68.398  1.00  0.00    -0.337 C  
HETATM   14  O   UNL     1      -6.068  16.229  67.439  1.00  0.00    -0.145 OA 
HETATM   15  H   UNL     1     -10.683  10.691  67.967  1.00  0.00     0.000 HD 
HETATM   16  C   UNL     1      -6.796  18.385  66.887  1.00  0.00    -0.209 C  
HETATM   17  C   UNL     1     -10.047  13.095  68.547  1.00  0.00    -0.200 C  
HETATM   18  O   UNL     1      -9.306  12.244  68.060  1.00  0.00    -0.183 OA 
HETATM   19  C   UNL     1      -9.767  14.561  68.310  1.00  0.00    -0.218 C  
HETATM   20  C   UNL     1     -10.037  16.877  69.152  1.00  0.00    -0.269 C  
HETATM   21  H   UNL     1      -6.969  20.376  69.398  1.00  0.00     0.000 HD 
HETATM   22  C   UNL     1      -8.756  14.977  67.511  1.00  0.00    -0.184 C  
HETATM   23  C   UNL     1      -8.508  16.454  67.136  1.00  0.00    -0.183 C  
HETATM   24  C   UNL     1      -9.411  17.473  67.886  1.00  0.00    -0.277 C  
HETATM   25  O   UNL     1      -7.962  14.077  66.806  1.00  0.00    -0.357 OA 
HETATM   26  H   UNL     1      -7.252  14.369  66.245  1.00  0.00     0.000 HD 
HETATM   27  C   UNL     1      -7.037  16.935  67.162  1.00  0.00    -0.181 C  
HETATM   28  O   UNL     1      -8.833  16.498  65.724  1.00  0.00    -0.474 OA 
HETATM   29  O   UNL     1      -6.559  19.837  68.732  1.00  0.00    -0.283 OA 
ENDROOT
BRANCH   7  30
HETATM   30  N   UNL     1     -13.148   9.747  70.552  1.00  0.00    -0.570 N  
HETATM   31  O   UNL     1     -13.662   9.539  72.817  1.00  0.00    -0.304 OA 
HETATM   32  C   UNL     1     -13.492   9.052  71.701  1.00  0.00    -0.386 C  
HETATM   33  H   UNL     1     -13.236   9.243  69.670  1.00  0.00     0.000 HD 
BRANCH  32  34
HETATM   34  C   UNL     1     -13.718   7.560  71.465  1.00  0.00    -0.372 C  
BRANCH  34  35
HETATM   35  N   UNL     1     -12.467   6.786  71.617  1.00  0.00    -0.361 NA 
HETATM   36  C   UNL     1     -11.775   6.590  70.332  1.00  0.00    -0.375 C  
HETATM   37  C   UNL     1     -10.390   6.181  70.790  1.00  0.00    -0.266 C  
HETATM   38  C   UNL     1     -11.512   7.508  72.469  1.00  0.00    -0.327 C  
HETATM   39  C   UNL     1     -10.130   7.089  71.980  1.00  0.00    -0.201 C  
ENDBRANCH  34  35
ENDBRANCH  32  34
ENDBRANCH   7  30
BRANCH  16  40
HETATM   40  C   UNL     1      -6.981  19.013  65.543  1.00  0.00    -0.198 C  
HETATM   41  N   UNL     1      -7.841  20.062  65.457  1.00  0.00    -0.349 N  
HETATM   42  H2  UNL     1      -8.340  20.406  66.277  1.00  0.00     0.000 HD 
HETATM   43  H1  UNL     1      -7.967  20.491  64.540  1.00  0.00     0.000 HD 
HETATM   44  O   UNL     1      -6.447  18.602  64.518  1.00  0.00    -0.353 OA 
ENDBRANCH  16  40
BRANCH  13  45
HETATM   45  N   UNL     1      -9.752  19.868  68.395  1.00  0.00    -0.359 NA 
HETATM   46  C   UNL     1     -10.778  19.673  67.373  1.00  0.00    -0.435 C  
HETATM   47  C   UNL     1     -10.387  20.110  69.693  1.00  0.00     0.276 C  
ENDBRANCH  13  45
TORSDOF 5
ENDMDL
MODEL        2
REMARK 921   NORMALIZED FREE ENERGY PREDICTED BY IDOCK:   -8.56 KCAL/MOL
REMARK 922        TOTAL FREE ENERGY PREDICTED BY IDOCK:  -10.97 KCAL/MOL
REMARK 923 INTER-LIGAND FREE ENERGY PREDICTED BY IDOCK:  -10.54 KCAL/MOL
REMARK 924 INTRA-LIGAND FREE ENERGY PREDICTED BY IDOCK:   -0.43 KCAL/MOL
REMARK 927      BINDING AFFINITY PREDICTED BY RF-SCORE:    0.00 PKD
ROOT
HETATM    1  C   UNL     1      -8.573  14.130  68.477  1.00  0.00    -0.163 C  
HETATM    2  C   UNL     1      -7.641  12.943  68.267  1.00  0.00    -0.134 C  
HETATM    3  C   UNL     1      -8.308  11.646  68.566  1.00  0.00    -0.140 A  
HETATM    4  C   UNL     1      -7.510  10.578  68.973  1.00  0.00    -0.112 A  
HETATM    5  C   UNL     1      -8.044   9.328  69.218  1.00  0.00    -0.106 A  
HETATM    6  F   UNL     1      -6.187  10.750  69.107  1.00  0.00    -0.041 F  
HETATM    7  C   UNL     1      -9.413   9.121  69.082  1.00  0.00    -0.156 A  
HETATM    8  C   UNL     1      -8.310  18.705  66.375  1.00  0.00    -0.276 C  
HETATM    9  C   UNL     1     -10.230  10.191  68.657  1.00  0.00    -0.176 A  
HETATM   10  H   UNL     1     -10.710  17.997  68.355  1.00  0.00     0.000 HD 
HETATM   11  O   UNL     1     -11.584   9.983  68.612  1.00  0.00    -0.508 OA 
HETATM   12  C   UNL     1      -9.681  11.455  68.368  1.00  0.00    -0.203 A  
HETATM   13  C   UNL     1      -7.682  17.690  67.301  1.00  0.00    -0.204 C  
HETATM   14  O   UNL     1     -10.680  16.977  65.045  1.00  0.00    -0.713 OA 
HETATM   15  H   UNL     1     -12.134  10.702  68.326  1.00  0.00     0.000 HD 
HETATM   16  C   UNL     1      -9.637  18.741  66.177  1.00  0.00    -0.238 C  
HETATM   17  C   UNL     1     -10.486  12.574  67.776  1.00  0.00    -0.220 C  
HETATM   18  O   UNL     1     -11.567  12.372  67.228  1.00  0.00    -0.330 OA 
HETATM   19  C   UNL     1      -9.899  13.966  67.793  1.00  0.00    -0.237 C  
HETATM   20  C   UNL     1      -7.837  15.336  67.932  1.00  0.00    -0.149 C  
HETATM   21  H   UNL     1      -6.522  19.070  65.473  1.00  0.00     0.000 HD 
HETATM   22  C   UNL     1     -10.562  15.030  67.279  1.00  0.00    -0.279 C  
HETATM   23  C   UNL     1     -10.063  16.487  67.385  1.00  0.00    -0.279 C  
HETATM   24  C   UNL     1      -8.638  16.642  67.985  1.00  0.00    -0.193 C  
HETATM   25  O   UNL     1     -11.852  14.912  66.772  1.00  0.00    -0.304 OA 
HETATM   26  H   UNL     1     -12.318  15.659  66.411  1.00  0.00     0.000 HD 
HETATM   27  C   UNL     1     -10.197  17.356  66.111  1.00  0.00    -0.328 C  
HETATM   28  O   UNL     1     -11.017  17.099  68.290  1.00  0.00    -0.352 OA 
HETATM   29  O   UNL     1      -7.461  19.095  65.332  1.00  0.00    -0.436 OA 
ENDROOT
BRANCH   7  30
HETATM   30  N   UNL     1      -9.992   7.857  69.311  1.00  0.00    -0.185 N  
HETATM   31  O   UNL     1     -11.371   8.279  71.143  1.00  0.00    -0.252 OA 
HETATM   32  C   UNL     1     -10.825   7.504  70.361  1.00  0.00    -0.244 C  
HETATM   33  H   UNL     1      -9.774   7.126  68.634  1.00  0.00     0.000 HD 
BRANCH  32  34
HETATM   34  C   UNL     1     -11.083   6.001  70.453  1.00  0.00    -0.329 C  
BRANCH  34  35
HETATM   35  N   UNL     1     -10.517   5.422  71.690  1.00  0.00    -0.225 NA 
HETATM   36  C   UNL     1     -11.530   5.274  72.748  1.00  0.00    -0.247 C  
HETATM   37  C   UNL     1     -10.843   4.312  73.697  1.00  0.00    -0.358 C  
HETATM   38  C   UNL     1     -10.010   4.065  71.442  1.00  0.00    -0.140 C  
HETATM   39  C   UNL     1     -10.165   3.322  72.765  1.00  0.00    -0.240 C  
ENDBRANCH  34  35
ENDBRANCH  32  34
ENDBRANCH   7  30
BRANCH  16  40
HETATM   40  C   UNL     1     -10.240  19.839  66.993  1.00  0.00    -0.452 C  
HETATM   41  N   UNL     1      -9.572  21.022  67.039  1.00  0.00    -0.651 N  
HETATM   42  H2  UNL     1      -8.694  21.154  66.537  1.00  0.00     0.000 HD 
HETATM   43  H1  UNL     1      -9.983  21.771  67.596  1.00  0.00     0.000 HD 
HETATM   44  O   UNL     1     -11.262  19.713  67.659  1.00  0.00    -0.209 OA 
ENDBRANCH  16  40
BRANCH  13  45
HETATM   45  N   UNL     1      -6.763  18.214  68.340  1.00  0.00    -0.212 NA 
HETATM   46  C   UNL     1      -5.374  18.284  67.889  1.00  0.00    -0.156 C  
HETATM   47  C   UNL     1      -7.162  19.500  68.916  1.00  0.00    -0.362 C  
ENDBRANCH  13  45
TORSDOF 5
ENDMDL
MODEL        3
REMARK 921   NORMALIZED FREE ENERGY PREDICTED BY IDOCK:   -8.45 KCAL/MOL
REMARK 922        TOTAL FREE ENERGY PREDICTED BY IDOCK:  -10.82 KCAL/MOL
REMARK 923 INTER-LIGAND FREE ENERGY PREDICTED BY IDOCK:  -10.49 KCAL/MOL
REMARK 924 INTRA-LIGAND FREE ENERGY PREDICTED BY IDOCK:   -0.33 KCAL/MOL
REMARK 927      BINDING AFFINITY PREDICTED BY RF-SCORE:    0.00 PKD
ROOT
HETATM    1  C   UNL     1     -10.455  15.659  68.772  1.00  0.00    -0.225 C  
HETATM    2  C   UNL     1     -11.027  15.210  70.112  1.00  0.00    -0.277 C  
HETATM    3  C   UNL     1     -11.412  13.772  70.105  1.00  0.00    -0.140 A  
HETATM    4  C   UNL     1     -12.420  13.361  70.975  1.00  0.00    -0.353 A  
HETATM    5  C   UNL     1     -12.797  12.035  71.068  1.00  0.00    -0.279 A  
HETATM    6  F   UNL     1     -13.025  14.259  71.764  1.00  0.00    -0.363 F  
HETATM    7  C   UNL     1     -12.181  11.081  70.264  1.00  0.00    -0.363 A  
HETATM    8  C   UNL     1      -7.342  19.516  67.848  1.00  0.00    -0.275 C  
HETATM    9  C   UNL     1     -11.149  11.483  69.390  1.00  0.00    -0.226 A  
HETATM   10  H   UNL     1      -8.271  17.610  65.463  1.00  0.00     0.000 HD 
HETATM   11  O   UNL     1     -10.618  10.538  68.551  1.00  0.00    -0.182 OA 
HETATM   12  C   UNL     1     -10.735  12.828  69.323  1.00  0.00     0.040 A  
HETATM   13  C   UNL     1      -8.710  19.062  68.304  1.00  0.00    -0.331 C  
HETATM   14  O   UNL     1      -5.764  16.714  67.677  1.00  0.00    -0.120 OA 
HETATM   15  H   UNL     1      -9.923  10.809  67.963  1.00  0.00     0.000 HD 
HETATM   16  C   UNL     1      -6.616  18.783  66.990  1.00  0.00    -0.205 C  
HETATM   17  C   UNL     1      -9.550  13.274  68.520  1.00  0.00    -0.127 C  
HETATM   18  O   UNL     1      -8.697  12.478  68.130  1.00  0.00    -0.180 OA 
HETATM   19  C   UNL     1      -9.374  14.751  68.261  1.00  0.00    -0.199 C  
HETATM   20  C   UNL     1      -9.916  17.056  68.997  1.00  0.00    -0.269 C  
HETATM   21  H   UNL     1      -7.193  20.814  69.408  1.00  0.00     0.000 HD 
HETATM   22  C   UNL     1      -8.331  15.234  67.544  1.00  0.00    -0.175 C  
HETATM   23  C   UNL     1      -8.175  16.718  67.145  1.00  0.00    -0.184 C  
HETATM   24  C   UNL     1      -9.227  17.672  67.775  1.00  0.00    -0.251 C  
HETATM   25  O   UNL     1      -7.401  14.390  66.945  1.00  0.00    -0.318 OA 
HETATM   26  H   UNL     1      -6.669  14.729  66.442  1.00  0.00     0.000 HD 
HETATM   27  C   UNL     1      -6.758  17.325  67.289  1.00  0.00    -0.158 C  
HETATM   28  O   UNL     1      -8.368  16.697  65.708  1.00  0.00    -0.391 OA 
HETATM   29  O   UNL     1      -6.678  20.296  68.801  1.00  0.00    -0.297 OA 
ENDROOT
BRANCH   7  30
HETATM   30  N   UNL     1     -12.532   9.718  70.341  1.00  0.00    -0.495 N  
HETATM   31  O   UNL     1     -12.744   9.401  72.641  1.00  0.00    -0.265 OA 
HETATM   32  C   UNL     1     -12.680   8.964  71.494  1.00  0.00    -0.335 C  
HETATM   33  H   UNL     1     -12.692   9.237  69.456  1.00  0.00     0.000 HD 
BRANCH  32  34
HETATM   34  C   UNL     1     -12.826   7.467  71.227  1.00  0.00    -0.321 C  
BRANCH  34  35
HETATM   35  N   UNL     1     -11.517   6.780  71.225  1.00  0.00    -0.285 NA 
HETATM   36  C   UNL     1     -11.457   5.693  72.217  1.00  0.00    -0.217 C  
HETATM   37  C   UNL     1     -10.251   4.909  71.741  1.00  0.00    -0.268 C  
HETATM   38  C   UNL     1     -11.272   6.136  69.926  1.00  0.00    -0.414 C  
HETATM   39  C   UNL     1     -10.395   4.926  70.228  1.00  0.00    -0.252 C  
ENDBRANCH  34  35
ENDBRANCH  32  34
ENDBRANCH   7  30
BRANCH  16  40
HETATM   40  C   UNL     1      -6.726  19.360  65.615  1.00  0.00    -0.275 C  
HETATM   41  N   UNL     1      -7.173  20.639  65.508  1.00  0.00    -0.525 N  
HETATM   42  H2  UNL     1      -7.423  21.183  66.333  1.00  0.00     0.000 HD 
HETATM   43  H1  UNL     1      -7.248  21.032  64.570  1.00  0.00     0.000 HD 
HETATM   44  O   UNL     1      -6.491  18.729  64.590  1.00  0.00    -0.482 OA 
ENDBRANCH  16  40
BRANCH  13  45
HETATM   45  N   UNL     1      -9.816  20.040  68.172  1.00  0.00    -0.385 NA 
HETATM   46  C   UNL     1     -10.779  19.674  67.135  1.00  0.00    -0.464 C  
HETATM   47  C   UNL     1     -10.522  20.336  69.421  1.00  0.00     0.336 C  
ENDBRANCH  13  45
TORSDOF 5
ENDMDL
MODEL        4
REMARK 921   NORMALIZED FREE ENERGY PREDICTED BY IDOCK:   -8.18 KCAL/MOL
REMARK 922        TOTAL FREE ENERGY PREDICTED BY IDOCK:  -10.47 KCAL/MOL
REMARK 923 INTER-LIGAND FREE ENERGY PREDICTED BY IDOCK:   -9.99 KCAL/MOL
REMARK 924 INTRA-LIGAND FREE ENERGY PREDICTED BY IDOCK:   -0.49 KCAL/MOL
REMARK 927      BINDING AFFINITY PREDICTED BY RF-SCORE:    0.00 PKD
ROOT
HETATM    1  C   UNL     1      -8.632  14.108  68.521  1.00  0.00    -0.163 C  
HETATM    2  C   UNL     1      -7.686  12.926  68.344  1.00  0.00    -0.133 C  
HETATM    3  C   UNL     1      -8.365  11.623  68.584  1.00  0.00    -0.100 A  
HETATM    4  C   UNL     1      -7.588  10.551  69.017  1.00  0.00    -0.117 A  
HETATM    5  C   UNL     1      -8.132   9.295  69.210  1.00  0.00    -0.106 A  
HETATM    6  F   UNL     1      -6.276  10.723  69.229  1.00  0.00    -0.043 F  
HETATM    7  C   UNL     1      -9.491   9.088  68.992  1.00  0.00    -0.155 A  
HETATM    8  C   UNL     1      -8.264  18.719  66.515  1.00  0.00    -0.291 C  
HETATM    9  C   UNL     1     -10.285  10.163  68.540  1.00  0.00    -0.174 A  
HETATM   10  H   UNL     1     -10.771  17.972  68.343  1.00  0.00     0.000 HD 
HETATM   11  O   UNL     1     -11.634   9.952  68.414  1.00  0.00    -0.518 OA 
HETATM   12  C   UNL     1      -9.724  11.433  68.304  1.00  0.00    -0.202 A  
HETATM   13  C   UNL     1      -7.687  17.690  67.459  1.00  0.00    -0.201 C  
HETATM   14  O   UNL     1     -10.549  17.009  65.023  1.00  0.00    -0.703 OA 
HETATM   15  H   UNL     1     -12.168  10.676  68.109  1.00  0.00     0.000 HD 
HETATM   16  C   UNL     1      -9.578  18.755  66.243  1.00  0.00    -0.316 C  
HETATM   17  C   UNL     1     -10.497  12.560  67.686  1.00  0.00    -0.217 C  
HETATM   18  O   UNL     1     -11.545  12.365  67.073  1.00  0.00    -0.335 OA 
HETATM   19  C   UNL     1      -9.917  13.953  67.760  1.00  0.00    -0.241 C  
HETATM   20  C   UNL     1      -7.871  15.325  68.039  1.00  0.00    -0.137 C  
HETATM   21  H   UNL     1      -6.429  19.103  65.723  1.00  0.00     0.000 HD 
HETATM   22  C   UNL     1     -10.553  15.024  67.227  1.00  0.00    -0.279 C  
HETATM   23  C   UNL     1     -10.066  16.480  67.386  1.00  0.00    -0.279 C  
HETATM   24  C   UNL     1      -8.677  16.628  68.068  1.00  0.00    -0.194 C  
HETATM   25  O   UNL     1     -11.812  14.912  66.645  1.00  0.00    -0.291 OA 
HETATM   26  H   UNL     1     -12.258  15.664  66.271  1.00  0.00     0.000 HD 
HETATM   27  C   UNL     1     -10.129  17.371  66.121  1.00  0.00    -0.300 C  
HETATM   28  O   UNL     1     -11.071  17.075  68.245  1.00  0.00    -0.337 OA 
HETATM   29  O   UNL     1      -7.358  19.129  65.530  1.00  0.00    -0.460 OA 
ENDROOT
BRANCH   7  30
HETATM   30  N   UNL     1     -10.077   7.819  69.166  1.00  0.00    -0.191 N  
HETATM   31  O   UNL     1     -11.588   8.215  70.896  1.00  0.00    -0.282 OA 
HETATM   32  C   UNL     1     -10.982   7.451  70.149  1.00  0.00    -0.255 C  
HETATM   33  H   UNL     1      -9.807   7.096  68.500  1.00  0.00     0.000 HD 
BRANCH  32  34
HETATM   34  C   UNL     1     -11.239   5.946  70.208  1.00  0.00    -0.247 C  
BRANCH  34  35
HETATM   35  N   UNL     1      -9.980   5.173  70.145  1.00  0.00    -0.231 NA 
HETATM   36  C   UNL     1      -9.758   4.372  71.360  1.00  0.00    -0.178 C  
HETATM   37  C   UNL     1      -8.699   3.394  70.894  1.00  0.00    -0.125 C  
HETATM   38  C   UNL     1     -10.023   4.203  69.041  1.00  0.00     0.085 C  
HETATM   39  C   UNL     1      -9.143   3.039  69.485  1.00  0.00    -0.198 C  
ENDBRANCH  34  35
ENDBRANCH  32  34
ENDBRANCH   7  30
BRANCH  16  40
HETATM   40  C   UNL     1     -10.230  19.838  67.041  1.00  0.00    -0.452 C  
HETATM   41  N   UNL     1      -9.600  21.041  67.092  1.00  0.00    -0.661 N  
HETATM   42  H2  UNL     1      -8.718  21.199  66.605  1.00  0.00     0.000 HD 
HETATM   43  H1  UNL     1     -10.045  21.780  67.637  1.00  0.00     0.000 HD 
HETATM   44  O   UNL     1     -11.259  19.683  67.689  1.00  0.00    -0.209 OA 
ENDBRANCH  16  40
BRANCH  13  45
HETATM   45  N   UNL     1      -6.830  18.197  68.557  1.00  0.00    -0.230 NA 
HETATM   46  C   UNL     1      -5.403  18.029  68.290  1.00  0.00    -0.160 C  
HETATM   47  C   UNL     1      -7.100  19.582  68.951  1.00  0.00    -0.359 C  
ENDBRANCH  13  45
TORSDOF 5
ENDMDL
MODEL        5
REMARK 921   NORMALIZED FREE ENERGY PREDICTED BY IDOCK:   -8.03 KCAL/MOL
REMARK 922        TOTAL FREE ENERGY PREDICTED BY IDOCK:  -10.28 KCAL/MOL
REMARK 923 INTER-LIGAND FREE ENERGY PREDICTED BY IDOCK:   -9.39 KCAL/MOL
REMARK 924 INTRA-LIGAND FREE ENERGY PREDICTED BY IDOCK:   -0.88 KCAL/MOL
REMARK 927      BINDING AFFINITY PREDICTED BY RF-SCORE:    0.00 PKD
ROOT
HETATM    1  C   UNL     1      -9.566   8.692  67.590  1.00  0.00    -0.190 C  
HETATM    2  C   UNL     1     -10.837   9.419  68.011  1.00  0.00    -0.197 C  
HETATM    3  C   UNL     1     -10.900  10.802  67.465  1.00  0.00    -0.342 A  
HETATM    4  C   UNL     1     -11.638  11.752  68.169  1.00  0.00    -0.323 A  
HETATM    5  C   UNL     1     -11.790  13.043  67.701  1.00  0.00    -0.401 A  
HETATM    6  F   UNL     1     -12.243  11.407  69.315  1.00  0.00    -0.348 F  
HETATM    7  C   UNL     1     -11.178  13.425  66.512  1.00  0.00    -0.307 A  
HETATM    8  C   UNL     1      -8.789   3.722  67.250  1.00  0.00    -0.123 C  
HETATM    9  C   UNL     1     -10.439  12.469  65.782  1.00  0.00    -0.271 A  
HETATM   10  H   UNL     1      -6.469   5.757  66.439  1.00  0.00     0.000 HD 
HETATM   11  O   UNL     1      -9.778  12.893  64.659  1.00  0.00    -0.543 OA 
HETATM   12  C   UNL     1     -10.317  11.142  66.237  1.00  0.00    -0.299 A  
HETATM   13  C   UNL     1      -9.069   4.910  68.140  1.00  0.00    -0.114 C  
HETATM   14  O   UNL     1      -9.111   5.025  64.323  1.00  0.00    -0.086 OA 
HETATM   15  H   UNL     1      -9.281  12.250  64.167  1.00  0.00     0.000 HD 
HETATM   16  C   UNL     1      -8.121   3.859  66.095  1.00  0.00    -0.101 C  
HETATM   17  C   UNL     1      -9.668  10.061  65.425  1.00  0.00    -0.302 C  
HETATM   18  O   UNL     1      -9.485  10.183  64.216  1.00  0.00    -0.274 OA 
HETATM   19  C   UNL     1      -9.308   8.765  66.112  1.00  0.00    -0.297 C  
HETATM   20  C   UNL     1      -9.746   7.254  68.029  1.00  0.00    -0.157 C  
HETATM   21  H   UNL     1     -10.232   2.621  68.172  1.00  0.00     0.000 HD 
HETATM   22  C   UNL     1      -8.719   7.741  65.450  1.00  0.00    -0.020 C  
HETATM   23  C   UNL     1      -8.219   6.449  66.132  1.00  0.00    -0.122 C  
HETATM   24  C   UNL     1      -8.593   6.324  67.635  1.00  0.00    -0.114 C  
HETATM   25  O   UNL     1      -8.346   7.852  64.113  1.00  0.00    -0.339 OA 
HETATM   26  H   UNL     1      -7.933   7.133  63.648  1.00  0.00     0.000 HD 
HETATM   27  C   UNL     1      -8.523   5.120  65.399  1.00  0.00    -0.141 C  
HETATM   28  O   UNL     1      -6.777   6.552  66.020  1.00  0.00    -0.046 OA 
HETATM   29  O   UNL     1      -9.759   2.718  67.354  1.00  0.00    -0.037 OA 
ENDROOT
BRANCH   7  30
HETATM   30  N   UNL     1     -11.321  14.728  65.997  1.00  0.00    -0.343 N  
HETATM   31  O   UNL     1      -9.125  15.510  66.035  1.00  0.00    -0.326 OA 
HETATM   32  C   UNL     1     -10.332  15.694  65.897  1.00  0.00    -0.350 C  
HETATM   33  H   UNL     1     -12.250  14.988  65.665  1.00  0.00     0.000 HD 
BRANCH  32  34
HETATM   34  C   UNL     1     -10.867  17.076  65.522  1.00  0.00    -0.069 C  
BRANCH  34  35
HETATM   35  N   UNL     1     -10.147  18.153  66.234  1.00  0.00    -0.420 NA 
HETATM   36  C   UNL     1     -10.532  19.491  65.754  1.00  0.00    -0.425 C  
HETATM   37  C   UNL     1     -10.021  20.377  66.872  1.00  0.00    -0.549 C  
HETATM   38  C   UNL     1     -10.483  18.141  67.666  1.00  0.00    -0.416 C  
HETATM   39  C   UNL     1     -10.358  19.589  68.127  1.00  0.00    -0.550 C  
ENDBRANCH  34  35
ENDBRANCH  32  34
ENDBRANCH   7  30
BRANCH  16  40
HETATM   40  C   UNL     1      -6.699   3.434  66.280  1.00  0.00    -0.048 C  
HETATM   41  N   UNL     1      -5.793   3.870  65.366  1.00  0.00    -0.022 N  
HETATM   42  H2  UNL     1      -6.071   4.463  64.585  1.00  0.00     0.000 HD 
HETATM   43  H1  UNL     1      -4.823   3.580  65.493  1.00  0.00     0.000 HD 
HETATM   44  O   UNL     1      -6.323   2.678  67.170  1.00  0.00    -0.030 OA 
ENDBRANCH  16  40
BRANCH  13  45
HETATM   45  N   UNL     1      -8.683   4.782  69.566  1.00  0.00    -0.085 NA 
HETATM   46  C   UNL     1      -9.804   4.416  70.429  1.00  0.00    -0.216 C  
HETATM   47  C   UNL     1      -7.553   3.883  69.813  1.00  0.00    -0.052 C  
ENDBRANCH  13  45
TORSDOF 5
ENDMDL
MODEL        6
REMARK 921   NORMALIZED FREE ENERGY PREDICTED BY IDOCK:   -7.91 KCAL/MOL
REMARK 922        TOTAL FREE ENERGY PREDICTED BY IDOCK:  -10.12 KCAL/MOL
REMARK 923 INTER-LIGAND FREE ENERGY PREDICTED BY IDOCK:   -9.42 KCAL/MOL
REMARK 924 INTRA-LIGAND FREE ENERGY PREDICTED BY IDOCK:   -0.70 KCAL/MOL
REMARK 927      BINDING AFFINITY PREDICTED BY RF-SCORE:    0.00 PKD
ROOT
HETATM    1  C   UNL     1     -10.287   7.926  66.904  1.00  0.00    -0.400 C  
HETATM    2  C   UNL     1     -10.022   9.205  66.118  1.00  0.00    -0.338 C  
HETATM    3  C   UNL     1     -10.590  10.405  66.791  1.00  0.00    -0.270 A  
HETATM    4  C   UNL     1     -10.939  11.496  65.997  1.00  0.00    -0.259 A  
HETATM    5  C   UNL     1     -11.422  12.667  66.548  1.00  0.00    -0.409 A  
HETATM    6  F   UNL     1     -10.780  11.429  64.667  1.00  0.00    -0.330 F  
HETATM    7  C   UNL     1     -11.592  12.765  67.926  1.00  0.00    -0.351 A  
HETATM    8  C   UNL     1      -7.692   3.606  66.792  1.00  0.00    -0.081 C  
HETATM    9  C   UNL     1     -11.228  11.673  68.742  1.00  0.00    -0.245 A  
HETATM   10  H   UNL     1     -10.185   3.917  68.759  1.00  0.00     0.000 HD 
HETATM   11  O   UNL     1     -11.483  11.766  70.085  1.00  0.00    -0.482 OA 
HETATM   12  C   UNL     1     -10.698  10.493  68.184  1.00  0.00    -0.273 A  
HETATM   13  C   UNL     1      -8.575   4.582  66.049  1.00  0.00    -0.114 C  
HETATM   14  O   UNL     1      -7.069   5.236  69.498  1.00  0.00    -0.056 OA 
HETATM   15  H   UNL     1     -11.239  11.030  70.635  1.00  0.00     0.000 HD 
HETATM   16  C   UNL     1      -7.766   3.473  68.125  1.00  0.00    -0.064 C  
HETATM   17  C   UNL     1     -10.164   9.368  69.021  1.00  0.00    -0.205 C  
HETATM   18  O   UNL     1      -9.874   9.525  70.204  1.00  0.00    -0.212 OA 
HETATM   19  C   UNL     1      -9.910   8.037  68.353  1.00  0.00    -0.184 C  
HETATM   20  C   UNL     1      -9.476   6.845  66.223  1.00  0.00    -0.122 C  
HETATM   21  H   UNL     1      -6.410   3.483  65.215  1.00  0.00     0.000 HD 
HETATM   22  C   UNL     1      -9.430   6.972  69.038  1.00  0.00    -0.138 C  
HETATM   23  C   UNL     1      -9.273   5.560  68.434  1.00  0.00    -0.112 C  
HETATM   24  C   UNL     1      -9.549   5.475  66.907  1.00  0.00    -0.149 C  
HETATM   25  O   UNL     1      -9.212   7.022  70.412  1.00  0.00    -0.156 OA 
HETATM   26  H   UNL     1      -8.875   6.275  70.893  1.00  0.00     0.000 HD 
HETATM   27  C   UNL     1      -7.966   4.804  68.777  1.00  0.00    -0.079 C  
HETATM   28  O   UNL     1     -10.282   4.786  69.131  1.00  0.00    -0.171 OA 
HETATM   29  O   UNL     1      -6.462   3.389  66.159  1.00  0.00    -0.035 OA 
ENDROOT
BRANCH   7  30
HETATM   30  N   UNL     1     -12.069  13.948  68.525  1.00  0.00    -0.470 N  
HETATM   31  O   UNL     1     -10.090  15.081  69.009  1.00  0.00    -0.227 OA 
HETATM   32  C   UNL     1     -11.308  14.949  69.107  1.00  0.00    -0.292 C  
HETATM   33  H   UNL     1     -13.080  14.080  68.531  1.00  0.00     0.000 HD 
BRANCH  32  34
HETATM   34  C   UNL     1     -12.138  15.975  69.877  1.00  0.00    -0.113 C  
BRANCH  34  35
HETATM   35  N   UNL     1     -12.378  15.549  71.273  1.00  0.00    -0.373 NA 
HETATM   36  C   UNL     1     -11.695  16.420  72.244  1.00  0.00    -0.373 C  
HETATM   37  C   UNL     1     -12.413  16.064  73.531  1.00  0.00    -0.682 C  
HETATM   38  C   UNL     1     -13.808  15.641  71.603  1.00  0.00    -0.341 C  
HETATM   39  C   UNL     1     -13.863  15.930  73.100  1.00  0.00    -0.388 C  
ENDBRANCH  34  35
ENDBRANCH  32  34
ENDBRANCH   7  30
BRANCH  16  40
HETATM   40  C   UNL     1      -8.564   2.256  68.468  1.00  0.00    -0.075 C  
HETATM   41  N   UNL     1      -9.623   1.959  67.670  1.00  0.00    -0.409 N  
HETATM   42  H2  UNL     1      -9.865   2.543  66.871  1.00  0.00     0.000 HD 
HETATM   43  H1  UNL     1     -10.167   1.128  67.905  1.00  0.00     0.000 HD 
HETATM   44  O   UNL     1      -8.348   1.553  69.449  1.00  0.00    -0.044 OA 
ENDBRANCH  16  40
BRANCH  13  45
HETATM   45  N   UNL     1      -9.341   4.047  64.899  1.00  0.00    -0.152 NA 
HETATM   46  C   UNL     1     -10.784   4.223  65.044  1.00  0.00    -0.111 C  
HETATM   47  C   UNL     1      -8.910   4.549  63.592  1.00  0.00    -0.140 C  
ENDBRANCH  13  45
TORSDOF 5
ENDMDL
MODEL        7
REMARK 921   NORMALIZED FREE ENERGY PREDICTED BY IDOCK:   -7.86 KCAL/MOL
REMARK 922        TOTAL FREE ENERGY PREDICTED BY IDOCK:  -10.06 KCAL/MOL
REMARK 923 INTER-LIGAND FREE ENERGY PREDICTED BY IDOCK:   -9.64 KCAL/MOL
REMARK 924 INTRA-LIGAND FREE ENERGY PREDICTED BY IDOCK:   -0.43 KCAL/MOL
REMARK 927      BINDING AFFINITY PREDICTED BY RF-SCORE:    0.00 PKD
ROOT
HETATM    1  C   UNL     1     -10.183   8.615  66.745  1.00  0.00    -0.361 C  
HETATM    2  C   UNL     1      -9.654   9.351  65.520  1.00  0.00    -0.328 C  
HETATM    3  C   UNL     1     -10.079  10.777  65.495  1.00  0.00    -0.335 A  
HETATM    4  C   UNL     1     -10.184  11.407  64.256  1.00  0.00    -0.315 A  
HETATM    5  C   UNL     1     -10.519  12.743  64.150  1.00  0.00    -0.437 A  
HETATM    6  F   UNL     1      -9.927  10.717  63.136  1.00  0.00    -0.314 F  
HETATM    7  C   UNL     1     -10.785  13.484  65.298  1.00  0.00    -0.323 A  
HETATM    8  C   UNL     1      -8.304   4.490  68.954  1.00  0.00    -0.080 C  
HETATM    9  C   UNL     1     -10.669  12.861  66.559  1.00  0.00    -0.269 A  
HETATM   10  H   UNL     1     -10.872   5.930  70.187  1.00  0.00     0.000 HD 
HETATM   11  O   UNL     1     -11.017  13.590  67.666  1.00  0.00    -0.255 OA 
HETATM   12  C   UNL     1     -10.287  11.510  66.670  1.00  0.00    -0.262 A  
HETATM   13  C   UNL     1      -8.957   5.098  67.734  1.00  0.00    -0.110 C  
HETATM   14  O   UNL     1      -7.659   7.114  70.707  1.00  0.00    -0.086 OA 
HETATM   15  H   UNL     1     -10.938  13.171  68.515  1.00  0.00     0.000 HD 
HETATM   16  C   UNL     1      -8.510   4.997  70.179  1.00  0.00    -0.097 C  
HETATM   17  C   UNL     1     -10.010  10.850  67.989  1.00  0.00    -0.171 C  
HETATM   18  O   UNL     1      -9.797  11.506  69.006  1.00  0.00    -0.127 OA 
HETATM   19  C   UNL     1      -9.915   9.343  68.031  1.00  0.00    -0.209 C  
HETATM   20  C   UNL     1      -9.499   7.264  66.746  1.00  0.00    -0.218 C  
HETATM   21  H   UNL     1      -6.932   3.522  67.805  1.00  0.00     0.000 HD 
HETATM   22  C   UNL     1      -9.668   8.672  69.181  1.00  0.00    -0.173 C  
HETATM   23  C   UNL     1      -9.687   7.133  69.300  1.00  0.00    -0.159 C  
HETATM   24  C   UNL     1      -9.845   6.381  67.949  1.00  0.00    -0.130 C  
HETATM   25  O   UNL     1      -9.560   9.329  70.403  1.00  0.00    -0.207 OA 
HETATM   26  H   UNL     1      -9.387   8.858  71.210  1.00  0.00     0.000 HD 
HETATM   27  C   UNL     1      -8.550   6.491  70.132  1.00  0.00    -0.140 C  
HETATM   28  O   UNL     1     -10.860   6.877  70.114  1.00  0.00    -0.239 OA 
HETATM   29  O   UNL     1      -7.076   3.881  68.672  1.00  0.00    -0.050 OA 
ENDROOT
BRANCH   7  30
HETATM   30  N   UNL     1     -11.117  14.851  65.229  1.00  0.00    -0.358 N  
HETATM   31  O   UNL     1      -9.056  15.872  65.604  1.00  0.00    -0.311 OA 
HETATM   32  C   UNL     1     -10.278  15.923  65.486  1.00  0.00    -0.365 C  
HETATM   33  H   UNL     1     -12.076  15.075  64.963  1.00  0.00     0.000 HD 
BRANCH  32  34
HETATM   34  C   UNL     1     -11.007  17.264  65.559  1.00  0.00     0.100 C  
BRANCH  34  35
HETATM   35  N   UNL     1     -10.224  18.274  66.302  1.00  0.00    -0.396 NA 
HETATM   36  C   UNL     1     -10.534  19.646  65.870  1.00  0.00    -0.493 C  
HETATM   37  C   UNL     1      -9.968  20.463  67.014  1.00  0.00    -0.568 C  
HETATM   38  C   UNL     1     -10.553  18.232  67.734  1.00  0.00    -0.393 C  
HETATM   39  C   UNL     1     -10.344  19.654  68.244  1.00  0.00    -0.539 C  
ENDBRANCH  34  35
ENDBRANCH  32  34
ENDBRANCH   7  30
BRANCH  16  40
HETATM   40  C   UNL     1      -9.515   4.165  70.908  1.00  0.00    -0.162 C  
HETATM   41  N   UNL     1     -10.155   4.739  71.961  1.00  0.00    -0.189 N  
HETATM   42  H2  UNL     1      -9.957   5.699  72.242  1.00  0.00     0.000 HD 
HETATM   43  H1  UNL     1     -10.841   4.171  72.458  1.00  0.00     0.000 HD 
HETATM   44  O   UNL     1      -9.749   2.991  70.645  1.00  0.00    -0.159 OA 
ENDBRANCH  16  40
BRANCH  13  45
HETATM   45  N   UNL     1      -9.700   4.174  66.845  1.00  0.00    -0.212 NA 
HETATM   46  C   UNL     1      -9.478   4.447  65.426  1.00  0.00    -0.175 C  
HETATM   47  C   UNL     1      -9.474   2.752  67.116  1.00  0.00    -0.019 C  
ENDBRANCH  13  45
TORSDOF 5
ENDMDL
MODEL        8
REMARK 921   NORMALIZED FREE ENERGY PREDICTED BY IDOCK:   -7.67 KCAL/MOL
REMARK 922        TOTAL FREE ENERGY PREDICTED BY IDOCK:   -9.81 KCAL/MOL
REMARK 923 INTER-LIGAND FREE ENERGY PREDICTED BY IDOCK:   -9.12 KCAL/MOL
REMARK 924 INTRA-LIGAND FREE ENERGY PREDICTED BY IDOCK:   -0.69 KCAL/MOL
REMARK 927      BINDING AFFINITY PREDICTED BY RF-SCORE:    0.00 PKD
ROOT
HETATM    1  C   UNL     1      -9.970   9.219  70.230  1.00  0.00    -0.262 C  
HETATM    2  C   UNL     1     -11.147  10.158  70.468  1.00  0.00    -0.400 C  
HETATM    3  C   UNL     1     -11.138  11.317  69.535  1.00  0.00    -0.299 A  
HETATM    4  C   UNL     1     -11.747  12.499  69.953  1.00  0.00    -0.255 A  
HETATM    5  C   UNL     1     -11.829  13.603  69.125  1.00  0.00    -0.394 A  
HETATM    6  F   UNL     1     -12.296  12.569  71.174  1.00  0.00    -0.439 F  
HETATM    7  C   UNL     1     -11.273  13.555  67.851  1.00  0.00    -0.274 A  
HETATM    8  C   UNL     1      -9.616   4.320  71.365  1.00  0.00    -0.169 C  
HETATM    9  C   UNL     1     -10.665  12.360  67.411  1.00  0.00    -0.229 A  
HETATM   10  H   UNL     1      -7.203   5.790  69.881  1.00  0.00     0.000 HD 
HETATM   11  O   UNL     1     -10.053  12.368  66.184  1.00  0.00    -0.237 OA 
HETATM   12  C   UNL     1     -10.617  11.221  68.238  1.00  0.00    -0.228 A  
HETATM   13  C   UNL     1      -9.738   5.739  71.869  1.00  0.00    -0.159 C  
HETATM   14  O   UNL     1     -10.037   4.726  68.199  1.00  0.00    -0.120 OA 
HETATM   15  H   UNL     1      -9.645  11.563  65.888  1.00  0.00     0.000 HD 
HETATM   16  C   UNL     1      -9.021   4.045  70.195  1.00  0.00    -0.159 C  
HETATM   17  C   UNL     1     -10.114   9.891  67.760  1.00  0.00    -0.180 C  
HETATM   18  O   UNL     1     -10.008   9.633  66.563  1.00  0.00    -0.214 OA 
HETATM   19  C   UNL     1      -9.812   8.828  68.789  1.00  0.00    -0.180 C  
HETATM   20  C   UNL     1     -10.232   7.999  71.088  1.00  0.00    -0.225 C  
HETATM   21  H   UNL     1     -11.073   3.685  72.637  1.00  0.00     0.000 HD 
HETATM   22  C   UNL     1      -9.354   7.602  68.440  1.00  0.00    -0.146 C  
HETATM   23  C   UNL     1      -8.910   6.527  69.456  1.00  0.00    -0.138 C  
HETATM   24  C   UNL     1      -9.188   6.888  70.942  1.00  0.00    -0.157 C  
HETATM   25  O   UNL     1      -9.067   7.277  67.117  1.00  0.00    -0.125 OA 
HETATM   26  H   UNL     1      -8.746   6.417  66.872  1.00  0.00     0.000 HD 
HETATM   27  C   UNL     1      -9.370   5.077  69.170  1.00  0.00    -0.122 C  
HETATM   28  O   UNL     1      -7.476   6.452  69.256  1.00  0.00    -0.089 OA 
HETATM   29  O   UNL     1     -10.653   3.490  71.808  1.00  0.00     0.157 OA 
ENDROOT
BRANCH   7  30
HETATM   30  N   UNL     1     -11.348  14.657  66.975  1.00  0.00    -0.345 N  
HETATM   31  O   UNL     1      -9.098  15.166  66.641  1.00  0.00    -0.243 OA 
HETATM   32  C   UNL     1     -10.292  15.434  66.527  1.00  0.00    -0.289 C  
HETATM   33  H   UNL     1     -12.277  14.908  66.637  1.00  0.00     0.000 HD 
BRANCH  32  34
HETATM   34  C   UNL     1     -10.736  16.693  65.784  1.00  0.00    -0.204 C  
BRANCH  34  35
HETATM   35  N   UNL     1     -10.088  17.906  66.327  1.00  0.00    -0.404 NA 
HETATM   36  C   UNL     1     -10.633  19.140  65.736  1.00  0.00    -0.341 C  
HETATM   37  C   UNL     1     -10.149  20.189  66.717  1.00  0.00    -0.591 C  
HETATM   38  C   UNL     1     -10.336  18.022  67.772  1.00  0.00    -0.393 C  
HETATM   39  C   UNL     1     -10.331  19.519  68.068  1.00  0.00    -0.564 C  
ENDBRANCH  34  35
ENDBRANCH  32  34
ENDBRANCH   7  30
BRANCH  16  40
HETATM   40  C   UNL     1      -7.628   3.558  70.438  1.00  0.00    -0.040 C  
HETATM   41  N   UNL     1      -6.823   3.402  69.354  1.00  0.00    -0.041 N  
HETATM   42  H2  UNL     1      -7.156   3.608  68.413  1.00  0.00     0.000 HD 
HETATM   43  H1  UNL     1      -5.873   3.070  69.520  1.00  0.00     0.000 HD 
HETATM   44  O   UNL     1      -7.198   3.244  71.542  1.00  0.00    -0.035 OA 
ENDBRANCH  16  40
BRANCH  13  45
HETATM   45  N   UNL     1      -9.264   6.001  73.249  1.00  0.00    -0.133 NA 
HETATM   46  C   UNL     1      -7.973   6.684  73.288  1.00  0.00    -0.100 C  
HETATM   47  C   UNL     1     -10.224   6.709  74.100  1.00  0.00    -0.363 C  
ENDBRANCH  13  45
TORSDOF 5
ENDMDL
MODEL        9
REMARK 921   NORMALIZED FREE ENERGY PREDICTED BY IDOCK:   -7.64 KCAL/MOL
REMARK 922        TOTAL FREE ENERGY PREDICTED BY IDOCK:   -9.77 KCAL/MOL
REMARK 923 INTER-LIGAND FREE ENERGY PREDICTED BY IDOCK:   -9.33 KCAL/MOL
REMARK 924 INTRA-LIGAND FREE ENERGY PREDICTED BY IDOCK:   -0.45 KCAL/MOL
REMARK 927      BINDING AFFINITY PREDICTED BY RF-SCORE:    0.00 PKD
ROOT
HETATM    1  C   UNL     1     -10.489  10.067  70.333  1.00  0.00    -0.304 C  
HETATM    2  C   UNL     1     -11.593  11.102  70.515  1.00  0.00    -0.287 C  
HETATM    3  C   UNL     1     -11.495  12.208  69.523  1.00  0.00    -0.334 A  
HETATM    4  C   UNL     1     -12.016  13.451  69.875  1.00  0.00    -0.338 A  
HETATM    5  C   UNL     1     -12.014  14.513  68.992  1.00  0.00    -0.334 A  
HETATM    6  F   UNL     1     -12.561  13.624  71.088  1.00  0.00    -0.383 F  
HETATM    7  C   UNL     1     -11.459  14.359  67.725  1.00  0.00    -0.336 A  
HETATM    8  C   UNL     1     -10.502   5.221  71.721  1.00  0.00    -0.214 C  
HETATM    9  C   UNL     1     -10.941  13.101  67.351  1.00  0.00    -0.264 A  
HETATM   10  H   UNL     1      -7.984   6.429  70.178  1.00  0.00     0.000 HD 
HETATM   11  O   UNL     1     -10.327  13.000  66.130  1.00  0.00    -0.267 OA 
HETATM   12  C   UNL     1     -10.980  12.006  68.236  1.00  0.00    -0.275 A  
HETATM   13  C   UNL     1     -10.520   6.670  72.150  1.00  0.00    -0.204 C  
HETATM   14  O   UNL     1     -10.885   5.492  68.535  1.00  0.00    -0.166 OA 
HETATM   15  H   UNL     1      -9.979  12.153  65.878  1.00  0.00     0.000 HD 
HETATM   16  C   UNL     1      -9.927   4.842  70.570  1.00  0.00    -0.306 C  
HETATM   17  C   UNL     1     -10.576  10.619  67.831  1.00  0.00    -0.228 C  
HETATM   18  O   UNL     1     -10.487  10.292  66.649  1.00  0.00    -0.230 OA 
HETATM   19  C   UNL     1     -10.356   9.591  68.915  1.00  0.00    -0.225 C  
HETATM   20  C   UNL     1     -10.843   8.917  71.251  1.00  0.00    -0.360 C  
HETATM   21  H   UNL     1     -12.006   4.763  73.014  1.00  0.00     0.000 HD 
HETATM   22  C   UNL     1      -9.990   8.318  68.632  1.00  0.00    -0.190 C  
HETATM   23  C   UNL     1      -9.630   7.267  69.705  1.00  0.00    -0.162 C  
HETATM   24  C   UNL     1      -9.884   7.724  71.169  1.00  0.00    -0.187 C  
HETATM   25  O   UNL     1      -9.725   7.905  67.330  1.00  0.00    -0.153 OA 
HETATM   26  H   UNL     1      -9.468   7.011  67.131  1.00  0.00     0.000 HD 
HETATM   27  C   UNL     1     -10.196   5.842  69.492  1.00  0.00    -0.225 C  
HETATM   28  O   UNL     1      -8.205   7.076  69.519  1.00  0.00    -0.128 OA 
HETATM   29  O   UNL     1     -11.599   4.494  72.199  1.00  0.00     0.515 OA 
ENDROOT
BRANCH   7  30
HETATM   30  N   UNL     1     -11.450  15.416  66.794  1.00  0.00    -0.133 N  
HETATM   31  O   UNL     1      -9.169  15.829  66.549  1.00  0.00    -0.233 OA 
HETATM   32  C   UNL     1     -10.345  16.132  66.361  1.00  0.00    -0.315 C  
HETATM   33  H   UNL     1     -12.351  15.682  66.396  1.00  0.00     0.000 HD 
BRANCH  32  34
HETATM   34  C   UNL     1     -10.704  17.366  65.536  1.00  0.00    -0.078 C  
BRANCH  34  35
HETATM   35  N   UNL     1     -10.875  18.564  66.386  1.00  0.00    -0.158 NA 
HETATM   36  C   UNL     1     -10.441  18.327  67.773  1.00  0.00    -0.410 C  
HETATM   37  C   UNL     1     -10.309  19.743  68.299  1.00  0.00    -0.536 C  
HETATM   38  C   UNL     1     -10.036  19.669  65.898  1.00  0.00    -0.397 C  
HETATM   39  C   UNL     1      -9.689  20.494  67.133  1.00  0.00    -0.581 C  
ENDBRANCH  34  35
ENDBRANCH  32  34
ENDBRANCH   7  30
BRANCH  16  40
HETATM   40  C   UNL     1      -8.575   4.267  70.846  1.00  0.00    -0.084 C  
HETATM   41  N   UNL     1      -7.762   4.042  69.781  1.00  0.00    -0.052 N  
HETATM   42  H2  UNL     1      -8.063   4.257  68.830  1.00  0.00     0.000 HD 
HETATM   43  H1  UNL     1      -6.840   3.650  69.970  1.00  0.00     0.000 HD 
HETATM   44  O   UNL     1      -8.188   3.940  71.963  1.00  0.00    -0.081 OA 
ENDBRANCH  16  40
BRANCH  13  45
HETATM   45  N   UNL     1     -10.031   6.967  73.518  1.00  0.00    -0.230 NA 
HETATM   46  C   UNL     1     -10.271   5.874  74.458  1.00  0.00    -0.278 C  
HETATM   47  C   UNL     1      -8.628   7.381  73.588  1.00  0.00    -0.175 C  
ENDBRANCH  13  45
TORSDOF 5
ENDMDL
MODEL       10
REMARK 921   NORMALIZED FREE ENERGY PREDICTED BY IDOCK:   -7.63 KCAL/MOL
REMARK 922        TOTAL FREE ENERGY PREDICTED BY IDOCK:   -9.76 KCAL/MOL
REMARK 923 INTER-LIGAND FREE ENERGY PREDICTED BY IDOCK:   -9.19 KCAL/MOL
REMARK 924 INTRA-LIGAND FREE ENERGY PREDICTED BY IDOCK:   -0.57 KCAL/MOL
REMARK 927      BINDING AFFINITY PREDICTED BY RF-SCORE:    0.00 PKD
ROOT
HETATM    1  C   UNL     1      -9.887   8.735  68.835  1.00  0.00    -0.183 C  
HETATM    2  C   UNL     1      -8.826   9.597  68.162  1.00  0.00    -0.119 C  
HETATM    3  C   UNL     1      -9.383  10.883  67.659  1.00  0.00    -0.163 A  
HETATM    4  C   UNL     1      -8.749  11.492  66.578  1.00  0.00    -0.183 A  
HETATM    5  C   UNL     1      -9.170  12.713  66.086  1.00  0.00    -0.052 A  
HETATM    6  F   UNL     1      -7.686  10.903  66.012  1.00  0.00    -0.146 F  
HETATM    7  C   UNL     1     -10.268  13.348  66.659  1.00  0.00    -0.274 A  
HETATM    8  C   UNL     1      -9.236   5.133  72.302  1.00  0.00    -0.138 C  
HETATM    9  C   UNL     1     -10.910  12.748  67.763  1.00  0.00    -0.225 A  
HETATM   10  H   UNL     1     -12.179   5.901  71.335  1.00  0.00     0.000 HD 
HETATM   11  O   UNL     1     -12.037  13.354  68.254  1.00  0.00    -0.343 OA 
HETATM   12  C   UNL     1     -10.456  11.524  68.291  1.00  0.00    -0.219 A  
HETATM   13  C   UNL     1      -9.005   5.591  70.880  1.00  0.00    -0.139 C  
HETATM   14  O   UNL     1     -10.435   7.802  73.646  1.00  0.00    -0.256 OA 
HETATM   15  H   UNL     1     -12.469  12.950  68.997  1.00  0.00     0.000 HD 
HETATM   16  C   UNL     1     -10.298   5.555  73.005  1.00  0.00    -0.231 C  
HETATM   17  C   UNL     1     -11.013  10.925  69.548  1.00  0.00    -0.253 C  
HETATM   18  O   UNL     1     -11.663  11.593  70.349  1.00  0.00    -0.313 OA 
HETATM   19  C   UNL     1     -10.690   9.483  69.860  1.00  0.00    -0.268 C  
HETATM   20  C   UNL     1      -9.141   7.585  69.477  1.00  0.00    -0.143 C  
HETATM   21  H   UNL     1      -7.298   4.538  72.483  1.00  0.00     0.000 HD 
HETATM   22  C   UNL     1     -11.155   8.868  70.974  1.00  0.00    -0.276 C  
HETATM   23  C   UNL     1     -10.959   7.366  71.273  1.00  0.00    -0.242 C  
HETATM   24  C   UNL     1     -10.029   6.623  70.275  1.00  0.00    -0.191 C  
HETATM   25  O   UNL     1     -12.017   9.510  71.858  1.00  0.00    -0.370 OA 
HETATM   26  H   UNL     1     -12.344   9.079  72.640  1.00  0.00     0.000 HD 
HETATM   27  C   UNL     1     -10.576   6.997  72.727  1.00  0.00    -0.254 C  
HETATM   28  O   UNL     1     -12.299   6.825  71.150  1.00  0.00    -0.371 OA 
HETATM   29  O   UNL     1      -8.049   4.836  72.981  1.00  0.00    -0.099 OA 
ENDROOT
BRANCH   7  30
HETATM   30  N   UNL     1     -10.718  14.599  66.193  1.00  0.00    -0.305 N  
HETATM   31  O   UNL     1      -8.713  15.701  65.744  1.00  0.00    -0.094 OA 
HETATM   32  C   UNL     1      -9.935  15.698  65.877  1.00  0.00    -0.351 C  
HETATM   33  H   UNL     1     -11.725  14.707  66.075  1.00  0.00     0.000 HD 
BRANCH  32  34
HETATM   34  C   UNL     1     -10.743  16.972  65.633  1.00  0.00    -0.144 C  
BRANCH  34  35
HETATM   35  N   UNL     1     -10.070  18.163  66.194  1.00  0.00    -0.503 NA 
HETATM   36  C   UNL     1     -10.685  19.418  65.731  1.00  0.00    -0.365 C  
HETATM   37  C   UNL     1     -10.134  20.416  66.731  1.00  0.00    -0.478 C  
HETATM   38  C   UNL     1     -10.192  18.185  67.659  1.00  0.00    -0.374 C  
HETATM   39  C   UNL     1     -10.186  19.660  68.048  1.00  0.00    -0.579 C  
ENDBRANCH  34  35
ENDBRANCH  32  34
ENDBRANCH   7  30
BRANCH  16  40
HETATM   40  C   UNL     1     -11.353   4.495  73.012  1.00  0.00    -0.153 C  
HETATM   41  N   UNL     1     -12.648   4.904  73.056  1.00  0.00    -0.025 N  
HETATM   42  H2  UNL     1     -12.890   5.894  73.084  1.00  0.00     0.000 HD 
HETATM   43  H1  UNL     1     -13.367   4.181  73.061  1.00  0.00     0.000 HD 
HETATM   44  O   UNL     1     -11.112   3.293  73.036  1.00  0.00    -0.097 OA 
ENDBRANCH  16  40
BRANCH  13  45
HETATM   45  N   UNL     1      -8.772   4.533  69.868  1.00  0.00    -0.072 NA 
HETATM   46  C   UNL     1      -7.389   4.491  69.397  1.00  0.00    -0.052 C  
HETATM   47  C   UNL     1      -9.197   3.192  70.277  1.00  0.00    -0.147 C  
ENDBRANCH  13  45
TORSDOF 5
ENDMDL
MODEL       11
REMARK 921   NORMALIZED FREE ENERGY PREDICTED BY IDOCK:   -7.60 KCAL/MOL
REMARK 922        TOTAL FREE ENERGY PREDICTED BY IDOCK:   -9.73 KCAL/MOL
REMARK 923 INTER-LIGAND FREE ENERGY PREDICTED BY IDOCK:   -9.29 KCAL/MOL
REMARK 924 INTRA-LIGAND FREE ENERGY PREDICTED BY IDOCK:   -0.43 KCAL/MOL
REMARK 927      BINDING AFFINITY PREDICTED BY RF-SCORE:    0.00 PKD
ROOT
HETATM    1  C   UNL     1     -10.395   8.115  67.902  1.00  0.00    -0.280 C  
HETATM    2  C   UNL     1      -9.610   8.702  66.735  1.00  0.00    -0.269 C  
HETATM    3  C   UNL     1     -10.044  10.087  66.406  1.00  0.00    -0.307 A  
HETATM    4  C   UNL     1      -9.869  10.535  65.098  1.00  0.00    -0.297 A  
HETATM    5  C   UNL     1     -10.196  11.824  64.725  1.00  0.00    -0.324 A  
HETATM    6  F   UNL     1      -9.347   9.712  64.178  1.00  0.00    -0.288 F  
HETATM    7  C   UNL     1     -10.735  12.701  65.662  1.00  0.00    -0.269 A  
HETATM    8  C   UNL     1      -9.005   4.436  71.056  1.00  0.00    -0.117 C  
HETATM    9  C   UNL     1     -10.904  12.264  66.993  1.00  0.00    -0.250 A  
HETATM   10  H   UNL     1     -11.815   5.896  71.450  1.00  0.00     0.000 HD 
HETATM   11  O   UNL     1     -11.513  13.119  67.874  1.00  0.00    -0.271 OA 
HETATM   12  C   UNL     1     -10.533  10.962  67.384  1.00  0.00    -0.263 A  
HETATM   13  C   UNL     1      -9.368   4.835  69.644  1.00  0.00    -0.133 C  
HETATM   14  O   UNL     1      -8.834   7.305  72.509  1.00  0.00    -0.121 OA 
HETATM   15  H   UNL     1     -11.626  12.825  68.770  1.00  0.00     0.000 HD 
HETATM   16  C   UNL     1      -9.499   5.095  72.115  1.00  0.00    -0.170 C  
HETATM   17  C   UNL     1     -10.558  10.506  68.813  1.00  0.00    -0.207 C  
HETATM   18  O   UNL     1     -10.600  11.305  69.746  1.00  0.00    -0.060 OA 
HETATM   19  C   UNL     1     -10.447   9.026  69.094  1.00  0.00    -0.239 C  
HETATM   20  C   UNL     1      -9.705   6.814  68.254  1.00  0.00    -0.126 C  
HETATM   21  H   UNL     1      -7.385   3.392  70.403  1.00  0.00     0.000 HD 
HETATM   22  C   UNL     1     -10.463   8.533  70.356  1.00  0.00    -0.207 C  
HETATM   23  C   UNL     1     -10.480   7.025  70.690  1.00  0.00    -0.210 C  
HETATM   24  C   UNL     1     -10.305   6.088  69.463  1.00  0.00    -0.295 C  
HETATM   25  O   UNL     1     -10.654   9.356  71.461  1.00  0.00    -0.341 OA 
HETATM   26  H   UNL     1     -10.665   9.010  72.346  1.00  0.00     0.000 HD 
HETATM   27  C   UNL     1      -9.555   6.564  71.843  1.00  0.00    -0.150 C  
HETATM   28  O   UNL     1     -11.805   6.823  71.244  1.00  0.00    -0.311 OA 
HETATM   29  O   UNL     1      -7.734   3.858  71.153  1.00  0.00    -0.053 OA 
ENDROOT
BRANCH   7  30
HETATM   30  N   UNL     1     -11.068  14.026  65.321  1.00  0.00    -0.312 N  
HETATM   31  O   UNL     1      -9.064  15.148  65.718  1.00  0.00    -0.198 OA 
HETATM   32  C   UNL     1     -10.267  15.147  65.469  1.00  0.00    -0.376 C  
HETATM   33  H   UNL     1     -11.996  14.177  64.924  1.00  0.00     0.000 HD 
BRANCH  32  34
HETATM   34  C   UNL     1     -11.009  16.462  65.232  1.00  0.00    -0.195 C  
BRANCH  34  35
HETATM   35  N   UNL     1     -10.333  17.600  65.891  1.00  0.00    -0.562 NA 
HETATM   36  C   UNL     1     -10.883  18.896  65.463  1.00  0.00     0.087 C  
HETATM   37  C   UNL     1     -10.360  19.822  66.543  1.00  0.00    -0.621 C  
HETATM   38  C   UNL     1     -10.538  17.550  67.346  1.00  0.00    -0.311 C  
HETATM   39  C   UNL     1     -10.509  19.002  67.813  1.00  0.00    -0.499 C  
ENDBRANCH  34  35
ENDBRANCH  32  34
ENDBRANCH   7  30
BRANCH  16  40
HETATM   40  C   UNL     1     -10.631   4.320  72.710  1.00  0.00    -0.165 C  
HETATM   41  N   UNL     1     -11.576   5.019  73.392  1.00  0.00    -0.479 N  
HETATM   42  H2  UNL     1     -11.515   6.031  73.494  1.00  0.00     0.000 HD 
HETATM   43  H1  UNL     1     -12.348   4.489  73.797  1.00  0.00     0.000 HD 
HETATM   44  O   UNL     1     -10.720   3.098  72.662  1.00  0.00    -0.099 OA 
ENDBRANCH  16  40
BRANCH  13  45
HETATM   45  N   UNL     1      -9.866   3.760  68.754  1.00  0.00    -0.001 NA 
HETATM   46  C   UNL     1      -9.249   3.787  67.429  1.00  0.00    -0.183 C  
HETATM   47  C   UNL     1      -9.774   2.410  69.316  1.00  0.00     0.181 C  
ENDBRANCH  13  45
TORSDOF 5
ENDMDL
MODEL       12
REMARK 921   NORMALIZED FREE ENERGY PREDICTED BY IDOCK:   -7.58 KCAL/MOL
REMARK 922        TOTAL FREE ENERGY PREDICTED BY IDOCK:   -9.69 KCAL/MOL
REMARK 923 INTER-LIGAND FREE ENERGY PREDICTED BY IDOCK:   -9.15 KCAL/MOL
REMARK 924 INTRA-LIGAND FREE ENERGY PREDICTED BY IDOCK:   -0.54 KCAL/MOL
REMARK 927      BINDING AFFINITY PREDICTED BY RF-SCORE:    0.00 PKD
ROOT
HETATM    1  C   UNL     1     -10.190  11.416  68.890  1.00  0.00    -0.184 C  
HETATM    2  C   UNL     1     -11.428  12.270  69.141  1.00  0.00    -0.352 C  
HETATM    3  C   UNL     1     -11.128  13.726  69.077  1.00  0.00    -0.296 A  
HETATM    4  C   UNL     1     -11.939  14.594  69.807  1.00  0.00    -0.329 A  
HETATM    5  C   UNL     1     -11.761  15.963  69.759  1.00  0.00    -0.323 A  
HETATM    6  F   UNL     1     -12.936  14.101  70.556  1.00  0.00    -0.383 F  
HETATM    7  C   UNL     1     -10.736  16.501  68.986  1.00  0.00    -0.332 A  
HETATM    8  C   UNL     1      -9.968   6.672  67.200  1.00  0.00    -0.160 C  
HETATM    9  C   UNL     1      -9.918  15.634  68.231  1.00  0.00    -0.213 A  
HETATM   10  H   UNL     1      -7.276   8.280  67.793  1.00  0.00     0.000 HD 
HETATM   11  O   UNL     1      -8.866  16.184  67.545  1.00  0.00    -0.186 OA 
HETATM   12  C   UNL     1     -10.124  14.241  68.247  1.00  0.00    -0.238 A  
HETATM   13  C   UNL     1     -10.385   7.612  68.307  1.00  0.00    -0.198 C  
HETATM   14  O   UNL     1      -9.107   8.744  64.890  1.00  0.00    -0.096 OA 
HETATM   15  H   UNL     1      -8.316  15.600  67.036  1.00  0.00     0.000 HD 
HETATM   16  C   UNL     1      -8.934   6.959  66.395  1.00  0.00    -0.172 C  
HETATM   17  C   UNL     1      -9.376  13.298  67.352  1.00  0.00    -0.217 C  
HETATM   18  O   UNL     1      -8.779  13.694  66.353  1.00  0.00     0.014 OA 
HETATM   19  C   UNL     1      -9.437  11.820  67.656  1.00  0.00    -0.180 C  
HETATM   20  C   UNL     1     -10.686   9.991  68.770  1.00  0.00    -0.250 C  
HETATM   21  H   UNL     1     -11.763   5.715  67.262  1.00  0.00     0.000 HD 
HETATM   22  C   UNL     1      -8.790  10.905  66.896  1.00  0.00    -0.142 C  
HETATM   23  C   UNL     1      -8.716   9.401  67.238  1.00  0.00    -0.128 C  
HETATM   24  C   UNL     1      -9.593   8.967  68.445  1.00  0.00    -0.163 C  
HETATM   25  O   UNL     1      -7.972  11.281  65.835  1.00  0.00    -0.347 OA 
HETATM   26  H   UNL     1      -7.518  10.639  65.301  1.00  0.00     0.000 HD 
HETATM   27  C   UNL     1      -8.915   8.416  66.060  1.00  0.00    -0.184 C  
HETATM   28  O   UNL     1      -7.321   9.206  67.584  1.00  0.00    -0.086 OA 
HETATM   29  O   UNL     1     -11.032   5.918  66.691  1.00  0.00    -0.287 OA 
ENDROOT
BRANCH   7  30
HETATM   30  N   UNL     1     -10.533  17.893  68.902  1.00  0.00    -0.398 N  
HETATM   31  O   UNL     1     -10.899  18.302  66.637  1.00  0.00    -0.251 OA 
HETATM   32  C   UNL     1     -10.522  18.662  67.749  1.00  0.00    -0.411 C  
HETATM   33  H   UNL     1     -10.377  18.385  69.782  1.00  0.00     0.000 HD 
BRANCH  32  34
HETATM   34  C   UNL     1     -10.036  20.092  67.977  1.00  0.00    -0.381 C  
BRANCH  34  35
HETATM   35  N   UNL     1      -8.571  20.207  67.808  1.00  0.00    -0.289 NA 
HETATM   36  C   UNL     1      -7.834  19.354  68.754  1.00  0.00    -0.357 C  
HETATM   37  C   UNL     1      -6.457  19.314  68.123  1.00  0.00    -0.249 C  
HETATM   38  C   UNL     1      -8.167  19.746  66.471  1.00  0.00    -0.335 C  
HETATM   39  C   UNL     1      -6.754  19.198  66.638  1.00  0.00    -0.203 C  
ENDBRANCH  34  35
ENDBRANCH  32  34
ENDBRANCH   7  30
BRANCH  16  40
HETATM   40  C   UNL     1      -7.725   6.195  66.833  1.00  0.00    -0.103 C  
HETATM   41  N   UNL     1      -6.510   6.718  66.522  1.00  0.00    -0.042 N  
HETATM   42  H2  UNL     1      -6.426   7.596  66.011  1.00  0.00     0.000 HD 
HETATM   43  H1  UNL     1      -5.686   6.196  66.821  1.00  0.00     0.000 HD 
HETATM   44  O   UNL     1      -7.773   5.109  67.401  1.00  0.00    -0.090 OA 
ENDBRANCH  16  40
BRANCH  13  45
HETATM   45  N   UNL     1     -10.527   7.028  69.662  1.00  0.00    -0.215 NA 
HETATM   46  C   UNL     1     -11.902   6.644  69.975  1.00  0.00    -0.238 C  
HETATM   47  C   UNL     1      -9.624   5.909  69.941  1.00  0.00    -0.158 C  
ENDBRANCH  13  45
TORSDOF 5
ENDMDL
MODEL       13
REMARK 921   NORMALIZED FREE ENERGY PREDICTED BY IDOCK:   -7.55 KCAL/MOL
REMARK 922        TOTAL FREE ENERGY PREDICTED BY IDOCK:   -9.66 KCAL/MOL
REMARK 923 INTER-LIGAND FREE ENERGY PREDICTED BY IDOCK:   -9.07 KCAL/MOL
REMARK 924 INTRA-LIGAND FREE ENERGY PREDICTED BY IDOCK:   -0.59 KCAL/MOL
REMARK 927      BINDING AFFINITY PREDICTED BY RF-SCORE:    0.00 PKD
ROOT
HETATM    1  C   UNL     1      -9.839  11.010  67.612  1.00  0.00    -0.192 C  
HETATM    2  C   UNL     1      -9.939  11.604  66.212  1.00  0.00    -0.247 C  
HETATM    3  C   UNL     1      -9.875  13.091  66.227  1.00  0.00    -0.278 A  
HETATM    4  C   UNL     1     -10.496  13.783  65.189  1.00  0.00    -0.384 A  
HETATM    5  C   UNL     1     -10.436  15.161  65.100  1.00  0.00    -0.437 A  
HETATM    6  F   UNL     1     -11.146  13.105  64.232  1.00  0.00    -0.335 F  
HETATM    7  C   UNL     1      -9.763  15.889  66.077  1.00  0.00    -0.343 A  
HETATM    8  C   UNL     1      -8.289   6.400  68.937  1.00  0.00    -0.121 C  
HETATM    9  C   UNL     1      -9.118  15.198  67.125  1.00  0.00    -0.211 A  
HETATM   10  H   UNL     1      -9.126   8.507  71.183  1.00  0.00     0.000 HD 
HETATM   11  O   UNL     1      -8.534  15.943  68.117  1.00  0.00    -0.163 OA 
HETATM   12  C   UNL     1      -9.144  13.792  67.194  1.00  0.00    -0.243 A  
HETATM   13  C   UNL     1      -9.324   7.241  68.228  1.00  0.00    -0.135 C  
HETATM   14  O   UNL     1      -6.036   8.597  69.620  1.00  0.00    -0.032 OA 
HETATM   15  H   UNL     1      -8.100  15.479  68.822  1.00  0.00     0.000 HD 
HETATM   16  C   UNL     1      -7.591   6.883  69.976  1.00  0.00    -0.099 C  
HETATM   17  C   UNL     1      -8.353  13.013  68.204  1.00  0.00    -0.164 C  
HETATM   18  O   UNL     1      -7.414  13.517  68.816  1.00  0.00    -0.109 OA 
HETATM   19  C   UNL     1      -8.682  11.552  68.400  1.00  0.00    -0.160 C  
HETATM   20  C   UNL     1      -9.699   9.515  67.420  1.00  0.00    -0.201 C  
HETATM   21  H   UNL     1      -8.182   5.109  67.367  1.00  0.00     0.000 HD 
HETATM   22  C   UNL     1      -8.016  10.781  69.292  1.00  0.00    -0.106 C  
HETATM   23  C   UNL     1      -8.396   9.321  69.621  1.00  0.00    -0.140 C  
HETATM   24  C   UNL     1      -9.514   8.725  68.720  1.00  0.00    -0.142 C  
HETATM   25  O   UNL     1      -7.038  11.309  70.130  1.00  0.00    -0.440 OA 
HETATM   26  H   UNL     1      -6.570  10.768  70.755  1.00  0.00     0.000 HD 
HETATM   27  C   UNL     1      -7.227   8.315  69.746  1.00  0.00    -0.060 C  
HETATM   28  O   UNL     1      -8.892   9.405  70.981  1.00  0.00    -0.250 OA 
HETATM   29  O   UNL     1      -7.688   5.451  68.102  1.00  0.00    -0.083 OA 
ENDROOT
BRANCH   7  30
HETATM   30  N   UNL     1      -9.670  17.293  66.012  1.00  0.00    -0.215 N  
HETATM   31  O   UNL     1     -10.886  17.946  67.891  1.00  0.00    -0.365 OA 
HETATM   32  C   UNL     1     -10.308  18.205  66.838  1.00  0.00    -0.375 C  
HETATM   33  H   UNL     1      -9.071  17.678  65.282  1.00  0.00     0.000 HD 
BRANCH  32  34
HETATM   34  C   UNL     1     -10.190  19.650  66.354  1.00  0.00    -0.488 C  
BRANCH  34  35
HETATM   35  N   UNL     1      -8.916  20.267  66.778  1.00  0.00    -0.309 NA 
HETATM   36  C   UNL     1      -8.419  19.704  68.044  1.00  0.00    -0.312 C  
HETATM   37  C   UNL     1      -6.972  20.156  68.034  1.00  0.00    -0.325 C  
HETATM   38  C   UNL     1      -7.859  20.002  65.791  1.00  0.00    -0.198 C  
HETATM   39  C   UNL     1      -6.556  19.973  66.584  1.00  0.00    -0.232 C  
ENDBRANCH  34  35
ENDBRANCH  32  34
ENDBRANCH   7  30
BRANCH  16  40
HETATM   40  C   UNL     1      -8.171   6.372  71.256  1.00  0.00    -0.122 C  
HETATM   41  N   UNL     1      -7.899   7.073  72.388  1.00  0.00    -0.094 N  
HETATM   42  H2  UNL     1      -7.322   7.914  72.365  1.00  0.00     0.000 HD 
HETATM   43  H1  UNL     1      -8.294   6.724  73.261  1.00  0.00     0.000 HD 
HETATM   44  O   UNL     1      -8.823   5.338  71.345  1.00  0.00    -0.131 OA 
ENDBRANCH  16  40
BRANCH  13  45
HETATM   45  N   UNL     1     -10.669   6.642  68.057  1.00  0.00    -0.243 NA 
HETATM   46  C   UNL     1     -10.776   5.816  66.857  1.00  0.00    -0.305 C  
HETATM   47  C   UNL     1     -11.155   5.894  69.219  1.00  0.00    -0.282 C  
ENDBRANCH  13  45
TORSDOF 5
ENDMDL
MODEL       14
REMARK 921   NORMALIZED FREE ENERGY PREDICTED BY IDOCK:   -7.46 KCAL/MOL
REMARK 922        TOTAL FREE ENERGY PREDICTED BY IDOCK:   -9.55 KCAL/MOL
REMARK 923 INTER-LIGAND FREE ENERGY PREDICTED BY IDOCK:   -8.68 KCAL/MOL
REMARK 924 INTRA-LIGAND FREE ENERGY PREDICTED BY IDOCK:   -0.87 KCAL/MOL
REMARK 927      BINDING AFFINITY PREDICTED BY RF-SCORE:    0.00 PKD
ROOT
HETATM    1  C   UNL     1     -10.429  11.242  69.501  1.00  0.00    -0.017 C  
HETATM    2  C   UNL     1     -11.647  12.145  69.347  1.00  0.00    -0.381 C  
HETATM    3  C   UNL     1     -11.276  13.518  68.908  1.00  0.00    -0.316 A  
HETATM    4  C   UNL     1     -12.123  14.568  69.257  1.00  0.00    -0.290 A  
HETATM    5  C   UNL     1     -11.879  15.863  68.843  1.00  0.00    -0.314 A  
HETATM    6  F   UNL     1     -13.220  14.323  69.989  1.00  0.00    -0.212 F  
HETATM    7  C   UNL     1     -10.751  16.145  68.078  1.00  0.00    -0.321 A  
HETATM    8  C   UNL     1     -10.232   6.209  69.271  1.00  0.00    -0.201 C  
HETATM    9  C   UNL     1      -9.893  15.088  67.706  1.00  0.00    -0.220 A  
HETATM   10  H   UNL     1      -7.554   7.891  69.702  1.00  0.00     0.000 HD 
HETATM   11  O   UNL     1      -8.747  15.405  67.024  1.00  0.00    -0.195 OA 
HETATM   12  C   UNL     1     -10.163  13.761  68.094  1.00  0.00    -0.253 A  
HETATM   13  C   UNL     1     -10.728   7.434  70.006  1.00  0.00    -0.246 C  
HETATM   14  O   UNL     1      -9.024   7.518  66.588  1.00  0.00    -0.139 OA 
HETATM   15  H   UNL     1      -8.170  14.694  66.773  1.00  0.00     0.000 HD 
HETATM   16  C   UNL     1      -9.102   6.241  68.549  1.00  0.00    -0.125 C  
HETATM   17  C   UNL     1      -9.362  12.592  67.600  1.00  0.00    -0.190 C  
HETATM   18  O   UNL     1      -8.639  12.677  66.610  1.00  0.00    -0.148 OA 
HETATM   19  C   UNL     1      -9.524  11.265  68.303  1.00  0.00    -0.190 C  
HETATM   20  C   UNL     1     -10.972   9.848  69.732  1.00  0.00    -0.304 C  
HETATM   21  H   UNL     1     -12.065   5.331  69.385  1.00  0.00     0.000 HD 
HETATM   22  C   UNL     1      -8.837  10.162  67.920  1.00  0.00    -0.125 C  
HETATM   23  C   UNL     1      -8.870   8.819  68.681  1.00  0.00    -0.138 C  
HETATM   24  C   UNL     1      -9.897   8.762  69.847  1.00  0.00    -0.189 C  
HETATM   25  O   UNL     1      -7.889  10.208  66.902  1.00  0.00    -0.105 OA 
HETATM   26  H   UNL     1      -7.407   9.434  66.632  1.00  0.00     0.000 HD 
HETATM   27  C   UNL     1      -8.980   7.539  67.817  1.00  0.00    -0.131 C  
HETATM   28  O   UNL     1      -7.534   8.718  69.234  1.00  0.00    -0.075 OA 
HETATM   29  O   UNL     1     -11.265   5.353  68.873  1.00  0.00     0.195 OA 
ENDROOT
BRANCH   7  30
HETATM   30  N   UNL     1     -10.477  17.451  67.627  1.00  0.00    -0.361 N  
HETATM   31  O   UNL     1     -10.670  17.217  65.316  1.00  0.00    -0.629 OA 
HETATM   32  C   UNL     1     -10.352  17.865  66.311  1.00  0.00    -0.364 C  
HETATM   33  H   UNL     1     -10.358  18.166  68.345  1.00  0.00     0.000 HD 
BRANCH  32  34
HETATM   34  C   UNL     1      -9.815  19.288  66.168  1.00  0.00    -0.367 C  
BRANCH  34  35
HETATM   35  N   UNL     1      -8.441  19.411  66.700  1.00  0.00    -0.303 NA 
HETATM   36  C   UNL     1      -7.432  19.455  65.629  1.00  0.00    -0.144 C  
HETATM   37  C   UNL     1      -6.224  19.996  66.368  1.00  0.00    -0.191 C  
HETATM   38  C   UNL     1      -8.283  20.673  67.438  1.00  0.00    -0.230 C  
HETATM   39  C   UNL     1      -6.815  21.058  67.279  1.00  0.00    -0.434 C  
ENDBRANCH  34  35
ENDBRANCH  32  34
ENDBRANCH   7  30
BRANCH  16  40
HETATM   40  C   UNL     1      -7.986   5.623  69.329  1.00  0.00    -0.096 C  
HETATM   41  N   UNL     1      -6.722   6.025  69.036  1.00  0.00    -0.058 N  
HETATM   42  H2  UNL     1      -6.542   6.721  68.313  1.00  0.00     0.000 HD 
HETATM   43  H1  UNL     1      -5.961   5.603  69.568  1.00  0.00     0.000 HD 
HETATM   44  O   UNL     1      -8.146   4.743  70.168  1.00  0.00    -0.067 OA 
ENDBRANCH  16  40
BRANCH  13  45
HETATM   45  N   UNL     1     -11.049   7.266  71.443  1.00  0.00    -0.240 NA 
HETATM   46  C   UNL     1     -12.478   7.094  71.692  1.00  0.00    -0.370 C  
HETATM   47  C   UNL     1     -10.297   6.202  72.115  1.00  0.00    -0.197 C  
ENDBRANCH  13  45
TORSDOF 5
ENDMDL
MODEL       15
REMARK 921   NORMALIZED FREE ENERGY PREDICTED BY IDOCK:   -7.42 KCAL/MOL
REMARK 922        TOTAL FREE ENERGY PREDICTED BY IDOCK:   -9.50 KCAL/MOL
REMARK 923 INTER-LIGAND FREE ENERGY PREDICTED BY IDOCK:   -8.68 KCAL/MOL
REMARK 924 INTRA-LIGAND FREE ENERGY PREDICTED BY IDOCK:   -0.81 KCAL/MOL
REMARK 927      BINDING AFFINITY PREDICTED BY RF-SCORE:    0.00 PKD
ROOT
HETATM    1  C   UNL     1     -10.274   9.139  71.122  1.00  0.00    -0.384 C  
HETATM    2  C   UNL     1     -11.580   9.924  71.084  1.00  0.00    -0.468 C  
HETATM    3  C   UNL     1     -11.450  11.194  70.319  1.00  0.00    -0.329 A  
HETATM    4  C   UNL     1     -12.301  12.247  70.649  1.00  0.00    -0.286 A  
HETATM    5  C   UNL     1     -12.281  13.440  69.951  1.00  0.00    -0.337 A  
HETATM    6  F   UNL     1     -13.184  12.101  71.647  1.00  0.00    -0.485 F  
HETATM    7  C   UNL     1     -11.377  13.616  68.908  1.00  0.00    -0.290 A  
HETATM    8  C   UNL     1      -9.637   4.186  71.813  1.00  0.00    -0.156 C  
HETATM    9  C   UNL     1     -10.520  12.552  68.555  1.00  0.00    -0.231 A  
HETATM   10  H   UNL     1      -7.108   6.060  71.287  1.00  0.00     0.000 HD 
HETATM   11  O   UNL     1      -9.584  12.782  67.580  1.00  0.00    -0.184 OA 
HETATM   12  C   UNL     1     -10.567  11.322  69.239  1.00  0.00    -0.187 A  
HETATM   13  C   UNL     1     -10.081   5.508  72.396  1.00  0.00    -0.179 C  
HETATM   14  O   UNL     1      -9.170   4.973  68.726  1.00  0.00    -0.112 OA 
HETATM   15  H   UNL     1      -9.007  12.066  67.342  1.00  0.00     0.000 HD 
HETATM   16  C   UNL     1      -8.697   4.127  70.857  1.00  0.00    -0.119 C  
HETATM   17  C   UNL     1      -9.781  10.121  68.806  1.00  0.00    -0.172 C  
HETATM   18  O   UNL     1      -9.299  10.037  67.678  1.00  0.00    -0.143 OA 
HETATM   19  C   UNL     1      -9.655   8.961  69.766  1.00  0.00    -0.175 C  
HETATM   20  C   UNL     1     -10.615   7.796  71.733  1.00  0.00    -0.260 C  
HETATM   21  H   UNL     1     -11.306   3.254  72.511  1.00  0.00     0.000 HD 
HETATM   22  C   UNL     1      -8.962   7.841  69.451  1.00  0.00    -0.142 C  
HETATM   23  C   UNL     1      -8.698   6.686  70.440  1.00  0.00    -0.151 C  
HETATM   24  C   UNL     1      -9.438   6.816  71.800  1.00  0.00    -0.150 C  
HETATM   25  O   UNL     1      -8.265   7.725  68.252  1.00  0.00    -0.122 OA 
HETATM   26  H   UNL     1      -7.778   6.939  68.031  1.00  0.00     0.000 HD 
HETATM   27  C   UNL     1      -8.864   5.250  69.884  1.00  0.00    -0.112 C  
HETATM   28  O   UNL     1      -7.270   6.772  70.679  1.00  0.00    -0.067 OA 
HETATM   29  O   UNL     1     -10.641   3.212  71.834  1.00  0.00     0.141 OA 
ENDROOT
BRANCH   7  30
HETATM   30  N   UNL     1     -11.337  14.813  68.166  1.00  0.00    -0.293 N  
HETATM   31  O   UNL     1      -9.750  16.056  69.338  1.00  0.00    -0.247 OA 
HETATM   32  C   UNL     1     -10.627  15.961  68.482  1.00  0.00    -0.263 C  
HETATM   33  H   UNL     1     -11.887  14.837  67.308  1.00  0.00     0.000 HD 
BRANCH  32  34
HETATM   34  C   UNL     1     -10.986  17.159  67.604  1.00  0.00    -0.148 C  
BRANCH  34  35
HETATM   35  N   UNL     1      -9.946  18.209  67.658  1.00  0.00    -0.322 NA 
HETATM   36  C   UNL     1      -9.239  18.358  66.376  1.00  0.00    -0.273 C  
HETATM   37  C   UNL     1      -8.574  19.709  66.547  1.00  0.00    -0.387 C  
HETATM   38  C   UNL     1     -10.551  19.522  67.926  1.00  0.00    -0.377 C  
HETATM   39  C   UNL     1      -9.638  20.538  67.247  1.00  0.00    -0.580 C  
ENDBRANCH  34  35
ENDBRANCH  32  34
ENDBRANCH   7  30
BRANCH  16  40
HETATM   40  C   UNL     1      -7.384   3.744  71.461  1.00  0.00    -0.040 C  
HETATM   41  N   UNL     1      -6.333   3.577  70.616  1.00  0.00    -0.026 N  
HETATM   42  H2  UNL     1      -6.436   3.708  69.610  1.00  0.00     0.000 HD 
HETATM   43  H1  UNL     1      -5.438   3.316  71.029  1.00  0.00     0.000 HD 
HETATM   44  O   UNL     1      -7.223   3.521  72.656  1.00  0.00    -0.046 OA 
ENDBRANCH  16  40
BRANCH  13  45
HETATM   45  N   UNL     1     -10.066   5.624  73.874  1.00  0.00    -0.203 NA 
HETATM   46  C   UNL     1     -10.500   4.402  74.546  1.00  0.00    -0.249 C  
HETATM   47  C   UNL     1      -8.791   6.073  74.437  1.00  0.00    -0.127 C  
ENDBRANCH  13  45
TORSDOF 5
ENDMDL
MODEL       16
REMARK 921   NORMALIZED FREE ENERGY PREDICTED BY IDOCK:   -7.41 KCAL/MOL
REMARK 922        TOTAL FREE ENERGY PREDICTED BY IDOCK:   -9.48 KCAL/MOL
REMARK 923 INTER-LIGAND FREE ENERGY PREDICTED BY IDOCK:   -8.67 KCAL/MOL
REMARK 924 INTRA-LIGAND FREE ENERGY PREDICTED BY IDOCK:   -0.81 KCAL/MOL
REMARK 927      BINDING AFFINITY PREDICTED BY RF-SCORE:    0.00 PKD
ROOT
HETATM    1  C   UNL     1      -9.905   8.229  66.465  1.00  0.00    -0.323 C  
HETATM    2  C   UNL     1      -9.419   9.323  65.523  1.00  0.00    -0.309 C  
HETATM    3  C   UNL     1      -9.797  10.682  65.998  1.00  0.00    -0.280 A  
HETATM    4  C   UNL     1      -9.948  11.690  65.048  1.00  0.00    -0.259 A  
HETATM    5  C   UNL     1     -10.243  12.990  65.411  1.00  0.00    -0.301 A  
HETATM    6  F   UNL     1      -9.776  11.410  63.748  1.00  0.00    -0.237 F  
HETATM    7  C   UNL     1     -10.422  13.309  66.754  1.00  0.00    -0.270 A  
HETATM    8  C   UNL     1      -8.049   3.579  67.059  1.00  0.00    -0.087 C  
HETATM    9  C   UNL     1     -10.258  12.301  67.727  1.00  0.00    -0.202 A  
HETATM   10  H   UNL     1     -10.496   4.560  68.858  1.00  0.00     0.000 HD 
HETATM   11  O   UNL     1     -10.521  12.624  69.033  1.00  0.00    -0.416 OA 
HETATM   12  C   UNL     1      -9.916  10.984  67.361  1.00  0.00    -0.209 A  
HETATM   13  C   UNL     1      -8.746   4.567  66.153  1.00  0.00    -0.114 C  
HETATM   14  O   UNL     1      -7.221   5.460  69.539  1.00  0.00    -0.061 OA 
HETATM   15  H   UNL     1     -10.410  11.945  69.688  1.00  0.00     0.000 HD 
HETATM   16  C   UNL     1      -8.170   3.652  68.394  1.00  0.00    -0.087 C  
HETATM   17  C   UNL     1      -9.590   9.920  68.366  1.00  0.00    -0.148 C  
HETATM   18  O   UNL     1      -9.301  10.196  69.528  1.00  0.00    -0.210 OA 
HETATM   19  C   UNL     1      -9.544   8.484  67.900  1.00  0.00    -0.177 C  
HETATM   20  C   UNL     1      -9.268   6.946  65.974  1.00  0.00    -0.062 C  
HETATM   21  H   UNL     1      -6.774   3.031  65.571  1.00  0.00     0.000 HD 
HETATM   22  C   UNL     1      -9.258   7.465  68.745  1.00  0.00    -0.144 C  
HETATM   23  C   UNL     1      -9.322   5.974  68.348  1.00  0.00    -0.119 C  
HETATM   24  C   UNL     1      -9.578   5.717  66.837  1.00  0.00    -0.153 C  
HETATM   25  O   UNL     1      -9.061   7.676  70.106  1.00  0.00    -0.150 OA 
HETATM   26  H   UNL     1      -8.860   6.961  70.699  1.00  0.00     0.000 HD 
HETATM   27  C   UNL     1      -8.163   5.077  68.847  1.00  0.00    -0.084 C  
HETATM   28  O   UNL     1     -10.457   5.478  69.102  1.00  0.00    -0.238 OA 
HETATM   29  O   UNL     1      -6.859   3.082  66.515  1.00  0.00    -0.050 OA 
ENDROOT
BRANCH   7  30
HETATM   30  N   UNL     1     -10.712  14.626  67.163  1.00  0.00    -0.287 N  
HETATM   31  O   UNL     1      -8.604  15.622  67.124  1.00  0.00    -0.181 OA 
HETATM   32  C   UNL     1      -9.797  15.636  67.418  1.00  0.00    -0.225 C  
HETATM   33  H   UNL     1     -11.697  14.860  67.285  1.00  0.00     0.000 HD 
BRANCH  32  34
HETATM   34  C   UNL     1     -10.418  16.868  68.075  1.00  0.00    -0.347 C  
BRANCH  34  35
HETATM   35  N   UNL     1      -9.804  18.119  67.583  1.00  0.00    -0.301 NA 
HETATM   36  C   UNL     1     -10.391  18.563  66.308  1.00  0.00    -0.427 C  
HETATM   37  C   UNL     1      -9.932  20.006  66.245  1.00  0.00    -0.597 C  
HETATM   38  C   UNL     1     -10.045  19.220  68.528  1.00  0.00    -0.430 C  
HETATM   39  C   UNL     1     -10.083  20.486  67.679  1.00  0.00    -0.412 C  
ENDBRANCH  34  35
ENDBRANCH  32  34
ENDBRANCH   7  30
BRANCH  16  40
HETATM   40  C   UNL     1      -9.162   2.638  68.867  1.00  0.00    -0.160 C  
HETATM   41  N   UNL     1      -9.524   2.683  70.176  1.00  0.00    -0.124 N  
HETATM   42  H2  UNL     1      -9.134   3.379  70.810  1.00  0.00     0.000 HD 
HETATM   43  H1  UNL     1     -10.201   1.991  70.498  1.00  0.00     0.000 HD 
HETATM   44  O   UNL     1      -9.617   1.747  68.158  1.00  0.00    -0.193 OA 
ENDBRANCH  16  40
BRANCH  13  45
HETATM   45  N   UNL     1      -9.567   4.002  65.056  1.00  0.00    -0.169 NA 
HETATM   46  C   UNL     1     -10.983   4.343  65.170  1.00  0.00     0.018 C  
HETATM   47  C   UNL     1      -9.088   4.321  63.708  1.00  0.00    -0.142 C  
ENDBRANCH  13  45
TORSDOF 5
ENDMDL
MODEL       17
REMARK 921   NORMALIZED FREE ENERGY PREDICTED BY IDOCK:   -7.36 KCAL/MOL
REMARK 922        TOTAL FREE ENERGY PREDICTED BY IDOCK:   -9.41 KCAL/MOL
REMARK 923 INTER-LIGAND FREE ENERGY PREDICTED BY IDOCK:   -9.87 KCAL/MOL
REMARK 924 INTRA-LIGAND FREE ENERGY PREDICTED BY IDOCK:    0.46 KCAL/MOL
REMARK 927      BINDING AFFINITY PREDICTED BY RF-SCORE:    0.00 PKD
ROOT
HETATM    1  C   UNL     1     -11.096  10.955  68.516  1.00  0.00    -0.311 C  
HETATM    2  C   UNL     1     -10.306  10.459  69.722  1.00  0.00    -0.252 C  
HETATM    3  C   UNL     1     -10.363   8.978  69.860  1.00  0.00    -0.219 A  
HETATM    4  C   UNL     1     -10.210   8.433  71.133  1.00  0.00    -0.202 A  
HETATM    5  C   UNL     1     -10.196   7.067  71.338  1.00  0.00    -0.208 A  
HETATM    6  F   UNL     1     -10.044   9.243  72.188  1.00  0.00    -0.358 F  
HETATM    7  C   UNL     1     -10.361   6.203  70.260  1.00  0.00    -0.214 A  
HETATM    8  C   UNL     1     -10.474  15.240  65.933  1.00  0.00    -0.331 C  
HETATM    9  C   UNL     1     -10.502   6.742  68.963  1.00  0.00    -0.206 A  
HETATM   10  H   UNL     1     -12.696  13.138  65.023  1.00  0.00     0.000 HD 
HETATM   11  O   UNL     1     -10.747   5.873  67.932  1.00  0.00    -0.251 OA 
HETATM   12  C   UNL     1     -10.476   8.134  68.748  1.00  0.00    -0.198 A  
HETATM   13  C   UNL     1     -10.858  14.583  67.239  1.00  0.00    -0.297 C  
HETATM   14  O   UNL     1      -9.342  12.730  64.263  1.00  0.00     0.368 OA 
HETATM   15  H   UNL     1     -10.841   6.236  67.060  1.00  0.00     0.000 HD 
HETATM   16  C   UNL     1     -10.644  14.611  64.760  1.00  0.00    -0.379 C  
HETATM   17  C   UNL     1     -10.476   8.744  67.377  1.00  0.00    -0.279 C  
HETATM   18  O   UNL     1     -10.189   8.087  66.379  1.00  0.00    -0.220 OA 
HETATM   19  C   UNL     1     -10.759  10.222  67.250  1.00  0.00    -0.323 C  
HETATM   20  C   UNL     1     -10.769  12.427  68.383  1.00  0.00    -0.254 C  
HETATM   21  H   UNL     1      -9.296  16.591  66.897  1.00  0.00     0.000 HD 
HETATM   22  C   UNL     1     -10.778  10.848  66.049  1.00  0.00    -0.140 C  
HETATM   23  C   UNL     1     -11.185  12.324  65.854  1.00  0.00    -0.340 C  
HETATM   24  C   UNL     1     -11.416  13.111  67.174  1.00  0.00    -0.378 C  
HETATM   25  O   UNL     1     -10.608  10.149  64.857  1.00  0.00    -0.065 OA 
HETATM   26  H   UNL     1     -10.621  10.588  64.014  1.00  0.00     0.000 HD 
HETATM   27  C   UNL     1     -10.311  13.159  64.887  1.00  0.00    -0.334 C  
HETATM   28  O   UNL     1     -12.446  12.230  65.144  1.00  0.00    -0.563 OA 
HETATM   29  O   UNL     1      -9.416  16.147  66.067  1.00  0.00    -0.304 OA 
ENDROOT
BRANCH   7  30
HETATM   30  N   UNL     1     -10.340   4.804  70.429  1.00  0.00    -0.185 N  
HETATM   31  O   UNL     1      -8.078   4.398  70.824  1.00  0.00    -0.068 OA 
HETATM   32  C   UNL     1      -9.219   4.005  70.588  1.00  0.00    -0.126 C  
HETATM   33  H   UNL     1     -11.243   4.331  70.435  1.00  0.00     0.000 HD 
BRANCH  32  34
HETATM   34  C   UNL     1      -9.520   2.510  70.504  1.00  0.00    -0.119 C  
BRANCH  34  35
HETATM   35  N   UNL     1      -9.063   1.929  69.224  1.00  0.00    -0.095 NA 
HETATM   36  C   UNL     1      -9.328   2.821  68.083  1.00  0.00    -0.203 C  
HETATM   37  C   UNL     1      -8.424   2.233  67.018  1.00  0.00    -0.102 C  
HETATM   38  C   UNL     1      -7.606   1.733  69.236  1.00  0.00    -0.042 C  
HETATM   39  C   UNL     1      -7.162   1.878  67.784  1.00  0.00    -0.047 C  
ENDBRANCH  34  35
ENDBRANCH  32  34
ENDBRANCH   7  30
BRANCH  16  40
HETATM   40  C   UNL     1     -11.879  15.121  64.089  1.00  0.00    -0.148 C  
HETATM   41  N   UNL     1     -12.617  14.228  63.378  1.00  0.00    -1.004 N  
HETATM   42  H2  UNL     1     -12.339  13.250  63.306  1.00  0.00     0.000 HD 
HETATM   43  H1  UNL     1     -13.459  14.576  62.920  1.00  0.00     0.000 HD 
HETATM   44  O   UNL     1     -12.225  16.298  64.099  1.00  0.00    -0.722 OA 
ENDBRANCH  16  40
BRANCH  13  45
HETATM   45  N   UNL     1     -11.733  15.362  68.147  1.00  0.00    -0.324 NA 
HETATM   46  C   UNL     1     -12.352  14.542  69.185  1.00  0.00    -0.117 C  
HETATM   47  C   UNL     1     -11.094  16.532  68.755  1.00  0.00    -0.309 C  
ENDBRANCH  13  45
TORSDOF 5
ENDMDL
MODEL       18
REMARK 921   NORMALIZED FREE ENERGY PREDICTED BY IDOCK:   -7.33 KCAL/MOL
REMARK 922        TOTAL FREE ENERGY PREDICTED BY IDOCK:   -9.38 KCAL/MOL
REMARK 923 INTER-LIGAND FREE ENERGY PREDICTED BY IDOCK:   -9.37 KCAL/MOL
REMARK 924 INTRA-LIGAND FREE ENERGY PREDICTED BY IDOCK:   -0.01 KCAL/MOL
REMARK 927      BINDING AFFINITY PREDICTED BY RF-SCORE:    0.00 PKD
ROOT
HETATM    1  C   UNL     1     -10.856  11.051  68.486  1.00  0.00    -0.254 C  
HETATM    2  C   UNL     1      -9.982  10.536  69.623  1.00  0.00    -0.149 C  
HETATM    3  C   UNL     1     -10.113   9.065  69.809  1.00  0.00    -0.209 A  
HETATM    4  C   UNL     1      -9.867   8.542  71.077  1.00  0.00    -0.195 A  
HETATM    5  C   UNL     1      -9.914   7.183  71.321  1.00  0.00    -0.192 A  
HETATM    6  F   UNL     1      -9.550   9.366  72.087  1.00  0.00    -0.179 F  
HETATM    7  C   UNL     1     -10.236   6.306  70.290  1.00  0.00    -0.196 A  
HETATM    8  C   UNL     1     -10.240  15.227  65.728  1.00  0.00    -0.349 C  
HETATM    9  C   UNL     1     -10.472   6.822  68.998  1.00  0.00    -0.206 A  
HETATM   10  H   UNL     1     -12.662  13.246  65.101  1.00  0.00     0.000 HD 
HETATM   11  O   UNL     1     -10.868   5.945  68.022  1.00  0.00    -0.269 OA 
HETATM   12  C   UNL     1     -10.385   8.204  68.739  1.00  0.00    -0.220 A  
HETATM   13  C   UNL     1     -10.532  14.626  67.084  1.00  0.00    -0.268 C  
HETATM   14  O   UNL     1      -9.430  12.613  64.031  1.00  0.00     0.091 OA 
HETATM   15  H   UNL     1     -11.027   6.292  67.152  1.00  0.00     0.000 HD 
HETATM   16  C   UNL     1     -10.563  14.582  64.596  1.00  0.00    -0.298 C  
HETATM   17  C   UNL     1     -10.484   8.779  67.358  1.00  0.00    -0.279 C  
HETATM   18  O   UNL     1     -10.337   8.083  66.356  1.00  0.00    -0.191 OA 
HETATM   19  C   UNL     1     -10.691  10.269  67.215  1.00  0.00    -0.323 C  
HETATM   20  C   UNL     1     -10.458  12.497  68.277  1.00  0.00    -0.243 C  
HETATM   21  H   UNL     1      -8.895  16.525  66.532  1.00  0.00     0.000 HD 
HETATM   22  C   UNL     1     -10.791  10.866  66.003  1.00  0.00    -0.085 C  
HETATM   23  C   UNL     1     -11.128  12.360  65.805  1.00  0.00    -0.315 C  
HETATM   24  C   UNL     1     -11.180  13.191  67.117  1.00  0.00    -0.326 C  
HETATM   25  O   UNL     1     -10.782  10.130  64.822  1.00  0.00    -0.016 OA 
HETATM   26  H   UNL     1     -10.852  10.549  63.971  1.00  0.00     0.000 HD 
HETATM   27  C   UNL     1     -10.305  13.116  64.733  1.00  0.00    -0.350 C  
HETATM   28  O   UNL     1     -12.456  12.326  65.224  1.00  0.00    -0.585 OA 
HETATM   29  O   UNL     1      -9.123  16.069  65.731  1.00  0.00    -0.349 OA 
ENDROOT
BRANCH   7  30
HETATM   30  N   UNL     1     -10.281   4.913  70.498  1.00  0.00    -0.241 N  
HETATM   31  O   UNL     1      -8.091   4.449  71.151  1.00  0.00    -0.078 OA 
HETATM   32  C   UNL     1      -9.212   4.085  70.801  1.00  0.00    -0.127 C  
HETATM   33  H   UNL     1     -11.195   4.468  70.416  1.00  0.00     0.000 HD 
BRANCH  32  34
HETATM   34  C   UNL     1      -9.553   2.597  70.724  1.00  0.00    -0.111 C  
BRANCH  34  35
HETATM   35  N   UNL     1      -9.856   2.035  72.057  1.00  0.00    -0.136 NA 
HETATM   36  C   UNL     1      -8.639   1.802  72.853  1.00  0.00    -0.062 C  
HETATM   37  C   UNL     1      -9.210   1.652  74.249  1.00  0.00    -0.072 C  
HETATM   38  C   UNL     1     -10.663   2.979  72.845  1.00  0.00    -0.078 C  
HETATM   39  C   UNL     1     -10.295   2.714  74.302  1.00  0.00    -0.202 C  
ENDBRANCH  34  35
ENDBRANCH  32  34
ENDBRANCH   7  30
BRANCH  16  40
HETATM   40  C   UNL     1     -11.825  15.151  64.033  1.00  0.00     0.007 C  
HETATM   41  N   UNL     1     -12.607  14.323  63.292  1.00  0.00    -0.945 N  
HETATM   42  H2  UNL     1     -12.343  13.352  63.127  1.00  0.00     0.000 HD 
HETATM   43  H1  UNL     1     -13.469  14.712  62.908  1.00  0.00     0.000 HD 
HETATM   44  O   UNL     1     -12.159  16.325  64.156  1.00  0.00    -0.796 OA 
ENDBRANCH  16  40
BRANCH  13  45
HETATM   45  N   UNL     1     -11.265  15.480  68.049  1.00  0.00    -0.325 NA 
HETATM   46  C   UNL     1     -12.334  14.766  68.743  1.00  0.00     0.016 C  
HETATM   47  C   UNL     1     -10.415  16.168  69.023  1.00  0.00    -0.261 C  
ENDBRANCH  13  45
TORSDOF 5
ENDMDL
MODEL       19
REMARK 921   NORMALIZED FREE ENERGY PREDICTED BY IDOCK:   -7.33 KCAL/MOL
REMARK 922        TOTAL FREE ENERGY PREDICTED BY IDOCK:   -9.38 KCAL/MOL
REMARK 923 INTER-LIGAND FREE ENERGY PREDICTED BY IDOCK:   -8.85 KCAL/MOL
REMARK 924 INTRA-LIGAND FREE ENERGY PREDICTED BY IDOCK:   -0.52 KCAL/MOL
REMARK 927      BINDING AFFINITY PREDICTED BY RF-SCORE:    0.00 PKD
ROOT
HETATM    1  C   UNL     1      -9.757  10.307  69.459  1.00  0.00    -0.235 C  
HETATM    2  C   UNL     1     -10.662  10.984  68.437  1.00  0.00    -0.240 C  
HETATM    3  C   UNL     1     -10.051  12.221  67.878  1.00  0.00    -0.200 A  
HETATM    4  C   UNL     1     -10.904  13.218  67.410  1.00  0.00    -0.267 A  
HETATM    5  C   UNL     1     -10.417  14.372  66.827  1.00  0.00    -0.273 A  
HETATM    6  F   UNL     1     -12.232  13.052  67.496  1.00  0.00    -0.378 F  
HETATM    7  C   UNL     1      -9.043  14.567  66.720  1.00  0.00    -0.261 A  
HETATM    8  C   UNL     1      -9.703   5.460  70.846  1.00  0.00    -0.180 C  
HETATM    9  C   UNL     1      -8.169  13.558  67.177  1.00  0.00    -0.112 A  
HETATM   10  H   UNL     1      -7.592   7.499  72.097  1.00  0.00     0.000 HD 
HETATM   11  O   UNL     1      -6.823  13.812  67.136  1.00  0.00    -0.419 OA 
HETATM   12  C   UNL     1      -8.665  12.363  67.735  1.00  0.00    -0.176 A  
HETATM   13  C   UNL     1     -10.457   6.770  70.819  1.00  0.00    -0.214 C  
HETATM   14  O   UNL     1      -7.192   6.127  68.943  1.00  0.00    -0.079 OA 
HETATM   15  H   UNL     1      -6.234  13.133  67.443  1.00  0.00     0.000 HD 
HETATM   16  C   UNL     1      -8.362   5.428  70.847  1.00  0.00    -0.118 C  
HETATM   17  C   UNL     1      -7.781  11.208  68.098  1.00  0.00    -0.107 C  
HETATM   18  O   UNL     1      -6.638  11.106  67.656  1.00  0.00    -0.065 OA 
HETATM   19  C   UNL     1      -8.353  10.111  68.964  1.00  0.00    -0.138 C  
HETATM   20  C   UNL     1     -10.404   8.973  69.768  1.00  0.00    -0.219 C  
HETATM   21  H   UNL     1     -11.353   4.435  70.237  1.00  0.00     0.000 HD 
HETATM   22  C   UNL     1      -7.620   9.035  69.337  1.00  0.00    -0.078 C  
HETATM   23  C   UNL     1      -8.116   7.954  70.321  1.00  0.00    -0.115 C  
HETATM   24  C   UNL     1      -9.607   8.094  70.737  1.00  0.00    -0.185 C  
HETATM   25  O   UNL     1      -6.274   8.915  69.001  1.00  0.00    -0.043 OA 
HETATM   26  H   UNL     1      -5.760   8.159  69.263  1.00  0.00     0.000 HD 
HETATM   27  C   UNL     1      -7.808   6.485  69.945  1.00  0.00    -0.115 C  
HETATM   28  O   UNL     1      -7.286   8.165  71.492  1.00  0.00    -0.067 OA 
HETATM   29  O   UNL     1     -10.404   4.412  70.238  1.00  0.00    -0.094 OA 
ENDROOT
BRANCH   7  30
HETATM   30  N   UNL     1      -8.510  15.725  66.121  1.00  0.00    -0.355 N  
HETATM   31  O   UNL     1      -7.519  16.800  67.936  1.00  0.00    -0.154 OA 
HETATM   32  C   UNL     1      -7.896  16.786  66.767  1.00  0.00    -0.246 C  
HETATM   33  H   UNL     1      -8.585  15.790  65.106  1.00  0.00     0.000 HD 
BRANCH  32  34
HETATM   34  C   UNL     1      -7.648  17.990  65.860  1.00  0.00    -0.136 C  
BRANCH  34  35
HETATM   35  N   UNL     1      -8.724  18.997  65.979  1.00  0.00    -0.462 NA 
HETATM   36  C   UNL     1      -9.998  18.400  66.412  1.00  0.00    -0.386 C  
HETATM   37  C   UNL     1     -10.773  19.623  66.859  1.00  0.00    -0.570 C  
HETATM   38  C   UNL     1      -8.389  19.992  67.009  1.00  0.00    -0.323 C  
HETATM   39  C   UNL     1      -9.726  20.462  67.573  1.00  0.00    -0.571 C  
ENDBRANCH  34  35
ENDBRANCH  32  34
ENDBRANCH   7  30
BRANCH  16  40
HETATM   40  C   UNL     1      -7.863   5.180  72.234  1.00  0.00    -0.101 C  
HETATM   41  N   UNL     1      -6.553   5.440  72.483  1.00  0.00    -0.062 N  
HETATM   42  H2  UNL     1      -5.934   5.790  71.752  1.00  0.00     0.000 HD 
HETATM   43  H1  UNL     1      -6.213   5.271  73.430  1.00  0.00     0.000 HD 
HETATM   44  O   UNL     1      -8.552   4.708  73.133  1.00  0.00    -0.102 OA 
ENDBRANCH  16  40
BRANCH  13  45
HETATM   45  N   UNL     1     -11.501   6.961  71.853  1.00  0.00    -0.261 NA 
HETATM   46  C   UNL     1     -11.013   7.678  73.029  1.00  0.00    -0.400 C  
HETATM   47  C   UNL     1     -12.734   7.586  71.367  1.00  0.00    -0.348 C  
ENDBRANCH  13  45
TORSDOF 5
ENDMDL
MODEL       20
REMARK 921   NORMALIZED FREE ENERGY PREDICTED BY IDOCK:   -7.30 KCAL/MOL
REMARK 922        TOTAL FREE ENERGY PREDICTED BY IDOCK:   -9.33 KCAL/MOL
REMARK 923 INTER-LIGAND FREE ENERGY PREDICTED BY IDOCK:   -8.98 KCAL/MOL
REMARK 924 INTRA-LIGAND FREE ENERGY PREDICTED BY IDOCK:   -0.36 KCAL/MOL
REMARK 927      BINDING AFFINITY PREDICTED BY RF-SCORE:    0.00 PKD
ROOT
HETATM    1  C   UNL     1      -8.686  14.590  66.718  1.00  0.00    -0.214 C  
HETATM    2  C   UNL     1      -9.481  13.768  65.711  1.00  0.00    -0.000 C  
HETATM    3  C   UNL     1      -9.845  12.427  66.243  1.00  0.00    -0.257 A  
HETATM    4  C   UNL     1     -10.041  11.392  65.331  1.00  0.00    -0.261 A  
HETATM    5  C   UNL     1     -10.434  10.132  65.739  1.00  0.00    -0.128 A  
HETATM    6  F   UNL     1      -9.875  11.620  64.020  1.00  0.00    -0.250 F  
HETATM    7  C   UNL     1     -10.619   9.869  67.093  1.00  0.00    -0.228 A  
HETATM    8  C   UNL     1      -8.253  19.605  66.997  1.00  0.00    -0.288 C  
HETATM    9  C   UNL     1     -10.437  10.913  68.026  1.00  0.00    -0.191 A  
HETATM   10  H   UNL     1      -6.822  17.759  69.171  1.00  0.00     0.000 HD 
HETATM   11  O   UNL     1     -10.544  10.606  69.357  1.00  0.00    -0.219 OA 
HETATM   12  C   UNL     1     -10.076  12.208  67.607  1.00  0.00    -0.205 A  
HETATM   13  C   UNL     1      -7.967  18.343  66.218  1.00  0.00    -0.235 C  
HETATM   14  O   UNL     1     -10.202  18.502  69.311  1.00  0.00    -0.248 OA 
HETATM   15  H   UNL     1     -10.422  11.308  69.985  1.00  0.00     0.000 HD 
HETATM   16  C   UNL     1      -8.372  19.587  68.334  1.00  0.00    -0.384 C  
HETATM   17  C   UNL     1     -10.015  13.377  68.544  1.00  0.00    -0.193 C  
HETATM   18  O   UNL     1     -10.563  13.352  69.644  1.00  0.00     0.202 OA 
HETATM   19  C   UNL     1      -9.327  14.637  68.075  1.00  0.00    -0.198 C  
HETATM   20  C   UNL     1      -8.581  15.981  66.129  1.00  0.00    -0.315 C  
HETATM   21  H   UNL     1      -8.902  20.559  65.320  1.00  0.00     0.000 HD 
HETATM   22  C   UNL     1      -9.229  15.736  68.861  1.00  0.00    -0.227 C  
HETATM   23  C   UNL     1      -8.428  16.999  68.478  1.00  0.00    -0.257 C  
HETATM   24  C   UNL     1      -7.868  16.996  67.029  1.00  0.00    -0.223 C  
HETATM   25  O   UNL     1      -9.694  15.741  70.173  1.00  0.00    -0.106 OA 
HETATM   26  H   UNL     1      -9.625  16.512  70.725  1.00  0.00     0.000 HD 
HETATM   27  C   UNL     1      -9.101  18.360  68.781  1.00  0.00    -0.245 C  
HETATM   28  O   UNL     1      -7.314  16.981  69.406  1.00  0.00    -0.184 OA 
HETATM   29  O   UNL     1      -8.987  20.547  66.266  1.00  0.00    -0.099 OA 
ENDROOT
BRANCH   7  30
HETATM   30  N   UNL     1     -11.031   8.600  67.546  1.00  0.00    -0.459 N  
HETATM   31  O   UNL     1      -9.046   7.718  68.393  1.00  0.00    -0.133 OA 
HETATM   32  C   UNL     1     -10.221   7.596  68.052  1.00  0.00    -0.202 C  
HETATM   33  H   UNL     1     -12.029   8.400  67.495  1.00  0.00     0.000 HD 
BRANCH  32  34
HETATM   34  C   UNL     1     -10.942   6.261  68.226  1.00  0.00    -0.321 C  
BRANCH  34  35
HETATM   35  N   UNL     1     -11.275   5.998  69.642  1.00  0.00    -0.408 NA 
HETATM   36  C   UNL     1     -10.180   5.317  70.353  1.00  0.00    -0.268 C  
HETATM   37  C   UNL     1     -10.566   5.545  71.801  1.00  0.00    -0.296 C  
HETATM   38  C   UNL     1     -11.486   7.259  70.367  1.00  0.00    -0.248 C  
HETATM   39  C   UNL     1     -11.075   6.977  71.808  1.00  0.00    -0.270 C  
ENDBRANCH  34  35
ENDBRANCH  32  34
ENDBRANCH   7  30
BRANCH  16  40
HETATM   40  C   UNL     1      -7.104  20.071  68.961  1.00  0.00    -0.211 C  
HETATM   41  N   UNL     1      -6.850  19.680  70.237  1.00  0.00    -0.033 N  
HETATM   42  H2  UNL     1      -7.498  19.080  70.746  1.00  0.00     0.000 HD 
HETATM   43  H1  UNL     1      -5.985  20.010  70.665  1.00  0.00     0.000 HD 
HETATM   44  O   UNL     1      -6.320  20.838  68.411  1.00  0.00    -0.316 OA 
ENDBRANCH  16  40
BRANCH  13  45
HETATM   45  N   UNL     1      -6.830  18.387  65.268  1.00  0.00    -0.512 NA 
HETATM   46  C   UNL     1      -6.510  19.743  64.826  1.00  0.00    -0.202 C  
HETATM   47  C   UNL     1      -5.614  17.720  65.740  1.00  0.00    -0.145 C  
ENDBRANCH  13  45
TORSDOF 5
ENDMDL
MODEL       21
REMARK 921   NORMALIZED FREE ENERGY PREDICTED BY IDOCK:   -7.26 KCAL/MOL
REMARK 922        TOTAL FREE ENERGY PREDICTED BY IDOCK:   -9.28 KCAL/MOL
REMARK 923 INTER-LIGAND FREE ENERGY PREDICTED BY IDOCK:   -8.42 KCAL/MOL
REMARK 924 INTRA-LIGAND FREE ENERGY PREDICTED BY IDOCK:   -0.86 KCAL/MOL
REMARK 927      BINDING AFFINITY PREDICTED BY RF-SCORE:    0.00 PKD
ROOT
HETATM    1  C   UNL     1      -9.565   8.232  68.722  1.00  0.00    -0.150 C  
HETATM    2  C   UNL     1     -10.756   8.895  69.403  1.00  0.00    -0.192 C  
HETATM    3  C   UNL     1     -10.912  10.320  68.999  1.00  0.00    -0.274 A  
HETATM    4  C   UNL     1     -11.532  11.189  69.894  1.00  0.00    -0.306 A  
HETATM    5  C   UNL     1     -11.764  12.513  69.574  1.00  0.00    -0.375 A  
HETATM    6  F   UNL     1     -11.944  10.735  71.086  1.00  0.00    -0.405 F  
HETATM    7  C   UNL     1     -11.352  13.009  68.341  1.00  0.00    -0.291 A  
HETATM    8  C   UNL     1      -8.828   3.326  67.820  1.00  0.00    -0.131 C  
HETATM    9  C   UNL     1     -10.735  12.135  67.420  1.00  0.00    -0.234 A  
HETATM   10  H   UNL     1      -6.677   5.469  66.835  1.00  0.00     0.000 HD 
HETATM   11  O   UNL     1     -10.265  12.669  66.249  1.00  0.00    -0.242 OA 
HETATM   12  C   UNL     1     -10.535  10.776  67.730  1.00  0.00    -0.243 A  
HETATM   13  C   UNL     1      -8.968   4.427  68.846  1.00  0.00    -0.109 C  
HETATM   14  O   UNL     1      -9.621   4.874  65.110  1.00  0.00    -0.128 OA 
HETATM   15  H   UNL     1      -9.850  12.080  65.629  1.00  0.00     0.000 HD 
HETATM   16  C   UNL     1      -8.354   3.577  66.590  1.00  0.00    -0.101 C  
HETATM   17  C   UNL     1     -10.019   9.783  66.731  1.00  0.00    -0.218 C  
HETATM   18  O   UNL     1     -10.034  10.014  65.524  1.00  0.00    -0.289 OA 
HETATM   19  C   UNL     1      -9.548   8.439  67.235  1.00  0.00    -0.215 C  
HETATM   20  C   UNL     1      -9.665   6.758  69.054  1.00  0.00    -0.145 C  
HETATM   21  H   UNL     1     -10.099   2.122  68.858  1.00  0.00     0.000 HD 
HETATM   22  C   UNL     1      -9.067   7.488  66.398  1.00  0.00    -0.173 C  
HETATM   23  C   UNL     1      -8.457   6.152  66.873  1.00  0.00    -0.105 C  
HETATM   24  C   UNL     1      -8.586   5.888  68.399  1.00  0.00    -0.113 C  
HETATM   25  O   UNL     1      -8.914   7.723  65.035  1.00  0.00    -0.373 OA 
HETATM   26  H   UNL     1      -8.577   7.055  64.447  1.00  0.00     0.000 HD 
HETATM   27  C   UNL     1      -8.869   4.886  66.083  1.00  0.00    -0.122 C  
HETATM   28  O   UNL     1      -7.053   6.291  66.543  1.00  0.00    -0.065 OA 
HETATM   29  O   UNL     1      -9.764   2.299  67.987  1.00  0.00    -0.129 OA 
ENDROOT
BRANCH   7  30
HETATM   30  N   UNL     1     -11.583  14.350  67.974  1.00  0.00    -0.310 N  
HETATM   31  O   UNL     1      -9.421  15.222  67.939  1.00  0.00    -0.196 OA 
HETATM   32  C   UNL     1     -10.641  15.365  67.905  1.00  0.00    -0.267 C  
HETATM   33  H   UNL     1     -12.542  14.599  67.736  1.00  0.00     0.000 HD 
BRANCH  32  34
HETATM   34  C   UNL     1     -11.254  16.751  67.712  1.00  0.00    -0.026 C  
BRANCH  34  35
HETATM   35  N   UNL     1     -10.223  17.769  67.417  1.00  0.00    -0.339 NA 
HETATM   36  C   UNL     1     -10.428  18.403  66.104  1.00  0.00    -0.395 C  
HETATM   37  C   UNL     1      -9.560  19.640  66.223  1.00  0.00    -0.488 C  
HETATM   38  C   UNL     1     -10.285  18.866  68.394  1.00  0.00    -0.373 C  
HETATM   39  C   UNL     1      -9.804  20.106  67.648  1.00  0.00    -0.567 C  
ENDBRANCH  34  35
ENDBRANCH  32  34
ENDBRANCH   7  30
BRANCH  16  40
HETATM   40  C   UNL     1      -6.919   3.165  66.508  1.00  0.00    -0.054 C  
HETATM   41  N   UNL     1      -6.216   3.564  65.416  1.00  0.00    -0.027 N  
HETATM   42  H2  UNL     1      -6.650   4.122  64.681  1.00  0.00     0.000 HD 
HETATM   43  H1  UNL     1      -5.237   3.282  65.360  1.00  0.00     0.000 HD 
HETATM   44  O   UNL     1      -6.366   2.449  67.337  1.00  0.00    -0.030 OA 
ENDBRANCH  16  40
BRANCH  13  45
HETATM   45  N   UNL     1      -8.357   4.182  70.175  1.00  0.00    -0.064 NA 
HETATM   46  C   UNL     1      -9.260   3.500  71.099  1.00  0.00    -0.121 C  
HETATM   47  C   UNL     1      -7.069   3.486  70.135  1.00  0.00    -0.041 C  
ENDBRANCH  13  45
TORSDOF 5
ENDMDL
MODEL       22
REMARK 921   NORMALIZED FREE ENERGY PREDICTED BY IDOCK:   -7.23 KCAL/MOL
REMARK 922        TOTAL FREE ENERGY PREDICTED BY IDOCK:   -9.25 KCAL/MOL
REMARK 923 INTER-LIGAND FREE ENERGY PREDICTED BY IDOCK:   -8.89 KCAL/MOL
REMARK 924 INTRA-LIGAND FREE ENERGY PREDICTED BY IDOCK:   -0.36 KCAL/MOL
REMARK 927      BINDING AFFINITY PREDICTED BY RF-SCORE:    0.00 PKD
ROOT
HETATM    1  C   UNL     1     -10.402  14.691  68.626  1.00  0.00    -0.246 C  
HETATM    2  C   UNL     1     -10.989  14.052  69.879  1.00  0.00     0.055 C  
HETATM    3  C   UNL     1     -11.141  12.578  69.740  1.00  0.00     0.110 A  
HETATM    4  C   UNL     1     -12.131  11.949  70.492  1.00  0.00    -0.331 A  
HETATM    5  C   UNL     1     -12.301  10.578  70.461  1.00  0.00    -0.432 A  
HETATM    6  F   UNL     1     -12.924  12.677  71.291  1.00  0.00    -0.427 F  
HETATM    7  C   UNL     1     -11.488   9.797  69.645  1.00  0.00    -0.056 A  
HETATM    8  C   UNL     1      -7.876  19.037  68.234  1.00  0.00    -0.315 C  
HETATM    9  C   UNL     1     -10.473  10.422  68.889  1.00  0.00    -0.212 A  
HETATM   10  H   UNL     1      -8.325  17.216  65.652  1.00  0.00     0.000 HD 
HETATM   11  O   UNL     1      -9.743   9.640  68.031  1.00  0.00    -0.142 OA 
HETATM   12  C   UNL     1     -10.272  11.814  68.951  1.00  0.00    -0.119 A  
HETATM   13  C   UNL     1      -9.185  18.346  68.543  1.00  0.00    -0.328 C  
HETATM   14  O   UNL     1      -5.869  16.529  67.996  1.00  0.00    -0.106 OA 
HETATM   15  H   UNL     1      -9.060  10.060  67.523  1.00  0.00     0.000 HD 
HETATM   16  C   UNL     1      -6.986  18.496  67.389  1.00  0.00    -0.208 C  
HETATM   17  C   UNL     1      -9.118  12.499  68.281  1.00  0.00    -0.183 C  
HETATM   18  O   UNL     1      -8.126  11.876  67.907  1.00  0.00    -0.130 OA 
HETATM   19  C   UNL     1      -9.158  14.002  68.142  1.00  0.00    -0.192 C  
HETATM   20  C   UNL     1     -10.106  16.130  68.992  1.00  0.00    -0.247 C  
HETATM   21  H   UNL     1      -8.042  20.210  69.889  1.00  0.00     0.000 HD 
HETATM   22  C   UNL     1      -8.157  14.695  67.549  1.00  0.00    -0.184 C  
HETATM   23  C   UNL     1      -8.208  16.213  67.270  1.00  0.00    -0.177 C  
HETATM   24  C   UNL     1      -9.439  16.941  67.877  1.00  0.00    -0.239 C  
HETATM   25  O   UNL     1      -7.066  14.053  66.969  1.00  0.00    -0.374 OA 
HETATM   26  H   UNL     1      -6.363  14.539  66.553  1.00  0.00     0.000 HD 
HETATM   27  C   UNL     1      -6.918  17.013  67.572  1.00  0.00    -0.146 C  
HETATM   28  O   UNL     1      -8.294  16.281  65.824  1.00  0.00    -0.191 OA 
HETATM   29  O   UNL     1      -7.411  19.828  69.291  1.00  0.00    -0.316 OA 
ENDROOT
BRANCH   7  30
HETATM   30  N   UNL     1     -11.625   8.396  69.597  1.00  0.00    -0.231 N  
HETATM   31  O   UNL     1     -10.315   7.719  71.402  1.00  0.00    -0.196 OA 
HETATM   32  C   UNL     1     -10.963   7.470  70.388  1.00  0.00    -0.251 C  
HETATM   33  H   UNL     1     -12.278   8.024  68.908  1.00  0.00     0.000 HD 
BRANCH  32  34
HETATM   34  C   UNL     1     -11.151   6.027  69.924  1.00  0.00    -0.399 C  
BRANCH  34  35
HETATM   35  N   UNL     1     -10.174   5.657  68.877  1.00  0.00    -0.191 NA 
HETATM   36  C   UNL     1     -10.665   5.966  67.524  1.00  0.00    -0.276 C  
HETATM   37  C   UNL     1      -9.386   5.908  66.714  1.00  0.00    -0.144 C  
HETATM   38  C   UNL     1      -8.934   6.431  69.030  1.00  0.00    -0.128 C  
HETATM   39  C   UNL     1      -8.363   6.570  67.622  1.00  0.00    -0.121 C  
ENDBRANCH  34  35
ENDBRANCH  32  34
ENDBRANCH   7  30
BRANCH  16  40
HETATM   40  C   UNL     1      -7.089  19.160  66.053  1.00  0.00    -0.266 C  
HETATM   41  N   UNL     1      -7.746  20.348  65.996  1.00  0.00    -0.527 N  
HETATM   42  H2  UNL     1      -8.153  20.769  66.831  1.00  0.00     0.000 HD 
HETATM   43  H1  UNL     1      -7.816  20.801  65.085  1.00  0.00     0.000 HD 
HETATM   44  O   UNL     1      -6.665  18.669  65.012  1.00  0.00    -0.526 OA 
ENDBRANCH  16  40
BRANCH  13  45
HETATM   45  N   UNL     1     -10.418  19.153  68.390  1.00  0.00    -0.302 NA 
HETATM   46  C   UNL     1     -10.356  20.429  69.099  1.00  0.00     0.234 C  
HETATM   47  C   UNL     1     -10.832  19.377  67.002  1.00  0.00    -0.432 C  
ENDBRANCH  13  45
TORSDOF 5
ENDMDL
MODEL       23
REMARK 921   NORMALIZED FREE ENERGY PREDICTED BY IDOCK:   -7.17 KCAL/MOL
REMARK 922        TOTAL FREE ENERGY PREDICTED BY IDOCK:   -9.17 KCAL/MOL
REMARK 923 INTER-LIGAND FREE ENERGY PREDICTED BY IDOCK:   -8.22 KCAL/MOL
REMARK 924 INTRA-LIGAND FREE ENERGY PREDICTED BY IDOCK:   -0.95 KCAL/MOL
REMARK 927      BINDING AFFINITY PREDICTED BY RF-SCORE:    0.00 PKD
ROOT
HETATM    1  C   UNL     1      -9.489   8.439  67.165  1.00  0.00    -0.209 C  
HETATM    2  C   UNL     1     -10.806   9.054  67.626  1.00  0.00    -0.133 C  
HETATM    3  C   UNL     1     -10.796  10.539  67.529  1.00  0.00    -0.357 A  
HETATM    4  C   UNL     1     -11.622  11.256  68.392  1.00  0.00    -0.308 A  
HETATM    5  C   UNL     1     -11.712  12.634  68.329  1.00  0.00    -0.389 A  
HETATM    6  F   UNL     1     -12.374  10.603  69.289  1.00  0.00    -0.344 F  
HETATM    7  C   UNL     1     -10.946  13.336  67.404  1.00  0.00    -0.271 A  
HETATM    8  C   UNL     1      -8.670   3.784  65.411  1.00  0.00    -0.117 C  
HETATM    9  C   UNL     1     -10.116  12.620  66.515  1.00  0.00    -0.248 A  
HETATM   10  H   UNL     1      -6.264   5.874  65.569  1.00  0.00     0.000 HD 
HETATM   11  O   UNL     1      -9.312  13.341  65.671  1.00  0.00    -0.468 OA 
HETATM   12  C   UNL     1     -10.055  11.213  66.550  1.00  0.00    -0.265 A  
HETATM   13  C   UNL     1      -9.068   4.653  66.582  1.00  0.00    -0.119 C  
HETATM   14  O   UNL     1      -8.600   5.932  63.013  1.00  0.00    -0.004 OA 
HETATM   15  H   UNL     1      -8.753  12.859  65.072  1.00  0.00     0.000 HD 
HETATM   16  C   UNL     1      -7.854   4.241  64.450  1.00  0.00    -0.085 C  
HETATM   17  C   UNL     1      -9.302  10.407  65.534  1.00  0.00    -0.197 C  
HETATM   18  O   UNL     1      -8.961  10.886  64.455  1.00  0.00    -0.179 OA 
HETATM   19  C   UNL     1      -9.037   8.950  65.828  1.00  0.00    -0.276 C  
HETATM   20  C   UNL     1      -9.725   6.944  67.113  1.00  0.00    -0.197 C  
HETATM   21  H   UNL     1     -10.223   2.514  65.758  1.00  0.00     0.000 HD 
HETATM   22  C   UNL     1      -8.364   8.154  64.962  1.00  0.00    -0.136 C  
HETATM   23  C   UNL     1      -7.958   6.697  65.271  1.00  0.00    -0.123 C  
HETATM   24  C   UNL     1      -8.529   6.134  66.601  1.00  0.00    -0.116 C  
HETATM   25  O   UNL     1      -7.816   8.654  63.784  1.00  0.00    -0.132 OA 
HETATM   26  H   UNL     1      -7.344   8.096  63.177  1.00  0.00     0.000 HD 
HETATM   27  C   UNL     1      -8.161   5.669  64.132  1.00  0.00    -0.129 C  
HETATM   28  O   UNL     1      -6.514   6.771  65.380  1.00  0.00    -0.044 OA 
HETATM   29  O   UNL     1      -9.645   2.836  65.077  1.00  0.00    -0.123 OA 
ENDROOT
BRANCH   7  30
HETATM   30  N   UNL     1     -11.021  14.739  67.302  1.00  0.00    -0.309 N  
HETATM   31  O   UNL     1      -9.513  15.425  68.942  1.00  0.00    -0.194 OA 
HETATM   32  C   UNL     1     -10.400  15.665  68.126  1.00  0.00    -0.246 C  
HETATM   33  H   UNL     1     -11.592  15.113  66.545  1.00  0.00     0.000 HD 
BRANCH  32  34
HETATM   34  C   UNL     1     -10.876  17.099  67.898  1.00  0.00    -0.294 C  
BRANCH  34  35
HETATM   35  N   UNL     1      -9.742  18.029  67.711  1.00  0.00    -0.283 NA 
HETATM   36  C   UNL     1      -9.291  18.081  66.311  1.00  0.00    -0.206 C  
HETATM   37  C   UNL     1      -8.468  19.354  66.301  1.00  0.00    -0.346 C  
HETATM   38  C   UNL     1     -10.142  19.405  68.043  1.00  0.00    -0.412 C  
HETATM   39  C   UNL     1      -9.280  20.305  67.164  1.00  0.00    -0.519 C  
ENDBRANCH  34  35
ENDBRANCH  32  34
ENDBRANCH   7  30
BRANCH  16  40
HETATM   40  C   UNL     1      -6.469   3.722  64.674  1.00  0.00    -0.038 C  
HETATM   41  N   UNL     1      -5.467   4.286  63.951  1.00  0.00    -0.013 N  
HETATM   42  H2  UNL     1      -5.651   5.032  63.281  1.00  0.00     0.000 HD 
HETATM   43  H1  UNL     1      -4.522   3.932  64.104  1.00  0.00     0.000 HD 
HETATM   44  O   UNL     1      -6.203   2.791  65.426  1.00  0.00    -0.022 OA 
ENDBRANCH  16  40
BRANCH  13  45
HETATM   45  N   UNL     1      -8.875   4.080  67.935  1.00  0.00    -0.105 NA 
HETATM   46  C   UNL     1      -9.356   2.705  68.045  1.00  0.00    -0.202 C  
HETATM   47  C   UNL     1      -7.504   4.168  68.445  1.00  0.00    -0.059 C  
ENDBRANCH  13  45
TORSDOF 5
ENDMDL
MODEL       24
REMARK 921   NORMALIZED FREE ENERGY PREDICTED BY IDOCK:   -7.14 KCAL/MOL
REMARK 922        TOTAL FREE ENERGY PREDICTED BY IDOCK:   -9.13 KCAL/MOL
REMARK 923 INTER-LIGAND FREE ENERGY PREDICTED BY IDOCK:   -8.59 KCAL/MOL
REMARK 924 INTRA-LIGAND FREE ENERGY PREDICTED BY IDOCK:   -0.54 KCAL/MOL
REMARK 927      BINDING AFFINITY PREDICTED BY RF-SCORE:    0.00 PKD
ROOT
HETATM    1  C   UNL     1      -8.408  13.324  67.504  1.00  0.00    -0.186 C  
HETATM    2  C   UNL     1      -7.377  12.323  67.000  1.00  0.00    -0.052 C  
HETATM    3  C   UNL     1      -7.911  10.934  66.970  1.00  0.00    -0.132 A  
HETATM    4  C   UNL     1      -7.005   9.882  67.093  1.00  0.00    -0.084 A  
HETATM    5  C   UNL     1      -7.413   8.564  67.020  1.00  0.00    -0.084 A  
HETATM    6  F   UNL     1      -5.701  10.143  67.259  1.00  0.00    -0.044 F  
HETATM    7  C   UNL     1      -8.761   8.265  66.844  1.00  0.00    -0.134 A  
HETATM    8  C   UNL     1      -8.634  18.281  66.610  1.00  0.00    -0.273 C  
HETATM    9  C   UNL     1      -9.686   9.321  66.703  1.00  0.00    -0.219 A  
HETATM   10  H   UNL     1     -10.900  16.873  68.362  1.00  0.00     0.000 HD 
HETATM   11  O   UNL     1     -11.015   9.000  66.614  1.00  0.00    -0.004 OA 
HETATM   12  C   UNL     1      -9.265  10.665  66.736  1.00  0.00    -0.174 A  
HETATM   13  C   UNL     1      -7.887  17.134  67.251  1.00  0.00    -0.178 C  
HETATM   14  O   UNL     1     -10.870  16.714  64.902  1.00  0.00    -0.697 OA 
HETATM   15  H   UNL     1     -11.637   9.711  66.519  1.00  0.00     0.000 HD 
HETATM   16  C   UNL     1      -9.964  18.235  66.433  1.00  0.00    -0.385 C  
HETATM   17  C   UNL     1     -10.188  11.812  66.446  1.00  0.00    -0.215 C  
HETATM   18  O   UNL     1     -11.261  11.648  65.870  1.00  0.00    -0.305 OA 
HETATM   19  C   UNL     1      -9.733  13.207  66.807  1.00  0.00    -0.246 C  
HETATM   20  C   UNL     1      -7.805  14.694  67.274  1.00  0.00    -0.213 C  
HETATM   21  H   UNL     1      -6.915  19.031  65.819  1.00  0.00     0.000 HD 
HETATM   22  C   UNL     1     -10.507  14.295  66.579  1.00  0.00    -0.287 C  
HETATM   23  C   UNL     1     -10.143  15.722  67.043  1.00  0.00    -0.261 C  
HETATM   24  C   UNL     1      -8.722  15.861  67.655  1.00  0.00    -0.174 C  
HETATM   25  O   UNL     1     -11.795  14.181  66.064  1.00  0.00    -0.368 OA 
HETATM   26  H   UNL     1     -12.338  14.945  65.903  1.00  0.00     0.000 HD 
HETATM   27  C   UNL     1     -10.395  16.862  66.026  1.00  0.00    -0.325 C  
HETATM   28  O   UNL     1     -11.123  15.994  68.076  1.00  0.00    -0.341 OA 
HETATM   29  O   UNL     1      -7.856  18.998  65.694  1.00  0.00    -0.457 OA 
ENDROOT
BRANCH   7  30
HETATM   30  N   UNL     1      -9.212   6.933  66.753  1.00  0.00    -0.146 N  
HETATM   31  O   UNL     1      -8.295   6.248  64.722  1.00  0.00    -0.128 OA 
HETATM   32  C   UNL     1      -9.045   6.072  65.680  1.00  0.00    -0.016 C  
HETATM   33  H   UNL     1      -9.714   6.565  67.560  1.00  0.00     0.000 HD 
BRANCH  32  34
HETATM   34  C   UNL     1      -9.858   4.785  65.799  1.00  0.00    -0.199 C  
BRANCH  34  35
HETATM   35  N   UNL     1      -9.572   3.850  64.690  1.00  0.00    -0.164 NA 
HETATM   36  C   UNL     1      -9.318   2.481  65.168  1.00  0.00    -0.082 C  
HETATM   37  C   UNL     1      -9.479   1.676  63.894  1.00  0.00    -0.123 C  
HETATM   38  C   UNL     1     -10.731   3.741  63.793  1.00  0.00    -0.232 C  
HETATM   39  C   UNL     1     -10.668   2.332  63.212  1.00  0.00    -0.218 C  
ENDBRANCH  34  35
ENDBRANCH  32  34
ENDBRANCH   7  30
BRANCH  16  40
HETATM   40  C   UNL     1     -10.643  19.033  67.501  1.00  0.00    -0.461 C  
HETATM   41  N   UNL     1     -10.478  18.623  68.786  1.00  0.00    -0.410 N  
HETATM   42  H2  UNL     1      -9.914  17.805  69.013  1.00  0.00     0.000 HD 
HETATM   43  H1  UNL     1     -10.941  19.168  69.514  1.00  0.00     0.000 HD 
HETATM   44  O   UNL     1     -11.375  19.990  67.275  1.00  0.00     0.053 OA 
ENDBRANCH  16  40
BRANCH  13  45
HETATM   45  N   UNL     1      -6.992  17.470  68.382  1.00  0.00    -0.203 NA 
HETATM   46  C   UNL     1      -5.580  17.248  68.077  1.00  0.00    -0.117 C  
HETATM   47  C   UNL     1      -7.174  18.819  68.925  1.00  0.00    -0.303 C  
ENDBRANCH  13  45
TORSDOF 5
ENDMDL
MODEL       25
REMARK 921   NORMALIZED FREE ENERGY PREDICTED BY IDOCK:   -7.11 KCAL/MOL
REMARK 922        TOTAL FREE ENERGY PREDICTED BY IDOCK:   -9.09 KCAL/MOL
REMARK 923 INTER-LIGAND FREE ENERGY PREDICTED BY IDOCK:   -8.91 KCAL/MOL
REMARK 924 INTRA-LIGAND FREE ENERGY PREDICTED BY IDOCK:   -0.19 KCAL/MOL
REMARK 927      BINDING AFFINITY PREDICTED BY RF-SCORE:    0.00 PKD
ROOT
HETATM    1  C   UNL     1     -10.326  11.282  69.080  1.00  0.00    -0.189 C  
HETATM    2  C   UNL     1     -11.086  11.955  67.943  1.00  0.00    -0.297 C  
HETATM    3  C   UNL     1     -10.511  13.282  67.591  1.00  0.00    -0.231 A  
HETATM    4  C   UNL     1     -11.358  14.234  67.027  1.00  0.00    -0.341 A  
HETATM    5  C   UNL     1     -10.890  15.470  66.622  1.00  0.00    -0.285 A  
HETATM    6  F   UNL     1     -12.653  13.945  66.841  1.00  0.00    -0.423 F  
HETATM    7  C   UNL     1      -9.548  15.794  66.799  1.00  0.00    -0.236 A  
HETATM    8  C   UNL     1     -10.038   6.364  70.151  1.00  0.00    -0.173 C  
HETATM    9  C   UNL     1      -8.678  14.833  67.356  1.00  0.00    -0.198 A  
HETATM   10  H   UNL     1      -8.422   8.477  71.915  1.00  0.00     0.000 HD 
HETATM   11  O   UNL     1      -7.381  15.208  67.595  1.00  0.00    -0.148 OA 
HETATM   12  C   UNL     1      -9.145  13.559  67.731  1.00  0.00    -0.207 A  
HETATM   13  C   UNL     1     -10.903   7.600  70.057  1.00  0.00    -0.243 C  
HETATM   14  O   UNL     1      -7.294   7.401  68.822  1.00  0.00    -0.090 OA 
HETATM   15  H   UNL     1      -6.795  14.562  67.970  1.00  0.00     0.000 HD 
HETATM   16  C   UNL     1      -8.725   6.452  70.413  1.00  0.00    -0.147 C  
HETATM   17  C   UNL     1      -8.231  12.461  68.189  1.00  0.00    -0.173 C  
HETATM   18  O   UNL     1      -7.021  12.497  67.975  1.00  0.00    -0.076 OA 
HETATM   19  C   UNL     1      -8.841  11.252  68.858  1.00  0.00    -0.055 C  
HETATM   20  C   UNL     1     -10.880   9.876  69.174  1.00  0.00    -0.248 C  
HETATM   21  H   UNL     1     -11.429   5.248  69.170  1.00  0.00     0.000 HD 
HETATM   22  C   UNL     1      -8.085  10.219  69.301  1.00  0.00    -0.155 C  
HETATM   23  C   UNL     1      -8.645   9.024  70.101  1.00  0.00    -0.160 C  
HETATM   24  C   UNL     1     -10.194   8.996  70.225  1.00  0.00    -0.235 C  
HETATM   25  O   UNL     1      -6.695  10.246  69.229  1.00  0.00    -0.053 OA 
HETATM   26  H   UNL     1      -6.165   9.522  69.540  1.00  0.00     0.000 HD 
HETATM   27  C   UNL     1      -8.122   7.622  69.704  1.00  0.00    -0.126 C  
HETATM   28  O   UNL     1      -8.078   9.213  71.422  1.00  0.00    -0.318 OA 
HETATM   29  O   UNL     1     -10.499   5.310  69.355  1.00  0.00    -0.260 OA 
ENDROOT
BRANCH   7  30
HETATM   30  N   UNL     1      -9.033  17.039  66.387  1.00  0.00    -0.271 N  
HETATM   31  O   UNL     1      -9.536  18.400  68.212  1.00  0.00    -0.304 OA 
HETATM   32  C   UNL     1      -9.153  18.248  67.054  1.00  0.00    -0.271 C  
HETATM   33  H   UNL     1      -8.520  17.052  65.506  1.00  0.00     0.000 HD 
BRANCH  32  34
HETATM   34  C   UNL     1      -8.695  19.448  66.227  1.00  0.00    -0.346 C  
BRANCH  34  35
HETATM   35  N   UNL     1      -7.227  19.622  66.281  1.00  0.00    -0.248 NA 
HETATM   36  C   UNL     1      -6.673  20.071  64.993  1.00  0.00    -0.256 C  
HETATM   37  C   UNL     1      -5.304  20.571  65.407  1.00  0.00    -0.215 C  
HETATM   38  C   UNL     1      -6.866  20.670  67.248  1.00  0.00    -0.323 C  
HETATM   39  C   UNL     1      -5.571  21.280  66.723  1.00  0.00    -0.334 C  
ENDBRANCH  34  35
ENDBRANCH  32  34
ENDBRANCH   7  30
BRANCH  16  40
HETATM   40  C   UNL     1      -8.475   6.139  71.854  1.00  0.00    -0.129 C  
HETATM   41  N   UNL     1      -7.400   5.362  72.147  1.00  0.00    -0.091 N  
HETATM   42  H2  UNL     1      -6.788   5.005  71.413  1.00  0.00     0.000 HD 
HETATM   43  H1  UNL     1      -7.230   5.148  73.130  1.00  0.00     0.000 HD 
HETATM   44  O   UNL     1      -9.211   6.497  72.767  1.00  0.00    -0.138 OA 
ENDBRANCH  16  40
BRANCH  13  45
HETATM   45  N   UNL     1     -12.138   7.614  70.876  1.00  0.00    -0.250 NA 
HETATM   46  C   UNL     1     -12.221   6.486  71.801  1.00  0.00    -0.322 C  
HETATM   47  C   UNL     1     -12.376   8.866  71.600  1.00  0.00    -0.343 C  
ENDBRANCH  13  45
TORSDOF 5
ENDMDL
MODEL       26
REMARK 921   NORMALIZED FREE ENERGY PREDICTED BY IDOCK:   -7.11 KCAL/MOL
REMARK 922        TOTAL FREE ENERGY PREDICTED BY IDOCK:   -9.09 KCAL/MOL
REMARK 923 INTER-LIGAND FREE ENERGY PREDICTED BY IDOCK:   -8.39 KCAL/MOL
REMARK 924 INTRA-LIGAND FREE ENERGY PREDICTED BY IDOCK:   -0.70 KCAL/MOL
REMARK 927      BINDING AFFINITY PREDICTED BY RF-SCORE:    0.00 PKD
ROOT
HETATM    1  C   UNL     1     -10.129  10.172  67.335  1.00  0.00    -0.251 C  
HETATM    2  C   UNL     1     -10.745  11.101  66.296  1.00  0.00    -0.298 C  
HETATM    3  C   UNL     1     -10.794  12.513  66.763  1.00  0.00    -0.281 A  
HETATM    4  C   UNL     1     -11.783  13.343  66.238  1.00  0.00    -0.366 A  
HETATM    5  C   UNL     1     -11.862  14.680  66.579  1.00  0.00    -0.317 A  
HETATM    6  F   UNL     1     -12.667  12.850  65.359  1.00  0.00    -0.527 F  
HETATM    7  C   UNL     1     -10.953  15.218  67.485  1.00  0.00    -0.315 A  
HETATM    8  C   UNL     1      -7.872   5.726  66.589  1.00  0.00    -0.101 C  
HETATM    9  C   UNL     1      -9.938  14.391  68.013  1.00  0.00    -0.225 A  
HETATM   10  H   UNL     1      -8.049   6.950  69.531  1.00  0.00     0.000 HD 
HETATM   11  O   UNL     1      -9.110  14.925  68.965  1.00  0.00    -0.196 OA 
HETATM   12  C   UNL     1      -9.832  13.039  67.635  1.00  0.00    -0.212 A  
HETATM   13  C   UNL     1      -9.148   6.533  66.532  1.00  0.00    -0.152 C  
HETATM   14  O   UNL     1      -5.696   8.013  67.223  1.00  0.00    -0.036 OA 
HETATM   15  H   UNL     1      -8.426  14.369  69.320  1.00  0.00     0.000 HD 
HETATM   16  C   UNL     1      -6.900   6.020  67.466  1.00  0.00    -0.063 C  
HETATM   17  C   UNL     1      -8.687  12.165  68.056  1.00  0.00    -0.180 C  
HETATM   18  O   UNL     1      -7.637  12.639  68.484  1.00  0.00    -0.126 OA 
HETATM   19  C   UNL     1      -8.817  10.672  67.866  1.00  0.00    -0.131 C  
HETATM   20  C   UNL     1      -9.949   8.837  66.643  1.00  0.00    -0.355 C  
HETATM   21  H   UNL     1      -8.210   4.958  64.735  1.00  0.00     0.000 HD 
HETATM   22  C   UNL     1      -7.829   9.816  68.221  1.00  0.00    -0.089 C  
HETATM   23  C   UNL     1      -7.962   8.279  68.166  1.00  0.00    -0.123 C  
HETATM   24  C   UNL     1      -9.271   7.766  67.505  1.00  0.00    -0.147 C  
HETATM   25  O   UNL     1      -6.667  10.258  68.847  1.00  0.00    -0.055 OA 
HETATM   26  H   UNL     1      -5.974   9.657  69.096  1.00  0.00     0.000 HD 
HETATM   27  C   UNL     1      -6.747   7.501  67.606  1.00  0.00    -0.067 C  
HETATM   28  O   UNL     1      -7.968   7.896  69.565  1.00  0.00    -0.111 OA 
HETATM   29  O   UNL     1      -7.522   5.166  65.355  1.00  0.00    -0.074 OA 
ENDROOT
BRANCH   7  30
HETATM   30  N   UNL     1     -10.995  16.579  67.847  1.00  0.00    -0.325 N  
HETATM   31  O   UNL     1      -9.979  17.600  66.014  1.00  0.00    -0.469 OA 
HETATM   32  C   UNL     1     -10.426  17.638  67.158  1.00  0.00    -0.319 C  
HETATM   33  H   UNL     1     -11.497  16.808  68.705  1.00  0.00     0.000 HD 
BRANCH  32  34
HETATM   34  C   UNL     1     -10.445  18.952  67.938  1.00  0.00    -0.388 C  
BRANCH  34  35
HETATM   35  N   UNL     1      -9.089  19.348  68.377  1.00  0.00    -0.348 NA 
HETATM   36  C   UNL     1      -8.223  18.184  68.626  1.00  0.00    -0.281 C  
HETATM   37  C   UNL     1      -6.848  18.821  68.632  1.00  0.00    -0.294 C  
HETATM   38  C   UNL     1      -8.411  20.122  67.326  1.00  0.00    -0.342 C  
HETATM   39  C   UNL     1      -6.924  19.834  67.502  1.00  0.00    -0.268 C  
ENDBRANCH  34  35
ENDBRANCH  32  34
ENDBRANCH   7  30
BRANCH  16  40
HETATM   40  C   UNL     1      -6.967   5.083  68.629  1.00  0.00    -0.056 C  
HETATM   41  N   UNL     1      -6.257   5.413  69.739  1.00  0.00    -0.024 N  
HETATM   42  H2  UNL     1      -5.700   6.266  69.777  1.00  0.00     0.000 HD 
HETATM   43  H1  UNL     1      -6.303   4.773  70.532  1.00  0.00     0.000 HD 
HETATM   44  O   UNL     1      -7.576   4.018  68.612  1.00  0.00    -0.058 OA 
ENDBRANCH  16  40
BRANCH  13  45
HETATM   45  N   UNL     1     -10.421   5.775  66.594  1.00  0.00    -0.262 NA 
HETATM   46  C   UNL     1     -10.472   4.669  65.640  1.00  0.00    -0.227 C  
HETATM   47  C   UNL     1     -10.780   5.294  67.930  1.00  0.00     0.071 C  
ENDBRANCH  13  45
TORSDOF 5
ENDMDL
MODEL       27
REMARK 921   NORMALIZED FREE ENERGY PREDICTED BY IDOCK:   -6.96 KCAL/MOL
REMARK 922        TOTAL FREE ENERGY PREDICTED BY IDOCK:   -8.89 KCAL/MOL
REMARK 923 INTER-LIGAND FREE ENERGY PREDICTED BY IDOCK:   -8.62 KCAL/MOL
REMARK 924 INTRA-LIGAND FREE ENERGY PREDICTED BY IDOCK:   -0.27 KCAL/MOL
REMARK 927      BINDING AFFINITY PREDICTED BY RF-SCORE:    0.00 PKD
ROOT
HETATM    1  C   UNL     1     -10.970  10.228  68.281  1.00  0.00    -0.315 C  
HETATM    2  C   UNL     1     -10.737   9.063  69.236  1.00  0.00    -0.189 C  
HETATM    3  C   UNL     1     -10.549   7.775  68.514  1.00  0.00    -0.153 A  
HETATM    4  C   UNL     1     -10.889   6.597  69.178  1.00  0.00    -0.283 A  
HETATM    5  C   UNL     1     -10.693   5.358  68.599  1.00  0.00    -0.088 A  
HETATM    6  F   UNL     1     -11.391   6.655  70.420  1.00  0.00    -0.304 F  
HETATM    7  C   UNL     1     -10.169   5.270  67.313  1.00  0.00    -0.206 A  
HETATM    8  C   UNL     1     -10.118  15.132  69.084  1.00  0.00    -0.245 C  
HETATM    9  C   UNL     1      -9.808   6.454  66.636  1.00  0.00    -0.152 A  
HETATM   10  H   UNL     1     -11.201  14.145  66.249  1.00  0.00     0.000 HD 
HETATM   11  O   UNL     1      -9.372   6.343  65.342  1.00  0.00    -0.359 OA 
HETATM   12  C   UNL     1      -9.968   7.716  67.241  1.00  0.00    -0.273 A  
HETATM   13  C   UNL     1     -10.915  13.900  69.448  1.00  0.00    -0.126 C  
HETATM   14  O   UNL     1      -7.866  13.888  67.147  1.00  0.00    -0.139 OA 
HETATM   15  H   UNL     1      -9.128   7.140  64.886  1.00  0.00     0.000 HD 
HETATM   16  C   UNL     1      -9.602  15.290  67.856  1.00  0.00    -0.199 C  
HETATM   17  C   UNL     1      -9.465   8.985  66.620  1.00  0.00    -0.194 C  
HETATM   18  O   UNL     1      -8.627   8.975  65.720  1.00  0.00    -0.141 OA 
HETATM   19  C   UNL     1      -9.951  10.300  67.181  1.00  0.00    -0.243 C  
HETATM   20  C   UNL     1     -10.924  11.479  69.133  1.00  0.00    -0.276 C  
HETATM   21  H   UNL     1      -9.812  15.580  71.046  1.00  0.00     0.000 HD 
HETATM   22  C   UNL     1      -9.545  11.489  66.675  1.00  0.00    -0.197 C  
HETATM   23  C   UNL     1     -10.108  12.854  67.128  1.00  0.00    -0.243 C  
HETATM   24  C   UNL     1     -11.070  12.785  68.346  1.00  0.00    -0.293 C  
HETATM   25  O   UNL     1      -8.712  11.566  65.563  1.00  0.00    -0.392 OA 
HETATM   26  H   UNL     1      -8.427  12.400  65.208  1.00  0.00     0.000 HD 
HETATM   27  C   UNL     1      -9.078  13.991  67.333  1.00  0.00    -0.209 C  
HETATM   28  O   UNL     1     -10.855  13.305  65.970  1.00  0.00    -0.272 OA 
HETATM   29  O   UNL     1      -9.447  15.693  70.176  1.00  0.00    -0.056 OA 
ENDROOT
BRANCH   7  30
HETATM   30  N   UNL     1      -9.944   4.023  66.696  1.00  0.00    -0.359 N  
HETATM   31  O   UNL     1      -7.653   3.732  67.009  1.00  0.00    -0.078 OA 
HETATM   32  C   UNL     1      -8.720   3.405  66.495  1.00  0.00    -0.126 C  
HETATM   33  H   UNL     1     -10.768   3.525  66.361  1.00  0.00     0.000 HD 
BRANCH  32  34
HETATM   34  C   UNL     1      -8.798   2.181  65.584  1.00  0.00    -0.121 C  
BRANCH  34  35
HETATM   35  N   UNL     1      -8.865   2.563  64.158  1.00  0.00    -0.095 NA 
HETATM   36  C   UNL     1     -10.164   3.156  63.801  1.00  0.00    -0.200 C  
HETATM   37  C   UNL     1      -9.842   3.826  62.480  1.00  0.00    -0.128 C  
HETATM   38  C   UNL     1      -7.866   3.598  63.852  1.00  0.00    -0.084 C  
HETATM   39  C   UNL     1      -8.461   4.417  62.712  1.00  0.00    -0.096 C  
ENDBRANCH  34  35
ENDBRANCH  32  34
ENDBRANCH   7  30
BRANCH  16  40
HETATM   40  C   UNL     1     -10.468  16.214  67.059  1.00  0.00    -0.306 C  
HETATM   41  N   UNL     1     -10.460  16.066  65.708  1.00  0.00    -0.358 N  
HETATM   42  H2  UNL     1      -9.887  15.354  65.256  1.00  0.00     0.000 HD 
HETATM   43  H1  UNL     1     -11.051  16.696  65.165  1.00  0.00     0.000 HD 
HETATM   44  O   UNL     1     -11.131  17.121  67.551  1.00  0.00    -0.178 OA 
ENDBRANCH  16  40
BRANCH  13  45
HETATM   45  N   UNL     1     -12.245  14.123  70.062  1.00  0.00    -0.341 NA 
HETATM   46  C   UNL     1     -12.432  13.375  71.303  1.00  0.00    -0.278 C  
HETATM   47  C   UNL     1     -12.591  15.531  70.275  1.00  0.00    -0.323 C  
ENDBRANCH  13  45
TORSDOF 5
ENDMDL
MODEL       28
REMARK 921   NORMALIZED FREE ENERGY PREDICTED BY IDOCK:   -6.95 KCAL/MOL
REMARK 922        TOTAL FREE ENERGY PREDICTED BY IDOCK:   -8.88 KCAL/MOL
REMARK 923 INTER-LIGAND FREE ENERGY PREDICTED BY IDOCK:   -8.31 KCAL/MOL
REMARK 924 INTRA-LIGAND FREE ENERGY PREDICTED BY IDOCK:   -0.57 KCAL/MOL
REMARK 927      BINDING AFFINITY PREDICTED BY RF-SCORE:    0.00 PKD
ROOT
HETATM    1  C   UNL     1      -8.513  13.405  67.290  1.00  0.00    -0.205 C  
HETATM    2  C   UNL     1      -8.545  12.284  66.258  1.00  0.00     0.125 C  
HETATM    3  C   UNL     1      -8.680  10.943  66.890  1.00  0.00    -0.144 A  
HETATM    4  C   UNL     1      -8.172   9.842  66.204  1.00  0.00    -0.118 A  
HETATM    5  C   UNL     1      -8.305   8.558  66.696  1.00  0.00    -0.112 A  
HETATM    6  F   UNL     1      -7.562  10.018  65.023  1.00  0.00    -0.116 F  
HETATM    7  C   UNL     1      -8.938   8.347  67.917  1.00  0.00    -0.137 A  
HETATM    8  C   UNL     1      -9.736  18.256  66.660  1.00  0.00    -0.339 C  
HETATM    9  C   UNL     1      -9.470   9.452  68.615  1.00  0.00    -0.146 A  
HETATM   10  H   UNL     1      -8.839  17.199  69.534  1.00  0.00     0.000 HD 
HETATM   11  O   UNL     1     -10.014   9.225  69.852  1.00  0.00    -0.183 OA 
HETATM   12  C   UNL     1      -9.371  10.757  68.094  1.00  0.00    -0.155 A  
HETATM   13  C   UNL     1      -8.798  17.122  66.314  1.00  0.00    -0.231 C  
HETATM   14  O   UNL     1     -12.036  16.706  68.297  1.00  0.00     0.251 OA 
HETATM   15  H   UNL     1     -10.372   9.969  70.322  1.00  0.00     0.000 HD 
HETATM   16  C   UNL     1     -10.378  18.294  67.837  1.00  0.00    -0.417 C  
HETATM   17  C   UNL     1     -10.046  11.938  68.727  1.00  0.00    -0.120 C  
HETATM   18  O   UNL     1     -10.961  11.801  69.537  1.00  0.00    -0.181 OA 
HETATM   19  C   UNL     1      -9.633  13.322  68.286  1.00  0.00    -0.221 C  
HETATM   20  C   UNL     1      -8.594  14.696  66.503  1.00  0.00    -0.023 C  
HETATM   21  H   UNL     1      -9.896  18.793  64.703  1.00  0.00     0.000 HD 
HETATM   22  C   UNL     1     -10.194  14.438  68.809  1.00  0.00    -0.239 C  
HETATM   23  C   UNL     1      -9.720  15.872  68.485  1.00  0.00    -0.211 C  
HETATM   24  C   UNL     1      -8.644  15.961  67.367  1.00  0.00    -0.189 C  
HETATM   25  O   UNL     1     -11.132  14.375  69.835  1.00  0.00    -0.387 OA 
HETATM   26  H   UNL     1     -11.526  15.158  70.202  1.00  0.00     0.000 HD 
HETATM   27  C   UNL     1     -10.827  16.925  68.238  1.00  0.00    -0.357 C  
HETATM   28  O   UNL     1      -9.130  16.316  69.733  1.00  0.00     0.057 OA 
HETATM   29  O   UNL     1     -10.351  18.820  65.536  1.00  0.00    -0.510 OA 
ENDROOT
BRANCH   7  30
HETATM   30  N   UNL     1      -9.104   7.051  68.444  1.00  0.00    -0.128 N  
HETATM   31  O   UNL     1     -11.078   6.357  67.418  1.00  0.00    -0.363 OA 
HETATM   32  C   UNL     1     -10.186   6.208  68.250  1.00  0.00    -0.175 C  
HETATM   33  H   UNL     1      -8.348   6.697  69.030  1.00  0.00     0.000 HD 
BRANCH  32  34
HETATM   34  C   UNL     1     -10.167   4.974  69.151  1.00  0.00    -0.157 C  
BRANCH  34  35
HETATM   35  N   UNL     1      -9.935   5.334  70.566  1.00  0.00    -0.212 NA 
HETATM   36  C   UNL     1     -11.067   6.075  71.145  1.00  0.00    -0.271 C  
HETATM   37  C   UNL     1     -10.792   5.946  72.630  1.00  0.00    -0.290 C  
HETATM   38  C   UNL     1      -9.797   4.124  71.391  1.00  0.00    -0.184 C  
HETATM   39  C   UNL     1     -10.308   4.513  72.775  1.00  0.00    -0.245 C  
ENDBRANCH  34  35
ENDBRANCH  32  34
ENDBRANCH   7  30
BRANCH  16  40
HETATM   40  C   UNL     1      -9.681  19.240  68.762  1.00  0.00    -0.446 C  
HETATM   41  N   UNL     1     -10.458  20.070  69.507  1.00  0.00    -0.492 N  
HETATM   42  H2  UNL     1     -11.475  20.049  69.437  1.00  0.00     0.000 HD 
HETATM   43  H1  UNL     1      -9.982  20.716  70.137  1.00  0.00     0.000 HD 
HETATM   44  O   UNL     1      -8.462  19.342  68.841  1.00  0.00    -0.367 OA 
ENDBRANCH  16  40
BRANCH  13  45
HETATM   45  N   UNL     1      -7.442  17.497  65.848  1.00  0.00    -0.487 NA 
HETATM   46  C   UNL     1      -7.318  18.920  65.542  1.00  0.00     0.030 C  
HETATM   47  C   UNL     1      -6.354  17.085  66.739  1.00  0.00    -0.211 C  
ENDBRANCH  13  45
TORSDOF 5
ENDMDL
MODEL       29
REMARK 921   NORMALIZED FREE ENERGY PREDICTED BY IDOCK:   -6.90 KCAL/MOL
REMARK 922        TOTAL FREE ENERGY PREDICTED BY IDOCK:   -8.82 KCAL/MOL
REMARK 923 INTER-LIGAND FREE ENERGY PREDICTED BY IDOCK:   -7.78 KCAL/MOL
REMARK 924 INTRA-LIGAND FREE ENERGY PREDICTED BY IDOCK:   -1.04 KCAL/MOL
REMARK 927      BINDING AFFINITY PREDICTED BY RF-SCORE:    0.00 PKD
ROOT
HETATM    1  C   UNL     1      -7.457   9.566  67.976  1.00  0.00    -0.083 C  
HETATM    2  C   UNL     1      -7.280  10.516  69.155  1.00  0.00    -0.099 C  
HETATM    3  C   UNL     1      -7.339  11.944  68.740  1.00  0.00    -0.105 A  
HETATM    4  C   UNL     1      -6.660  12.880  69.518  1.00  0.00    -0.029 A  
HETATM    5  C   UNL     1      -6.710  14.231  69.232  1.00  0.00    -0.123 A  
HETATM    6  F   UNL     1      -5.963  12.475  70.589  1.00  0.00    -0.171 F  
HETATM    7  C   UNL     1      -7.431  14.679  68.129  1.00  0.00    -0.123 A  
HETATM    8  C   UNL     1      -9.096   4.799  68.034  1.00  0.00    -0.117 C  
HETATM    9  C   UNL     1      -8.134  13.742  67.342  1.00  0.00    -0.177 A  
HETATM   10  H   UNL     1      -8.372   6.202  65.261  1.00  0.00     0.000 HD 
HETATM   11  O   UNL     1      -8.767  14.201  66.216  1.00  0.00    -0.440 OA 
HETATM   12  C   UNL     1      -8.118  12.369  67.657  1.00  0.00    -0.168 A  
HETATM   13  C   UNL     1      -8.020   5.782  68.435  1.00  0.00    -0.104 C  
HETATM   14  O   UNL     1     -11.373   6.770  66.894  1.00  0.00    -0.318 OA 
HETATM   15  H   UNL     1      -9.240  13.571  65.686  1.00  0.00     0.000 HD 
HETATM   16  C   UNL     1      -9.847   4.996  66.939  1.00  0.00    -0.209 C  
HETATM   17  C   UNL     1      -8.964  11.361  66.938  1.00  0.00    -0.171 C  
HETATM   18  O   UNL     1      -9.932  11.698  66.259  1.00  0.00    -0.207 OA 
HETATM   19  C   UNL     1      -8.652   9.896  67.130  1.00  0.00    -0.125 C  
HETATM   20  C   UNL     1      -7.593   8.182  68.574  1.00  0.00    -0.104 C  
HETATM   21  H   UNL     1      -9.124   3.985  69.899  1.00  0.00     0.000 HD 
HETATM   22  C   UNL     1      -9.369   8.924  66.516  1.00  0.00    -0.195 C  
HETATM   23  C   UNL     1      -9.013   7.423  66.577  1.00  0.00    -0.159 C  
HETATM   24  C   UNL     1      -7.851   7.073  67.549  1.00  0.00    -0.112 C  
HETATM   25  O   UNL     1     -10.388   9.223  65.616  1.00  0.00    -0.244 OA 
HETATM   26  H   UNL     1     -10.891   8.542  65.186  1.00  0.00     0.000 HD 
HETATM   27  C   UNL     1     -10.192   6.443  66.789  1.00  0.00    -0.195 C  
HETATM   28  O   UNL     1      -8.590   7.126  65.223  1.00  0.00    -0.098 OA 
HETATM   29  O   UNL     1      -9.656   4.124  69.125  1.00  0.00    -0.172 OA 
ENDROOT
BRANCH   7  30
HETATM   30  N   UNL     1      -7.514  16.050  67.814  1.00  0.00    -0.129 N  
HETATM   31  O   UNL     1      -5.492  16.418  66.714  1.00  0.00    -0.349 OA 
HETATM   32  C   UNL     1      -6.523  16.830  67.240  1.00  0.00    -0.174 C  
HETATM   33  H   UNL     1      -8.395  16.515  68.031  1.00  0.00     0.000 HD 
BRANCH  32  34
HETATM   34  C   UNL     1      -6.843  18.325  67.252  1.00  0.00    -0.196 C  
BRANCH  34  35
HETATM   35  N   UNL     1      -8.298  18.573  67.340  1.00  0.00    -0.254 NA 
HETATM   36  C   UNL     1      -8.661  19.320  68.556  1.00  0.00    -0.367 C  
HETATM   37  C   UNL     1     -10.056  19.804  68.212  1.00  0.00    -0.575 C  
HETATM   38  C   UNL     1      -8.748  19.410  66.218  1.00  0.00    -0.346 C  
HETATM   39  C   UNL     1      -9.942  20.197  66.749  1.00  0.00    -0.604 C  
ENDBRANCH  34  35
ENDBRANCH  32  34
ENDBRANCH   7  30
BRANCH  16  40
HETATM   40  C   UNL     1      -9.338   4.146  65.819  1.00  0.00    -0.162 C  
HETATM   41  N   UNL     1      -9.674   4.514  64.555  1.00  0.00    -0.336 N  
HETATM   42  H2  UNL     1     -10.250   5.337  64.377  1.00  0.00     0.000 HD 
HETATM   43  H1  UNL     1      -9.327   3.934  63.790  1.00  0.00     0.000 HD 
HETATM   44  O   UNL     1      -8.690   3.118  65.982  1.00  0.00    -0.117 OA 
ENDBRANCH  16  40
BRANCH  13  45
HETATM   45  N   UNL     1      -6.671   5.227  68.694  1.00  0.00    -0.049 NA 
HETATM   46  C   UNL     1      -6.430   4.951  70.108  1.00  0.00    -0.035 C  
HETATM   47  C   UNL     1      -6.333   4.046  67.895  1.00  0.00    -0.037 C  
ENDBRANCH  13  45
TORSDOF 5
ENDMDL
MODEL       30
REMARK 921   NORMALIZED FREE ENERGY PREDICTED BY IDOCK:   -6.80 KCAL/MOL
REMARK 922        TOTAL FREE ENERGY PREDICTED BY IDOCK:   -8.69 KCAL/MOL
REMARK 923 INTER-LIGAND FREE ENERGY PREDICTED BY IDOCK:   -8.39 KCAL/MOL
REMARK 924 INTRA-LIGAND FREE ENERGY PREDICTED BY IDOCK:   -0.31 KCAL/MOL
REMARK 927      BINDING AFFINITY PREDICTED BY RF-SCORE:    0.00 PKD
ROOT
HETATM    1  C   UNL     1      -9.587   9.526  68.968  1.00  0.00    -0.166 C  
HETATM    2  C   UNL     1     -10.693  10.479  69.406  1.00  0.00    -0.277 C  
HETATM    3  C   UNL     1     -10.756  11.696  68.552  1.00  0.00    -0.250 A  
HETATM    4  C   UNL     1     -11.269  12.864  69.113  1.00  0.00    -0.237 A  
HETATM    5  C   UNL     1     -11.412  14.021  68.372  1.00  0.00    -0.340 A  
HETATM    6  F   UNL     1     -11.664  12.868  70.394  1.00  0.00    -0.357 F  
HETATM    7  C   UNL     1     -11.015  14.043  67.038  1.00  0.00    -0.297 A  
HETATM    8  C   UNL     1      -9.267   4.555  69.746  1.00  0.00    -0.125 C  
HETATM    9  C   UNL     1     -10.507  12.863  66.454  1.00  0.00    -0.267 A  
HETATM   10  H   UNL     1      -7.002   6.055  68.072  1.00  0.00     0.000 HD 
HETATM   11  O   UNL     1     -10.047  12.935  65.165  1.00  0.00    -0.362 OA 
HETATM   12  C   UNL     1     -10.399  11.671  67.197  1.00  0.00    -0.247 A  
HETATM   13  C   UNL     1      -9.279   5.942  70.348  1.00  0.00    -0.158 C  
HETATM   14  O   UNL     1     -10.053   5.179  66.686  1.00  0.00    -0.185 OA 
HETATM   15  H   UNL     1      -9.705  12.141  64.772  1.00  0.00     0.000 HD 
HETATM   16  C   UNL     1      -8.828   4.342  68.497  1.00  0.00    -0.134 C  
HETATM   17  C   UNL     1     -10.003  10.362  66.581  1.00  0.00    -0.210 C  
HETATM   18  O   UNL     1     -10.051  10.180  65.366  1.00  0.00    -0.303 OA 
HETATM   19  C   UNL     1      -9.616   9.226  67.497  1.00  0.00    -0.184 C  
HETATM   20  C   UNL     1      -9.785   8.261  69.775  1.00  0.00    -0.180 C  
HETATM   21  H   UNL     1     -10.583   3.878  71.145  1.00  0.00     0.000 HD 
HETATM   22  C   UNL     1      -9.246   8.014  67.019  1.00  0.00    -0.147 C  
HETATM   23  C   UNL     1      -8.721   6.863  67.905  1.00  0.00    -0.121 C  
HETATM   24  C   UNL     1      -8.805   7.133  69.433  1.00  0.00    -0.136 C  
HETATM   25  O   UNL     1      -9.133   7.769  65.654  1.00  0.00    -0.367 OA 
HETATM   26  H   UNL     1      -8.873   6.918  65.319  1.00  0.00     0.000 HD 
HETATM   27  C   UNL     1      -9.262   5.448  67.589  1.00  0.00    -0.112 C  
HETATM   28  O   UNL     1      -7.325   6.763  67.527  1.00  0.00    -0.090 OA 
HETATM   29  O   UNL     1     -10.272   3.727  70.260  1.00  0.00     0.134 OA 
ENDROOT
BRANCH   7  30
HETATM   30  N   UNL     1     -11.157  15.201  66.249  1.00  0.00    -0.333 N  
HETATM   31  O   UNL     1      -8.945  15.892  65.998  1.00  0.00    -0.333 OA 
HETATM   32  C   UNL     1     -10.154  16.083  65.881  1.00  0.00    -0.353 C  
HETATM   33  H   UNL     1     -12.097  15.411  65.912  1.00  0.00     0.000 HD 
BRANCH  32  34
HETATM   34  C   UNL     1     -10.676  17.362  65.229  1.00  0.00     0.037 C  
BRANCH  34  35
HETATM   35  N   UNL     1     -10.558  18.526  66.133  1.00  0.00    -0.400 NA 
HETATM   36  C   UNL     1     -10.860  18.177  67.531  1.00  0.00    -0.242 C  
HETATM   37  C   UNL     1     -10.274  19.360  68.275  1.00  0.00    -0.535 C  
HETATM   38  C   UNL     1      -9.178  19.033  66.146  1.00  0.00    -0.201 C  
HETATM   39  C   UNL     1      -8.977  19.636  67.532  1.00  0.00    -0.383 C  
ENDBRANCH  34  35
ENDBRANCH  32  34
ENDBRANCH   7  30
BRANCH  16  40
HETATM   40  C   UNL     1      -7.433   3.803  68.537  1.00  0.00    -0.054 C  
HETATM   41  N   UNL     1      -7.142   2.763  67.713  1.00  0.00    -0.049 N  
HETATM   42  H2  UNL     1      -7.846   2.366  67.092  1.00  0.00     0.000 HD 
HETATM   43  H1  UNL     1      -6.190   2.396  67.741  1.00  0.00     0.000 HD 
HETATM   44  O   UNL     1      -6.567   4.209  69.305  1.00  0.00    -0.038 OA 
ENDBRANCH  16  40
BRANCH  13  45
HETATM   45  N   UNL     1      -8.634   6.100  71.673  1.00  0.00    -0.134 NA 
HETATM   46  C   UNL     1      -9.589   6.076  72.778  1.00  0.00    -0.155 C  
HETATM   47  C   UNL     1      -7.546   5.155  71.939  1.00  0.00    -0.096 C  
ENDBRANCH  13  45
TORSDOF 5
ENDMDL
MODEL       31
REMARK 921   NORMALIZED FREE ENERGY PREDICTED BY IDOCK:   -6.79 KCAL/MOL
REMARK 922        TOTAL FREE ENERGY PREDICTED BY IDOCK:   -8.68 KCAL/MOL
REMARK 923 INTER-LIGAND FREE ENERGY PREDICTED BY IDOCK:   -8.31 KCAL/MOL
REMARK 924 INTRA-LIGAND FREE ENERGY PREDICTED BY IDOCK:   -0.37 KCAL/MOL
REMARK 927      BINDING AFFINITY PREDICTED BY RF-SCORE:    0.00 PKD
ROOT
HETATM    1  C   UNL     1      -9.034  13.057  67.206  1.00  0.00    -0.212 C  
HETATM    2  C   UNL     1      -9.197  11.975  66.145  1.00  0.00    -0.181 C  
HETATM    3  C   UNL     1      -9.403  10.628  66.744  1.00  0.00    -0.179 A  
HETATM    4  C   UNL     1      -9.010   9.515  66.003  1.00  0.00    -0.163 A  
HETATM    5  C   UNL     1      -9.216   8.229  66.464  1.00  0.00    -0.236 A  
HETATM    6  F   UNL     1      -8.443   9.684  64.800  1.00  0.00    -0.126 F  
HETATM    7  C   UNL     1      -9.807   8.026  67.708  1.00  0.00    -0.165 A  
HETATM    8  C   UNL     1      -9.918  18.002  66.774  1.00  0.00    -0.346 C  
HETATM    9  C   UNL     1     -10.222   9.145  68.461  1.00  0.00    -0.198 A  
HETATM   10  H   UNL     1      -8.972  16.790  69.571  1.00  0.00     0.000 HD 
HETATM   11  O   UNL     1     -10.725   8.919  69.717  1.00  0.00    -0.229 OA 
HETATM   12  C   UNL     1     -10.050  10.455  67.974  1.00  0.00    -0.189 A  
HETATM   13  C   UNL     1      -9.084  16.814  66.352  1.00  0.00    -0.289 C  
HETATM   14  O   UNL     1     -12.250  16.573  68.474  1.00  0.00     0.386 OA 
HETATM   15  H   UNL     1     -11.004   9.671  70.224  1.00  0.00     0.000 HD 
HETATM   16  C   UNL     1     -10.501  18.049  67.982  1.00  0.00    -0.388 C  
HETATM   17  C   UNL     1     -10.605  11.661  68.672  1.00  0.00    -0.209 C  
HETATM   18  O   UNL     1     -11.489  11.565  69.521  1.00  0.00    -0.268 OA 
HETATM   19  C   UNL     1     -10.110  13.024  68.251  1.00  0.00    -0.239 C  
HETATM   20  C   UNL     1      -9.054  14.375  66.461  1.00  0.00    -0.233 C  
HETATM   21  H   UNL     1     -10.127  18.612  64.843  1.00  0.00     0.000 HD 
HETATM   22  C   UNL     1     -10.562  14.162  68.832  1.00  0.00    -0.239 C  
HETATM   23  C   UNL     1      -9.997  15.566  68.528  1.00  0.00    -0.208 C  
HETATM   24  C   UNL     1      -8.970  15.612  67.362  1.00  0.00    -0.205 C  
HETATM   25  O   UNL     1     -11.454  14.134  69.900  1.00  0.00    -0.308 OA 
HETATM   26  H   UNL     1     -11.771  14.932  70.308  1.00  0.00     0.000 HD 
HETATM   27  C   UNL     1     -11.032  16.705  68.364  1.00  0.00    -0.345 C  
HETATM   28  O   UNL     1      -9.319  15.926  69.758  1.00  0.00    -0.202 OA 
HETATM   29  O   UNL     1     -10.540  18.646  65.698  1.00  0.00    -0.610 OA 
ENDROOT
BRANCH   7  30
HETATM   30  N   UNL     1     -10.045   6.729  68.205  1.00  0.00    -0.156 N  
HETATM   31  O   UNL     1      -8.056   6.270  69.332  1.00  0.00    -0.110 OA 
HETATM   32  C   UNL     1      -9.141   5.919  68.872  1.00  0.00    -0.120 C  
HETATM   33  H   UNL     1     -10.979   6.348  68.058  1.00  0.00     0.000 HD 
BRANCH  32  34
HETATM   34  C   UNL     1      -9.634   4.485  69.063  1.00  0.00    -0.175 C  
BRANCH  34  35
HETATM   35  N   UNL     1      -8.721   3.504  68.440  1.00  0.00    -0.097 NA 
HETATM   36  C   UNL     1      -9.346   2.179  68.291  1.00  0.00    -0.205 C  
HETATM   37  C   UNL     1      -8.424   1.516  67.288  1.00  0.00    -0.092 C  
HETATM   38  C   UNL     1      -8.364   3.922  67.077  1.00  0.00    -0.100 C  
HETATM   39  C   UNL     1      -8.112   2.631  66.305  1.00  0.00    -0.084 C  
ENDBRANCH  34  35
ENDBRANCH  32  34
ENDBRANCH   7  30
BRANCH  16  40
HETATM   40  C   UNL     1      -9.694  18.911  68.899  1.00  0.00    -0.366 C  
HETATM   41  N   UNL     1     -10.373  19.738  69.737  1.00  0.00    -0.464 N  
HETATM   42  H2  UNL     1     -11.392  19.769  69.740  1.00  0.00     0.000 HD 
HETATM   43  H1  UNL     1      -9.822  20.326  70.363  1.00  0.00     0.000 HD 
HETATM   44  O   UNL     1      -8.468  18.952  68.894  1.00  0.00    -0.318 OA 
ENDBRANCH  16  40
BRANCH  13  45
HETATM   45  N   UNL     1      -7.727  17.103  65.831  1.00  0.00    -0.427 NA 
HETATM   46  C   UNL     1      -7.495  18.528  65.605  1.00  0.00     0.022 C  
HETATM   47  C   UNL     1      -6.635  16.545  66.633  1.00  0.00    -0.036 C  
ENDBRANCH  13  45
TORSDOF 5
ENDMDL
MODEL       32
REMARK 921   NORMALIZED FREE ENERGY PREDICTED BY IDOCK:   -6.78 KCAL/MOL
REMARK 922        TOTAL FREE ENERGY PREDICTED BY IDOCK:   -8.67 KCAL/MOL
REMARK 923 INTER-LIGAND FREE ENERGY PREDICTED BY IDOCK:   -8.49 KCAL/MOL
REMARK 924 INTRA-LIGAND FREE ENERGY PREDICTED BY IDOCK:   -0.18 KCAL/MOL
REMARK 927      BINDING AFFINITY PREDICTED BY RF-SCORE:    0.00 PKD
ROOT
HETATM    1  C   UNL     1      -9.340   7.340  69.008  1.00  0.00    -0.148 C  
HETATM    2  C   UNL     1     -10.524   7.758  69.872  1.00  0.00    -0.232 C  
HETATM    3  C   UNL     1     -10.883   9.189  69.679  1.00  0.00    -0.210 A  
HETATM    4  C   UNL     1     -11.506   9.855  70.733  1.00  0.00    -0.354 A  
HETATM    5  C   UNL     1     -11.921  11.168  70.614  1.00  0.00    -0.459 A  
HETATM    6  F   UNL     1     -11.739   9.209  71.883  1.00  0.00    -0.385 F  
HETATM    7  C   UNL     1     -11.695  11.861  69.429  1.00  0.00    -0.339 A  
HETATM    8  C   UNL     1      -8.136   2.718  67.394  1.00  0.00    -0.077 C  
HETATM    9  C   UNL     1     -11.078  11.193  68.350  1.00  0.00    -0.247 A  
HETATM   10  H   UNL     1      -6.359   5.222  66.526  1.00  0.00     0.000 HD 
HETATM   11  O   UNL     1     -10.794  11.923  67.225  1.00  0.00    -0.226 OA 
HETATM   12  C   UNL     1     -10.692   9.843  68.455  1.00  0.00    -0.260 A  
HETATM   13  C   UNL     1      -8.298   3.657  68.568  1.00  0.00    -0.078 C  
HETATM   14  O   UNL     1      -9.374   4.474  64.995  1.00  0.00    -0.153 OA 
HETATM   15  H   UNL     1     -10.379  11.473  66.498  1.00  0.00     0.000 HD 
HETATM   16  C   UNL     1      -7.822   3.177  66.173  1.00  0.00    -0.078 C  
HETATM   17  C   UNL     1     -10.169   9.054  67.291  1.00  0.00    -0.256 C  
HETATM   18  O   UNL     1     -10.332   9.429  66.132  1.00  0.00    -0.232 OA 
HETATM   19  C   UNL     1      -9.497   7.730  67.567  1.00  0.00    -0.170 C  
HETATM   20  C   UNL     1      -9.235   5.836  69.146  1.00  0.00    -0.135 C  
HETATM   21  H   UNL     1      -9.148   1.243  68.365  1.00  0.00     0.000 HD 
HETATM   22  C   UNL     1      -8.998   6.958  66.571  1.00  0.00    -0.150 C  
HETATM   23  C   UNL     1      -8.193   5.662  66.808  1.00  0.00    -0.105 C  
HETATM   24  C   UNL     1      -8.134   5.199  68.291  1.00  0.00    -0.087 C  
HETATM   25  O   UNL     1      -9.011   7.377  65.244  1.00  0.00    -0.372 OA 
HETATM   26  H   UNL     1      -8.661   6.836  64.546  1.00  0.00     0.000 HD 
HETATM   27  C   UNL     1      -8.533   4.462  65.893  1.00  0.00    -0.114 C  
HETATM   28  O   UNL     1      -6.854   6.020  66.381  1.00  0.00    -0.058 OA 
HETATM   29  O   UNL     1      -8.926   1.567  67.501  1.00  0.00    -0.109 OA 
ENDROOT
BRANCH   7  30
HETATM   30  N   UNL     1     -12.115  13.196  69.267  1.00  0.00    -0.265 N  
HETATM   31  O   UNL     1     -10.105  14.362  69.447  1.00  0.00    -0.098 OA 
HETATM   32  C   UNL     1     -11.332  14.333  69.391  1.00  0.00    -0.282 C  
HETATM   33  H   UNL     1     -13.098  13.341  69.036  1.00  0.00     0.000 HD 
BRANCH  32  34
HETATM   34  C   UNL     1     -12.139  15.631  69.394  1.00  0.00    -0.266 C  
BRANCH  34  35
HETATM   35  N   UNL     1     -12.779  15.875  70.704  1.00  0.00    -0.376 NA 
HETATM   36  C   UNL     1     -13.436  14.669  71.235  1.00  0.00    -0.386 C  
HETATM   37  C   UNL     1     -13.621  15.038  72.693  1.00  0.00    -0.566 C  
HETATM   38  C   UNL     1     -11.773  16.246  71.710  1.00  0.00    -0.429 C  
HETATM   39  C   UNL     1     -12.326  15.751  73.043  1.00  0.00    -0.586 C  
ENDBRANCH  34  35
ENDBRANCH  32  34
ENDBRANCH   7  30
BRANCH  16  40
HETATM   40  C   UNL     1      -6.364   2.965  65.914  1.00  0.00    -0.028 C  
HETATM   41  N   UNL     1      -5.837   3.543  64.804  1.00  0.00    -0.021 N  
HETATM   42  H2  UNL     1      -6.412   4.100  64.172  1.00  0.00     0.000 HD 
HETATM   43  H1  UNL     1      -4.843   3.398  64.627  1.00  0.00     0.000 HD 
HETATM   44  O   UNL     1      -5.643   2.259  66.612  1.00  0.00    -0.016 OA 
ENDBRANCH  16  40
BRANCH  13  45
HETATM   45  N   UNL     1      -7.532   3.330  69.794  1.00  0.00    -0.044 NA 
HETATM   46  C   UNL     1      -6.163   3.842  69.764  1.00  0.00    -0.027 C  
HETATM   47  C   UNL     1      -8.183   3.729  71.044  1.00  0.00    -0.067 C  
ENDBRANCH  13  45
TORSDOF 5
ENDMDL
MODEL       33
REMARK 921   NORMALIZED FREE ENERGY PREDICTED BY IDOCK:   -6.64 KCAL/MOL
REMARK 922        TOTAL FREE ENERGY PREDICTED BY IDOCK:   -8.49 KCAL/MOL
REMARK 923 INTER-LIGAND FREE ENERGY PREDICTED BY IDOCK:   -8.07 KCAL/MOL
REMARK 924 INTRA-LIGAND FREE ENERGY PREDICTED BY IDOCK:   -0.42 KCAL/MOL
REMARK 927      BINDING AFFINITY PREDICTED BY RF-SCORE:    0.00 PKD
ROOT
HETATM    1  C   UNL     1     -10.059   9.601  66.740  1.00  0.00    -0.301 C  
HETATM    2  C   UNL     1     -10.772   8.259  66.855  1.00  0.00    -0.179 C  
HETATM    3  C   UNL     1     -10.046   7.312  67.745  1.00  0.00    -0.225 A  
HETATM    4  C   UNL     1     -10.213   5.947  67.523  1.00  0.00    -0.190 A  
HETATM    5  C   UNL     1      -9.617   5.003  68.338  1.00  0.00    -0.195 A  
HETATM    6  F   UNL     1     -10.990   5.527  66.515  1.00  0.00    -0.324 F  
HETATM    7  C   UNL     1      -8.809   5.412  69.394  1.00  0.00    -0.105 A  
HETATM    8  C   UNL     1     -12.033  14.086  65.552  1.00  0.00    -0.384 C  
HETATM    9  C   UNL     1      -8.644   6.792  69.638  1.00  0.00    -0.133 A  
HETATM   10  H   UNL     1      -8.932  13.848  66.267  1.00  0.00     0.000 HD 
HETATM   11  O   UNL     1      -7.778   7.165  70.633  1.00  0.00    -0.091 OA 
HETATM   12  C   UNL     1      -9.283   7.755  68.833  1.00  0.00    -0.140 A  
HETATM   13  C   UNL     1     -11.700  12.681  65.105  1.00  0.00    -0.367 C  
HETATM   14  O   UNL     1     -11.392  13.924  68.704  1.00  0.00    -0.245 OA 
HETATM   15  H   UNL     1      -7.667   8.094  70.797  1.00  0.00     0.000 HD 
HETATM   16  C   UNL     1     -11.311  14.705  66.498  1.00  0.00    -0.353 C  
HETATM   17  C   UNL     1      -9.254   9.222  69.144  1.00  0.00    -0.149 C  
HETATM   18  O   UNL     1      -8.946   9.640  70.258  1.00  0.00    -0.231 OA 
HETATM   19  C   UNL     1      -9.694  10.190  68.072  1.00  0.00    -0.161 C  
HETATM   20  C   UNL     1     -11.010  10.514  65.996  1.00  0.00     0.104 C  
HETATM   21  H   UNL     1     -13.904  13.952  64.761  1.00  0.00     0.000 HD 
HETATM   22  C   UNL     1      -9.695  11.530  68.272  1.00  0.00    -0.198 C  
HETATM   23  C   UNL     1     -10.014  12.565  67.172  1.00  0.00    -0.216 C  
HETATM   24  C   UNL     1     -10.507  11.952  65.831  1.00  0.00    -0.296 C  
HETATM   25  O   UNL     1      -9.223  12.093  69.454  1.00  0.00     0.063 OA 
HETATM   26  H   UNL     1      -9.225  13.033  69.595  1.00  0.00     0.000 HD 
HETATM   27  C   UNL     1     -10.926  13.747  67.579  1.00  0.00    -0.272 C  
HETATM   28  O   UNL     1      -8.736  13.211  66.944  1.00  0.00    -0.209 OA 
HETATM   29  O   UNL     1     -13.393  14.391  65.431  1.00  0.00    -0.568 OA 
ENDROOT
BRANCH   7  30
HETATM   30  N   UNL     1      -8.196   4.478  70.254  1.00  0.00    -0.070 N  
HETATM   31  O   UNL     1     -10.029   3.573  71.374  1.00  0.00    -0.171 OA 
HETATM   32  C   UNL     1      -8.817   3.720  71.234  1.00  0.00    -0.096 C  
HETATM   33  H   UNL     1      -7.191   4.347  70.143  1.00  0.00     0.000 HD 
BRANCH  32  34
HETATM   34  C   UNL     1      -7.837   2.988  72.149  1.00  0.00    -0.055 C  
BRANCH  34  35
HETATM   35  N   UNL     1      -7.474   3.803  73.328  1.00  0.00    -0.067 NA 
HETATM   36  C   UNL     1      -6.411   4.775  73.025  1.00  0.00    -0.042 C  
HETATM   37  C   UNL     1      -6.523   5.727  74.199  1.00  0.00    -0.074 C  
HETATM   38  C   UNL     1      -8.622   4.605  73.775  1.00  0.00    -0.103 C  
HETATM   39  C   UNL     1      -8.023   5.860  74.402  1.00  0.00    -0.102 C  
ENDBRANCH  34  35
ENDBRANCH  32  34
ENDBRANCH   7  30
BRANCH  16  40
HETATM   40  C   UNL     1     -10.354  15.660  65.859  1.00  0.00    -0.350 C  
HETATM   41  N   UNL     1      -9.342  16.138  66.629  1.00  0.00    -0.225 N  
HETATM   42  H2  UNL     1      -9.239  15.856  67.604  1.00  0.00     0.000 HD 
HETATM   43  H1  UNL     1      -8.689  16.790  66.193  1.00  0.00     0.000 HD 
HETATM   44  O   UNL     1     -10.467  16.072  64.710  1.00  0.00    -0.564 OA 
ENDBRANCH  16  40
BRANCH  13  45
HETATM   45  N   UNL     1     -11.548  12.462  63.647  1.00  0.00    -0.460 NA 
HETATM   46  C   UNL     1     -10.279  11.829  63.295  1.00  0.00    -0.416 C  
HETATM   47  C   UNL     1     -12.655  11.735  63.021  1.00  0.00     0.089 C  
ENDBRANCH  13  45
TORSDOF 5
ENDMDL
MODEL       34
REMARK 921   NORMALIZED FREE ENERGY PREDICTED BY IDOCK:   -6.59 KCAL/MOL
REMARK 922        TOTAL FREE ENERGY PREDICTED BY IDOCK:   -8.41 KCAL/MOL
REMARK 923 INTER-LIGAND FREE ENERGY PREDICTED BY IDOCK:   -8.00 KCAL/MOL
REMARK 924 INTRA-LIGAND FREE ENERGY PREDICTED BY IDOCK:   -0.42 KCAL/MOL
REMARK 927      BINDING AFFINITY PREDICTED BY RF-SCORE:    0.00 PKD
ROOT
HETATM    1  C   UNL     1     -10.923  11.715  68.546  1.00  0.00    -0.264 C  
HETATM    2  C   UNL     1     -10.592  10.668  69.602  1.00  0.00    -0.260 C  
HETATM    3  C   UNL     1     -10.582   9.289  69.042  1.00  0.00    -0.225 A  
HETATM    4  C   UNL     1     -10.863   8.231  69.904  1.00  0.00    -0.213 A  
HETATM    5  C   UNL     1     -10.821   6.918  69.475  1.00  0.00    -0.287 A  
HETATM    6  F   UNL     1     -11.155   8.479  71.189  1.00  0.00    -0.257 F  
HETATM    7  C   UNL     1     -10.515   6.632  68.148  1.00  0.00    -0.214 A  
HETATM    8  C   UNL     1      -9.730  16.614  68.534  1.00  0.00    -0.244 C  
HETATM    9  C   UNL     1     -10.215   7.695  67.269  1.00  0.00    -0.272 A  
HETATM   10  H   UNL     1     -11.301  15.350  66.060  1.00  0.00     0.000 HD 
HETATM   11  O   UNL     1      -9.999   7.391  65.950  1.00  0.00    -0.320 OA 
HETATM   12  C   UNL     1     -10.218   9.031  67.715  1.00  0.00    -0.284 A  
HETATM   13  C   UNL     1     -10.513  15.494  69.180  1.00  0.00    -0.232 C  
HETATM   14  O   UNL     1      -7.880  14.988  66.460  1.00  0.00     0.133 OA 
HETATM   15  H   UNL     1      -9.796   8.106  65.358  1.00  0.00     0.000 HD 
HETATM   16  C   UNL     1      -9.413  16.580  67.231  1.00  0.00    -0.237 C  
HETATM   17  C   UNL     1      -9.764  10.174  66.857  1.00  0.00    -0.187 C  
HETATM   18  O   UNL     1      -9.084   9.995  65.849  1.00  0.00    -0.147 OA 
HETATM   19  C   UNL     1     -10.093  11.580  67.302  1.00  0.00    -0.223 C  
HETATM   20  C   UNL     1     -10.683  13.058  69.203  1.00  0.00    -0.064 C  
HETATM   21  H   UNL     1      -9.091  17.286  70.346  1.00  0.00     0.000 HD 
HETATM   22  C   UNL     1      -9.720  12.665  66.583  1.00  0.00    -0.249 C  
HETATM   23  C   UNL     1     -10.140  14.111  66.928  1.00  0.00    -0.258 C  
HETATM   24  C   UNL     1     -10.895  14.261  68.277  1.00  0.00    -0.256 C  
HETATM   25  O   UNL     1      -9.075  12.544  65.356  1.00  0.00    -0.348 OA 
HETATM   26  H   UNL     1      -8.813  13.306  64.852  1.00  0.00     0.000 HD 
HETATM   27  C   UNL     1      -9.039  15.194  66.815  1.00  0.00    -0.256 C  
HETATM   28  O   UNL     1     -11.043  14.460  65.849  1.00  0.00    -0.308 OA 
HETATM   29  O   UNL     1      -8.866  17.263  69.424  1.00  0.00     0.092 OA 
ENDROOT
BRANCH   7  30
HETATM   30  N   UNL     1     -10.450   5.306  67.679  1.00  0.00    -0.149 N  
HETATM   31  O   UNL     1      -8.237   4.736  68.138  1.00  0.00    -0.088 OA 
HETATM   32  C   UNL     1      -9.321   4.505  67.608  1.00  0.00    -0.147 C  
HETATM   33  H   UNL     1     -11.325   4.892  67.357  1.00  0.00     0.000 HD 
BRANCH  32  34
HETATM   34  C   UNL     1      -9.542   3.209  66.829  1.00  0.00     0.025 C  
BRANCH  34  35
HETATM   35  N   UNL     1      -8.809   3.209  65.545  1.00  0.00    -0.132 NA 
HETATM   36  C   UNL     1      -8.211   1.897  65.246  1.00  0.00    -0.082 C  
HETATM   37  C   UNL     1      -7.913   2.027  63.766  1.00  0.00    -0.065 C  
HETATM   38  C   UNL     1      -9.722   3.486  64.427  1.00  0.00    -0.172 C  
HETATM   39  C   UNL     1      -9.129   2.760  63.225  1.00  0.00    -0.095 C  
ENDBRANCH  34  35
ENDBRANCH  32  34
ENDBRANCH   7  30
BRANCH  16  40
HETATM   40  C   UNL     1     -10.353  17.451  66.460  1.00  0.00    -0.312 C  
HETATM   41  N   UNL     1     -11.004  18.427  67.145  1.00  0.00    -0.216 N  
HETATM   42  H2  UNL     1     -10.858  18.560  68.145  1.00  0.00     0.000 HD 
HETATM   43  H1  UNL     1     -11.645  19.020  66.618  1.00  0.00     0.000 HD 
HETATM   44  O   UNL     1     -10.605  17.296  65.269  1.00  0.00    -0.667 OA 
ENDBRANCH  16  40
BRANCH  13  45
HETATM   45  N   UNL     1     -11.715  15.881  69.956  1.00  0.00    -0.344 NA 
HETATM   46  C   UNL     1     -12.907  15.127  69.574  1.00  0.00     0.274 C  
HETATM   47  C   UNL     1     -11.544  15.833  71.411  1.00  0.00    -0.445 C  
ENDBRANCH  13  45
TORSDOF 5
ENDMDL
MODEL       35
REMARK 921   NORMALIZED FREE ENERGY PREDICTED BY IDOCK:   -6.54 KCAL/MOL
REMARK 922        TOTAL FREE ENERGY PREDICTED BY IDOCK:   -8.36 KCAL/MOL
REMARK 923 INTER-LIGAND FREE ENERGY PREDICTED BY IDOCK:   -7.57 KCAL/MOL
REMARK 924 INTRA-LIGAND FREE ENERGY PREDICTED BY IDOCK:   -0.79 KCAL/MOL
REMARK 927      BINDING AFFINITY PREDICTED BY RF-SCORE:    0.00 PKD
ROOT
HETATM    1  C   UNL     1      -9.504  13.897  67.807  1.00  0.00    -0.214 C  
HETATM    2  C   UNL     1     -10.478  13.009  68.573  1.00  0.00    -0.261 C  
HETATM    3  C   UNL     1     -10.074  11.577  68.544  1.00  0.00    -0.211 A  
HETATM    4  C   UNL     1     -11.072  10.613  68.673  1.00  0.00    -0.263 A  
HETATM    5  C   UNL     1     -10.775   9.264  68.711  1.00  0.00    -0.184 A  
HETATM    6  F   UNL     1     -12.352  10.993  68.793  1.00  0.00    -0.384 F  
HETATM    7  C   UNL     1      -9.454   8.843  68.594  1.00  0.00    -0.151 A  
HETATM    8  C   UNL     1      -8.649  18.829  68.409  1.00  0.00    -0.341 C  
HETATM    9  C   UNL     1      -8.432   9.810  68.477  1.00  0.00    -0.115 A  
HETATM   10  H   UNL     1      -6.973  17.172  66.258  1.00  0.00     0.000 HD 
HETATM   11  O   UNL     1      -7.151   9.366  68.280  1.00  0.00    -0.074 OA 
HETATM   12  C   UNL     1      -8.730  11.187  68.480  1.00  0.00    -0.161 A  
HETATM   13  C   UNL     1      -9.619  17.743  68.003  1.00  0.00    -0.291 C  
HETATM   14  O   UNL     1      -6.229  17.096  69.640  1.00  0.00    -0.236 OA 
HETATM   15  H   UNL     1      -6.464  10.016  68.202  1.00  0.00     0.000 HD 
HETATM   16  C   UNL     1      -7.324  18.661  68.285  1.00  0.00    -0.294 C  
HETATM   17  C   UNL     1      -7.670  12.247  68.505  1.00  0.00    -0.118 C  
HETATM   18  O   UNL     1      -6.513  11.995  68.833  1.00  0.00    -0.070 OA 
HETATM   19  C   UNL     1      -8.071  13.670  68.194  1.00  0.00    -0.156 C  
HETATM   20  C   UNL     1      -9.918  15.322  68.106  1.00  0.00    -0.221 C  
HETATM   21  H   UNL     1     -10.072  19.756  69.531  1.00  0.00     0.000 HD 
HETATM   22  C   UNL     1      -7.174  14.684  68.195  1.00  0.00    -0.124 C  
HETATM   23  C   UNL     1      -7.507  16.128  67.762  1.00  0.00    -0.133 C  
HETATM   24  C   UNL     1      -9.013  16.388  67.478  1.00  0.00    -0.197 C  
HETATM   25  O   UNL     1      -5.817  14.461  68.413  1.00  0.00    -0.089 OA 
HETATM   26  H   UNL     1      -5.188  15.173  68.414  1.00  0.00     0.000 HD 
HETATM   27  C   UNL     1      -6.933  17.263  68.645  1.00  0.00    -0.220 C  
HETATM   28  O   UNL     1      -6.768  16.283  66.524  1.00  0.00    -0.226 OA 
HETATM   29  O   UNL     1      -9.134  19.638  69.443  1.00  0.00    -0.144 OA 
ENDROOT
BRANCH   7  30
HETATM   30  N   UNL     1      -9.111   7.477  68.640  1.00  0.00    -0.135 N  
HETATM   31  O   UNL     1      -9.334   6.998  70.911  1.00  0.00    -0.157 OA 
HETATM   32  C   UNL     1      -8.973   6.694  69.776  1.00  0.00    -0.143 C  
HETATM   33  H   UNL     1      -8.948   7.016  67.745  1.00  0.00     0.000 HD 
BRANCH  32  34
HETATM   34  C   UNL     1      -8.360   5.323  69.499  1.00  0.00    -0.095 C  
BRANCH  34  35
HETATM   35  N   UNL     1      -8.593   4.890  68.104  1.00  0.00    -0.102 NA 
HETATM   36  C   UNL     1      -7.345   4.500  67.428  1.00  0.00    -0.073 C  
HETATM   37  C   UNL     1      -7.871   3.725  66.236  1.00  0.00    -0.089 C  
HETATM   38  C   UNL     1      -9.446   3.693  68.069  1.00  0.00    -0.161 C  
HETATM   39  C   UNL     1      -9.027   2.929  66.818  1.00  0.00    -0.174 C  
ENDBRANCH  34  35
ENDBRANCH  32  34
ENDBRANCH   7  30
BRANCH  16  40
HETATM   40  C   UNL     1      -6.838  19.365  67.058  1.00  0.00    -0.193 C  
HETATM   41  N   UNL     1      -5.594  19.053  66.611  1.00  0.00    -0.154 N  
HETATM   42  H2  UNL     1      -5.014  18.367  67.092  1.00  0.00     0.000 HD 
HETATM   43  H1  UNL     1      -5.263  19.535  65.774  1.00  0.00     0.000 HD 
HETATM   44  O   UNL     1      -7.474  20.238  66.476  1.00  0.00    -0.271 OA 
ENDBRANCH  16  40
BRANCH  13  45
HETATM   45  N   UNL     1     -10.716  18.137  67.087  1.00  0.00    -0.342 NA 
HETATM   46  C   UNL     1     -10.908  19.584  67.017  1.00  0.00    -0.427 C  
HETATM   47  C   UNL     1     -10.608  17.585  65.734  1.00  0.00    -0.174 C  
ENDBRANCH  13  45
TORSDOF 5
ENDMDL
MODEL       36
REMARK 921   NORMALIZED FREE ENERGY PREDICTED BY IDOCK:   -6.50 KCAL/MOL
REMARK 922        TOTAL FREE ENERGY PREDICTED BY IDOCK:   -8.30 KCAL/MOL
REMARK 923 INTER-LIGAND FREE ENERGY PREDICTED BY IDOCK:   -8.28 KCAL/MOL
REMARK 924 INTRA-LIGAND FREE ENERGY PREDICTED BY IDOCK:   -0.02 KCAL/MOL
REMARK 927      BINDING AFFINITY PREDICTED BY RF-SCORE:    0.00 PKD
ROOT
HETATM    1  C   UNL     1      -8.542  11.276  67.841  1.00  0.00    -0.134 C  
HETATM    2  C   UNL     1      -7.708  12.438  68.367  1.00  0.00    -0.144 C  
HETATM    3  C   UNL     1      -8.307  13.758  68.028  1.00  0.00    -0.171 A  
HETATM    4  C   UNL     1      -7.455  14.854  67.915  1.00  0.00    -0.141 A  
HETATM    5  C   UNL     1      -7.938  16.123  67.658  1.00  0.00    -0.162 A  
HETATM    6  F   UNL     1      -6.135  14.691  68.087  1.00  0.00    -0.098 F  
HETATM    7  C   UNL     1      -9.303  16.321  67.480  1.00  0.00    -0.217 A  
HETATM    8  C   UNL     1      -8.705   6.535  69.548  1.00  0.00    -0.134 C  
HETATM    9  C   UNL     1     -10.179  15.221  67.606  1.00  0.00    -0.242 A  
HETATM   10  H   UNL     1     -10.578   7.420  67.120  1.00  0.00     0.000 HD 
HETATM   11  O   UNL     1     -11.508  15.429  67.344  1.00  0.00    -0.303 OA 
HETATM   12  C   UNL     1      -9.692  13.934  67.909  1.00  0.00    -0.231 A  
HETATM   13  C   UNL     1      -7.893   7.624  68.888  1.00  0.00    -0.123 C  
HETATM   14  O   UNL     1     -11.353   8.148  70.416  1.00  0.00    -0.259 OA 
HETATM   15  H   UNL     1     -12.097  14.688  67.429  1.00  0.00     0.000 HD 
HETATM   16  C   UNL     1     -10.040   6.486  69.420  1.00  0.00    -0.198 C  
HETATM   17  C   UNL     1     -10.594  12.771  68.195  1.00  0.00    -0.229 C  
HETATM   18  O   UNL     1     -11.778  12.928  68.485  1.00  0.00    -0.300 OA 
HETATM   19  C   UNL     1      -9.995  11.384  68.200  1.00  0.00    -0.196 C  
HETATM   20  C   UNL     1      -7.936  10.025  68.441  1.00  0.00    -0.097 C  
HETATM   21  H   UNL     1      -7.177   6.088  70.816  1.00  0.00     0.000 HD 
HETATM   22  C   UNL     1     -10.742  10.282  68.449  1.00  0.00    -0.226 C  
HETATM   23  C   UNL     1     -10.207   8.837  68.341  1.00  0.00    -0.196 C  
HETATM   24  C   UNL     1      -8.678   8.731  68.088  1.00  0.00    -0.134 C  
HETATM   25  O   UNL     1     -12.119  10.358  68.642  1.00  0.00    -0.751 OA 
HETATM   26  H   UNL     1     -12.643   9.585  68.816  1.00  0.00     0.000 HD 
HETATM   27  C   UNL     1     -10.625   7.862  69.468  1.00  0.00    -0.219 C  
HETATM   28  O   UNL     1     -10.907   8.309  67.186  1.00  0.00    -0.244 OA 
HETATM   29  O   UNL     1      -8.122   6.053  70.725  1.00  0.00    -0.115 OA 
ENDROOT
BRANCH   7  30
HETATM   30  N   UNL     1      -9.833  17.602  67.228  1.00  0.00    -0.293 N  
HETATM   31  O   UNL     1     -10.683  17.360  65.071  1.00  0.00    -0.688 OA 
HETATM   32  C   UNL     1     -10.375  18.056  66.037  1.00  0.00    -0.331 C  
HETATM   33  H   UNL     1      -9.815  18.264  68.004  1.00  0.00     0.000 HD 
BRANCH  32  34
HETATM   34  C   UNL     1     -10.637  19.561  66.021  1.00  0.00    -0.491 C  
BRANCH  34  35
HETATM   35  N   UNL     1      -9.383  20.336  66.126  1.00  0.00    -0.265 NA 
HETATM   36  C   UNL     1      -9.025  20.629  67.523  1.00  0.00    -0.193 C  
HETATM   37  C   UNL     1      -7.567  21.021  67.391  1.00  0.00    -0.216 C  
HETATM   38  C   UNL     1      -8.252  19.566  65.587  1.00  0.00     0.180 C  
HETATM   39  C   UNL     1      -7.029  20.034  66.368  1.00  0.00    -0.265 C  
ENDBRANCH  34  35
ENDBRANCH  32  34
ENDBRANCH   7  30
BRANCH  16  40
HETATM   40  C   UNL     1     -10.412   5.464  68.393  1.00  0.00    -0.121 C  
HETATM   41  N   UNL     1      -9.859   4.229  68.513  1.00  0.00    -0.096 N  
HETATM   42  H2  UNL     1      -9.215   4.008  69.273  1.00  0.00     0.000 HD 
HETATM   43  H1  UNL     1     -10.113   3.533  67.813  1.00  0.00     0.000 HD 
HETATM   44  O   UNL     1     -11.136   5.696  67.431  1.00  0.00    -0.094 OA 
ENDBRANCH  16  40
BRANCH  13  45
HETATM   45  N   UNL     1      -6.744   7.191  68.057  1.00  0.00    -0.059 NA 
HETATM   46  C   UNL     1      -5.482   7.176  68.794  1.00  0.00    -0.018 C  
HETATM   47  C   UNL     1      -6.934   5.908  67.375  1.00  0.00    -0.069 C  
ENDBRANCH  13  45
TORSDOF 5
ENDMDL
MODEL       37
REMARK 921   NORMALIZED FREE ENERGY PREDICTED BY IDOCK:   -6.45 KCAL/MOL
REMARK 922        TOTAL FREE ENERGY PREDICTED BY IDOCK:   -8.23 KCAL/MOL
REMARK 923 INTER-LIGAND FREE ENERGY PREDICTED BY IDOCK:   -7.57 KCAL/MOL
REMARK 924 INTRA-LIGAND FREE ENERGY PREDICTED BY IDOCK:   -0.67 KCAL/MOL
REMARK 927      BINDING AFFINITY PREDICTED BY RF-SCORE:    0.00 PKD
ROOT
HETATM    1  C   UNL     1      -9.338  13.931  67.568  1.00  0.00    -0.217 C  
HETATM    2  C   UNL     1     -10.317  13.024  68.303  1.00  0.00    -0.256 C  
HETATM    3  C   UNL     1      -9.880  11.601  68.293  1.00  0.00    -0.199 A  
HETATM    4  C   UNL     1     -10.859  10.614  68.390  1.00  0.00    -0.237 A  
HETATM    5  C   UNL     1     -10.532   9.273  68.443  1.00  0.00    -0.246 A  
HETATM    6  F   UNL     1     -12.151  10.964  68.463  1.00  0.00    -0.371 F  
HETATM    7  C   UNL     1      -9.198   8.882  68.375  1.00  0.00    -0.140 A  
HETATM    8  C   UNL     1      -8.619  18.884  68.183  1.00  0.00    -0.316 C  
HETATM    9  C   UNL     1      -8.196   9.872  68.291  1.00  0.00    -0.109 A  
HETATM   10  H   UNL     1      -6.829  17.260  66.099  1.00  0.00     0.000 HD 
HETATM   11  O   UNL     1      -6.898   9.458  68.141  1.00  0.00    -0.063 OA 
HETATM   12  C   UNL     1      -8.526  11.242  68.278  1.00  0.00    -0.152 A  
HETATM   13  C   UNL     1      -9.549  17.775  67.746  1.00  0.00    -0.272 C  
HETATM   14  O   UNL     1      -6.206  17.212  69.505  1.00  0.00    -0.224 OA 
HETATM   15  H   UNL     1      -6.224  10.124  68.085  1.00  0.00     0.000 HD 
HETATM   16  C   UNL     1      -7.287  18.746  68.106  1.00  0.00    -0.281 C  
HETATM   17  C   UNL     1      -7.492  12.327  68.337  1.00  0.00    -0.122 C  
HETATM   18  O   UNL     1      -6.342  12.103  68.707  1.00  0.00    -0.066 OA 
HETATM   19  C   UNL     1      -7.915  13.739  68.007  1.00  0.00    -0.156 C  
HETATM   20  C   UNL     1      -9.795  15.347  67.848  1.00  0.00    -0.219 C  
HETATM   21  H   UNL     1     -10.102  19.781  69.250  1.00  0.00     0.000 HD 
HETATM   22  C   UNL     1      -7.042  14.774  68.037  1.00  0.00    -0.138 C  
HETATM   23  C   UNL     1      -7.393  16.209  67.587  1.00  0.00    -0.142 C  
HETATM   24  C   UNL     1      -8.893  16.432  67.248  1.00  0.00    -0.203 C  
HETATM   25  O   UNL     1      -5.689  14.583  68.303  1.00  0.00    -0.100 OA 
HETATM   26  H   UNL     1      -5.076  15.310  68.324  1.00  0.00     0.000 HD 
HETATM   27  C   UNL     1      -6.877  17.359  68.485  1.00  0.00    -0.203 C  
HETATM   28  O   UNL     1      -6.614  16.377  66.375  1.00  0.00    -0.181 OA 
HETATM   29  O   UNL     1      -9.159  19.684  69.196  1.00  0.00    -0.280 OA 
ENDROOT
BRANCH   7  30
HETATM   30  N   UNL     1      -8.826   7.525  68.438  1.00  0.00    -0.126 N  
HETATM   31  O   UNL     1      -9.237   6.806  66.259  1.00  0.00    -0.163 OA 
HETATM   32  C   UNL     1      -8.967   6.578  67.436  1.00  0.00    -0.110 C  
HETATM   33  H   UNL     1      -8.410   7.206  69.313  1.00  0.00     0.000 HD 
BRANCH  32  34
HETATM   34  C   UNL     1      -8.692   5.150  67.904  1.00  0.00    -0.102 C  
BRANCH  34  35
HETATM   35  N   UNL     1      -8.733   5.039  69.378  1.00  0.00    -0.090 NA 
HETATM   36  C   UNL     1     -10.062   4.639  69.868  1.00  0.00    -0.187 C  
HETATM   37  C   UNL     1      -9.746   4.191  71.281  1.00  0.00    -0.255 C  
HETATM   38  C   UNL     1      -7.813   3.991  69.844  1.00  0.00    -0.052 C  
HETATM   39  C   UNL     1      -8.430   3.447  71.129  1.00  0.00    -0.097 C  
ENDBRANCH  34  35
ENDBRANCH  32  34
ENDBRANCH   7  30
BRANCH  16  40
HETATM   40  C   UNL     1      -6.774  19.458  66.896  1.00  0.00    -0.195 C  
HETATM   41  N   UNL     1      -5.500  19.191  66.507  1.00  0.00    -0.154 N  
HETATM   42  H2  UNL     1      -4.917  18.531  67.021  1.00  0.00     0.000 HD 
HETATM   43  H1  UNL     1      -5.150  19.678  65.681  1.00  0.00     0.000 HD 
HETATM   44  O   UNL     1      -7.416  20.301  66.277  1.00  0.00    -0.270 OA 
ENDBRANCH  16  40
BRANCH  13  45
HETATM   45  N   UNL     1     -10.621  18.140  66.790  1.00  0.00    -0.333 NA 
HETATM   46  C   UNL     1     -10.720  19.581  66.569  1.00  0.00    -0.432 C  
HETATM   47  C   UNL     1     -10.553  17.445  65.502  1.00  0.00    -0.108 C  
ENDBRANCH  13  45
TORSDOF 5
ENDMDL
MODEL       38
REMARK 921   NORMALIZED FREE ENERGY PREDICTED BY IDOCK:   -6.41 KCAL/MOL
REMARK 922        TOTAL FREE ENERGY PREDICTED BY IDOCK:   -8.19 KCAL/MOL
REMARK 923 INTER-LIGAND FREE ENERGY PREDICTED BY IDOCK:   -7.77 KCAL/MOL
REMARK 924 INTRA-LIGAND FREE ENERGY PREDICTED BY IDOCK:   -0.42 KCAL/MOL
REMARK 927      BINDING AFFINITY PREDICTED BY RF-SCORE:    0.00 PKD
ROOT
HETATM    1  C   UNL     1      -8.302   8.613  67.237  1.00  0.00    -0.108 C  
HETATM    2  C   UNL     1      -7.396   9.807  67.510  1.00  0.00    -0.090 C  
HETATM    3  C   UNL     1      -8.162  11.078  67.628  1.00  0.00    -0.117 A  
HETATM    4  C   UNL     1      -7.509  12.267  67.310  1.00  0.00    -0.147 A  
HETATM    5  C   UNL     1      -8.133  13.493  67.445  1.00  0.00    -0.184 A  
HETATM    6  F   UNL     1      -6.237  12.236  66.889  1.00  0.00    -0.154 F  
HETATM    7  C   UNL     1      -9.451  13.554  67.885  1.00  0.00    -0.215 A  
HETATM    8  C   UNL     1      -7.426   3.747  68.227  1.00  0.00    -0.061 C  
HETATM    9  C   UNL     1     -10.119  12.358  68.223  1.00  0.00    -0.227 A  
HETATM   10  H   UNL     1     -10.211   4.637  66.947  1.00  0.00     0.000 HD 
HETATM   11  O   UNL     1     -11.441  12.440  68.574  1.00  0.00    -0.257 OA 
HETATM   12  C   UNL     1      -9.471  11.111  68.125  1.00  0.00    -0.180 A  
HETATM   13  C   UNL     1      -7.044   4.975  67.433  1.00  0.00    -0.066 C  
HETATM   14  O   UNL     1      -9.536   4.973  70.328  1.00  0.00    -0.157 OA 
HETATM   15  H   UNL     1     -11.890  11.635  68.802  1.00  0.00     0.000 HD 
HETATM   16  C   UNL     1      -8.680   3.564  68.666  1.00  0.00    -0.139 C  
HETATM   17  C   UNL     1     -10.090   9.834  68.610  1.00  0.00    -0.169 C  
HETATM   18  O   UNL     1     -11.041   9.832  69.388  1.00  0.00    -0.227 OA 
HETATM   19  C   UNL     1      -9.464   8.527  68.185  1.00  0.00    -0.152 C  
HETATM   20  C   UNL     1      -7.422   7.387  67.360  1.00  0.00    -0.104 C  
HETATM   21  H   UNL     1      -5.477   3.359  68.666  1.00  0.00     0.000 HD 
HETATM   22  C   UNL     1      -9.962   7.331  68.579  1.00  0.00    -0.162 C  
HETATM   23  C   UNL     1      -9.438   5.970  68.071  1.00  0.00    -0.113 C  
HETATM   24  C   UNL     1      -8.163   6.057  67.187  1.00  0.00    -0.105 C  
HETATM   25  O   UNL     1     -11.123   7.237  69.341  1.00  0.00    -0.404 OA 
HETATM   26  H   UNL     1     -11.473   6.398  69.618  1.00  0.00     0.000 HD 
HETATM   27  C   UNL     1      -9.270   4.856  69.133  1.00  0.00    -0.118 C  
HETATM   28  O   UNL     1     -10.533   5.475  67.259  1.00  0.00    -0.221 OA 
HETATM   29  O   UNL     1      -6.364   3.228  68.977  1.00  0.00    -0.028 OA 
ENDROOT
BRANCH   7  30
HETATM   30  N   UNL     1     -10.115  14.786  68.047  1.00  0.00    -0.217 N  
HETATM   31  O   UNL     1     -10.314  15.524  65.844  1.00  0.00    -0.302 OA 
HETATM   32  C   UNL     1     -10.398  15.713  67.056  1.00  0.00    -0.289 C  
HETATM   33  H   UNL     1     -10.418  15.021  68.992  1.00  0.00     0.000 HD 
BRANCH  32  34
HETATM   34  C   UNL     1     -10.909  17.047  67.598  1.00  0.00    -0.244 C  
BRANCH  34  35
HETATM   35  N   UNL     1     -10.142  18.189  67.055  1.00  0.00    -0.334 NA 
HETATM   36  C   UNL     1     -10.774  19.481  67.366  1.00  0.00    -0.467 C  
HETATM   37  C   UNL     1      -9.637  20.449  67.104  1.00  0.00    -0.587 C  
HETATM   38  C   UNL     1      -8.806  18.251  67.667  1.00  0.00    -0.256 C  
HETATM   39  C   UNL     1      -8.424  19.727  67.666  1.00  0.00    -0.361 C  
ENDBRANCH  34  35
ENDBRANCH  32  34
ENDBRANCH   7  30
BRANCH  16  40
HETATM   40  C   UNL     1      -9.394   2.604  67.769  1.00  0.00    -0.181 C  
HETATM   41  N   UNL     1      -9.537   2.958  66.464  1.00  0.00    -0.400 N  
HETATM   42  H2  UNL     1      -9.172   3.843  66.112  1.00  0.00     0.000 HD 
HETATM   43  H1  UNL     1     -10.024   2.304  65.852  1.00  0.00     0.000 HD 
HETATM   44  O   UNL     1      -9.900   1.556  68.155  1.00  0.00    -0.110 OA 
ENDBRANCH  16  40
BRANCH  13  45
HETATM   45  N   UNL     1      -6.340   4.748  66.149  1.00  0.00    -0.035 NA 
HETATM   46  C   UNL     1      -5.663   3.455  66.092  1.00  0.00    -0.018 C  
HETATM   47  C   UNL     1      -7.173   4.924  64.957  1.00  0.00    -0.064 C  
ENDBRANCH  13  45
TORSDOF 5
ENDMDL
MODEL       39
REMARK 921   NORMALIZED FREE ENERGY PREDICTED BY IDOCK:   -6.37 KCAL/MOL
REMARK 922        TOTAL FREE ENERGY PREDICTED BY IDOCK:   -8.13 KCAL/MOL
REMARK 923 INTER-LIGAND FREE ENERGY PREDICTED BY IDOCK:   -7.51 KCAL/MOL
REMARK 924 INTRA-LIGAND FREE ENERGY PREDICTED BY IDOCK:   -0.62 KCAL/MOL
REMARK 927      BINDING AFFINITY PREDICTED BY RF-SCORE:    0.00 PKD
ROOT
HETATM    1  C   UNL     1      -8.994  10.589  68.942  1.00  0.00    -0.175 C  
HETATM    2  C   UNL     1     -10.010  11.636  68.502  1.00  0.00    -0.198 C  
HETATM    3  C   UNL     1      -9.378  12.960  68.248  1.00  0.00    -0.194 A  
HETATM    4  C   UNL     1     -10.164  14.100  68.401  1.00  0.00    -0.247 A  
HETATM    5  C   UNL     1      -9.668  15.362  68.132  1.00  0.00    -0.212 A  
HETATM    6  F   UNL     1     -11.441  13.981  68.789  1.00  0.00    -0.251 F  
HETATM    7  C   UNL     1      -8.347  15.514  67.722  1.00  0.00    -0.146 A  
HETATM    8  C   UNL     1      -9.314   5.574  68.534  1.00  0.00    -0.121 C  
HETATM    9  C   UNL     1      -7.545  14.366  67.551  1.00  0.00    -0.193 A  
HETATM   10  H   UNL     1      -6.690   6.908  69.766  1.00  0.00     0.000 HD 
HETATM   11  O   UNL     1      -6.226  14.550  67.227  1.00  0.00    -0.302 OA 
HETATM   12  C   UNL     1      -8.061  13.076  67.785  1.00  0.00    -0.168 A  
HETATM   13  C   UNL     1      -9.854   6.839  69.161  1.00  0.00    -0.157 C  
HETATM   14  O   UNL     1      -7.265   6.764  66.354  1.00  0.00    -0.069 OA 
HETATM   15  H   UNL     1      -5.686  13.777  67.111  1.00  0.00     0.000 HD 
HETATM   16  C   UNL     1      -8.031   5.477  68.153  1.00  0.00    -0.096 C  
HETATM   17  C   UNL     1      -7.293  11.825  67.476  1.00  0.00    -0.127 C  
HETATM   18  O   UNL     1      -6.317  11.835  66.728  1.00  0.00    -0.144 OA 
HETATM   19  C   UNL     1      -7.794  10.518  68.042  1.00  0.00    -0.105 C  
HETATM   20  C   UNL     1      -9.735   9.269  68.948  1.00  0.00    -0.164 C  
HETATM   21  H   UNL     1     -11.193   4.925  68.096  1.00  0.00     0.000 HD 
HETATM   22  C   UNL     1      -7.157   9.345  67.810  1.00  0.00    -0.082 C  
HETATM   23  C   UNL     1      -7.555   8.006  68.468  1.00  0.00    -0.104 C  
HETATM   24  C   UNL     1      -8.865   8.057  69.301  1.00  0.00    -0.141 C  
HETATM   25  O   UNL     1      -5.964   9.289  67.096  1.00  0.00    -0.048 OA 
HETATM   26  H   UNL     1      -5.517   8.466  66.933  1.00  0.00     0.000 HD 
HETATM   27  C   UNL     1      -7.563   6.761  67.547  1.00  0.00    -0.106 C  
HETATM   28  O   UNL     1      -6.446   7.733  69.362  1.00  0.00    -0.034 OA 
HETATM   29  O   UNL     1     -10.285   4.856  67.826  1.00  0.00    -0.135 OA 
ENDROOT
BRANCH   7  30
HETATM   30  N   UNL     1      -7.811  16.783  67.428  1.00  0.00    -0.165 N  
HETATM   31  O   UNL     1      -6.813  17.370  69.451  1.00  0.00    -0.233 OA 
HETATM   32  C   UNL     1      -7.191  17.649  68.315  1.00  0.00    -0.227 C  
HETATM   33  H   UNL     1      -7.888  17.098  66.461  1.00  0.00     0.000 HD 
BRANCH  32  34
HETATM   34  C   UNL     1      -6.941  19.040  67.735  1.00  0.00    -0.215 C  
BRANCH  34  35
HETATM   35  N   UNL     1      -8.202  19.787  67.540  1.00  0.00    -0.302 NA 
HETATM   36  C   UNL     1      -8.760  19.595  66.192  1.00  0.00    -0.333 C  
HETATM   37  C   UNL     1     -10.185  20.074  66.379  1.00  0.00    -0.598 C  
HETATM   38  C   UNL     1      -9.238  19.303  68.464  1.00  0.00    -0.382 C  
HETATM   39  C   UNL     1     -10.564  19.527  67.745  1.00  0.00    -0.542 C  
ENDBRANCH  34  35
ENDBRANCH  32  34
ENDBRANCH   7  30
BRANCH  16  40
HETATM   40  C   UNL     1      -7.256   4.716  69.180  1.00  0.00    -0.052 C  
HETATM   41  N   UNL     1      -5.907   4.883  69.194  1.00  0.00    -0.016 N  
HETATM   42  H2  UNL     1      -5.443   5.503  68.531  1.00  0.00     0.000 HD 
HETATM   43  H1  UNL     1      -5.378   4.363  69.894  1.00  0.00     0.000 HD 
HETATM   44  O   UNL     1      -7.760   3.917  69.962  1.00  0.00    -0.048 OA 
ENDBRANCH  16  40
BRANCH  13  45
HETATM   45  N   UNL     1     -10.579   6.691  70.445  1.00  0.00    -0.214 NA 
HETATM   46  C   UNL     1     -12.031   6.711  70.284  1.00  0.00    -0.240 C  
HETATM   47  C   UNL     1     -10.185   5.523  71.238  1.00  0.00    -0.222 C  
ENDBRANCH  13  45
TORSDOF 5
ENDMDL
MODEL       40
REMARK 921   NORMALIZED FREE ENERGY PREDICTED BY IDOCK:   -6.37 KCAL/MOL
REMARK 922        TOTAL FREE ENERGY PREDICTED BY IDOCK:   -8.13 KCAL/MOL
REMARK 923 INTER-LIGAND FREE ENERGY PREDICTED BY IDOCK:   -7.18 KCAL/MOL
REMARK 924 INTRA-LIGAND FREE ENERGY PREDICTED BY IDOCK:   -0.95 KCAL/MOL
REMARK 927      BINDING AFFINITY PREDICTED BY RF-SCORE:    0.00 PKD
ROOT
HETATM    1  C   UNL     1      -9.293   9.343  69.839  1.00  0.00    -0.234 C  
HETATM    2  C   UNL     1     -10.429  10.104  69.167  1.00  0.00    -0.242 C  
HETATM    3  C   UNL     1      -9.955  11.348  68.501  1.00  0.00    -0.203 A  
HETATM    4  C   UNL     1     -10.860  12.398  68.354  1.00  0.00    -0.238 A  
HETATM    5  C   UNL     1     -10.515  13.564  67.700  1.00  0.00    -0.239 A  
HETATM    6  F   UNL     1     -12.107  12.273  68.831  1.00  0.00    -0.329 F  
HETATM    7  C   UNL     1      -9.229  13.718  67.191  1.00  0.00    -0.243 A  
HETATM    8  C   UNL     1      -9.061   4.429  70.943  1.00  0.00    -0.129 C  
HETATM    9  C   UNL     1      -8.308  12.657  67.320  1.00  0.00    -0.189 A  
HETATM   10  H   UNL     1      -6.575   6.325  71.581  1.00  0.00     0.000 HD 
HETATM   11  O   UNL     1      -7.025  12.867  66.884  1.00  0.00    -0.377 OA 
HETATM   12  C   UNL     1      -8.671  11.451  67.952  1.00  0.00    -0.145 A  
HETATM   13  C   UNL     1      -9.723   5.763  71.199  1.00  0.00    -0.169 C  
HETATM   14  O   UNL     1      -7.208   5.112  68.399  1.00  0.00    -0.061 OA 
HETATM   15  H   UNL     1      -6.405  12.152  66.971  1.00  0.00     0.000 HD 
HETATM   16  C   UNL     1      -7.785   4.351  70.537  1.00  0.00    -0.053 C  
HETATM   17  C   UNL     1      -7.775  10.248  67.982  1.00  0.00    -0.089 C  
HETATM   18  O   UNL     1      -6.824  10.132  67.212  1.00  0.00    -0.076 OA 
HETATM   19  C   UNL     1      -8.114   9.126  68.935  1.00  0.00    -0.100 C  
HETATM   20  C   UNL     1      -9.882   8.017  70.274  1.00  0.00    -0.184 C  
HETATM   21  H   UNL     1     -10.865   3.495  70.820  1.00  0.00     0.000 HD 
HETATM   22  C   UNL     1      -7.356   8.008  69.024  1.00  0.00    -0.084 C  
HETATM   23  C   UNL     1      -7.586   6.893  70.067  1.00  0.00    -0.099 C  
HETATM   24  C   UNL     1      -8.874   7.060  70.919  1.00  0.00    -0.148 C  
HETATM   25  O   UNL     1      -6.181   7.860  68.293  1.00  0.00    -0.043 OA 
HETATM   26  H   UNL     1      -5.649   7.075  68.355  1.00  0.00     0.000 HD 
HETATM   27  C   UNL     1      -7.477   5.436  69.555  1.00  0.00    -0.069 C  
HETATM   28  O   UNL     1      -6.434   7.011  70.939  1.00  0.00    -0.042 OA 
HETATM   29  O   UNL     1      -9.962   3.440  70.532  1.00  0.00    -0.060 OA 
ENDROOT
BRANCH   7  30
HETATM   30  N   UNL     1      -8.845  14.888  66.507  1.00  0.00    -0.414 N  
HETATM   31  O   UNL     1      -7.359  15.866  68.013  1.00  0.00    -0.122 OA 
HETATM   32  C   UNL     1      -8.043  15.908  66.993  1.00  0.00    -0.230 C  
HETATM   33  H   UNL     1      -9.194  14.996  65.554  1.00  0.00     0.000 HD 
BRANCH  32  34
HETATM   34  C   UNL     1      -8.016  17.143  66.094  1.00  0.00    -0.262 C  
BRANCH  34  35
HETATM   35  N   UNL     1      -8.946  18.189  66.570  1.00  0.00    -0.303 NA 
HETATM   36  C   UNL     1      -8.458  19.545  66.271  1.00  0.00    -0.352 C  
HETATM   37  C   UNL     1      -9.717  20.370  66.451  1.00  0.00    -0.400 C  
HETATM   38  C   UNL     1     -10.242  18.080  65.885  1.00  0.00    -0.229 C  
HETATM   39  C   UNL     1     -10.799  19.499  65.837  1.00  0.00    -0.426 C  
ENDBRANCH  34  35
ENDBRANCH  32  34
ENDBRANCH   7  30
BRANCH  16  40
HETATM   40  C   UNL     1      -6.905   4.012  71.698  1.00  0.00    -0.030 C  
HETATM   41  N   UNL     1      -5.595   4.363  71.612  1.00  0.00    -0.011 N  
HETATM   42  H2  UNL     1      -5.227   4.839  70.788  1.00  0.00     0.000 HD 
HETATM   43  H1  UNL     1      -4.995   4.131  72.404  1.00  0.00     0.000 HD 
HETATM   44  O   UNL     1      -7.287   3.392  72.685  1.00  0.00    -0.047 OA 
ENDBRANCH  16  40
BRANCH  13  45
HETATM   45  N   UNL     1     -10.398   5.933  72.508  1.00  0.00    -0.191 NA 
HETATM   46  C   UNL     1     -11.851   5.805  72.420  1.00  0.00    -0.168 C  
HETATM   47  C   UNL     1      -9.888   5.068  73.574  1.00  0.00    -0.151 C  
ENDBRANCH  13  45
TORSDOF 5
ENDMDL
MODEL       41
REMARK 921   NORMALIZED FREE ENERGY PREDICTED BY IDOCK:   -6.33 KCAL/MOL
REMARK 922        TOTAL FREE ENERGY PREDICTED BY IDOCK:   -8.08 KCAL/MOL
REMARK 923 INTER-LIGAND FREE ENERGY PREDICTED BY IDOCK:   -7.56 KCAL/MOL
REMARK 924 INTRA-LIGAND FREE ENERGY PREDICTED BY IDOCK:   -0.52 KCAL/MOL
REMARK 927      BINDING AFFINITY PREDICTED BY RF-SCORE:    0.00 PKD
ROOT
HETATM    1  C   UNL     1      -9.393  14.129  67.276  1.00  0.00    -0.225 C  
HETATM    2  C   UNL     1     -10.340  13.173  67.992  1.00  0.00    -0.240 C  
HETATM    3  C   UNL     1      -9.981  11.747  67.760  1.00  0.00    -0.198 A  
HETATM    4  C   UNL     1     -10.996  10.796  67.837  1.00  0.00    -0.289 A  
HETATM    5  C   UNL     1     -10.736   9.447  67.687  1.00  0.00    -0.295 A  
HETATM    6  F   UNL     1     -12.254  11.184  68.089  1.00  0.00    -0.281 F  
HETATM    7  C   UNL     1      -9.438   9.016  67.429  1.00  0.00    -0.144 A  
HETATM    8  C   UNL     1      -8.358  18.928  68.421  1.00  0.00    -0.347 C  
HETATM    9  C   UNL     1      -8.399   9.969  67.363  1.00  0.00    -0.118 A  
HETATM   10  H   UNL     1      -6.874  17.518  65.973  1.00  0.00     0.000 HD 
HETATM   11  O   UNL     1      -7.147   9.526  67.026  1.00  0.00    -0.084 OA 
HETATM   12  C   UNL     1      -8.656  11.340  67.556  1.00  0.00    -0.134 A  
HETATM   13  C   UNL     1      -9.384  17.922  67.952  1.00  0.00    -0.271 C  
HETATM   14  O   UNL     1      -5.914  17.006  69.261  1.00  0.00    -0.179 OA 
HETATM   15  H   UNL     1      -6.448  10.167  66.982  1.00  0.00     0.000 HD 
HETATM   16  C   UNL     1      -7.049  18.750  68.187  1.00  0.00    -0.269 C  
HETATM   17  C   UNL     1      -7.566  12.367  67.639  1.00  0.00    -0.141 C  
HETATM   18  O   UNL     1      -6.398  12.052  67.853  1.00  0.00    -0.060 OA 
HETATM   19  C   UNL     1      -7.945  13.826  67.534  1.00  0.00    -0.190 C  
HETATM   20  C   UNL     1      -9.745  15.514  67.776  1.00  0.00    -0.211 C  
HETATM   21  H   UNL     1      -9.677  19.738  69.743  1.00  0.00     0.000 HD 
HETATM   22  C   UNL     1      -7.021  14.813  67.598  1.00  0.00    -0.182 C  
HETATM   23  C   UNL     1      -7.339  16.307  67.370  1.00  0.00    -0.163 C  
HETATM   24  C   UNL     1      -8.852  16.631  67.224  1.00  0.00    -0.206 C  
HETATM   25  O   UNL     1      -5.660  14.537  67.694  1.00  0.00    -0.312 OA 
HETATM   26  H   UNL     1      -5.011  15.230  67.739  1.00  0.00     0.000 HD 
HETATM   27  C   UNL     1      -6.676  17.310  68.345  1.00  0.00    -0.181 C  
HETATM   28  O   UNL     1      -6.679  16.599  66.113  1.00  0.00    -0.082 OA 
HETATM   29  O   UNL     1      -8.750  19.612  69.578  1.00  0.00    -0.005 OA 
ENDROOT
BRANCH   7  30
HETATM   30  N   UNL     1      -9.134   7.648  67.284  1.00  0.00    -0.126 N  
HETATM   31  O   UNL     1      -8.492   7.529  65.046  1.00  0.00    -0.103 OA 
HETATM   32  C   UNL     1      -8.794   6.994  66.110  1.00  0.00    -0.147 C  
HETATM   33  H   UNL     1      -9.167   7.081  68.130  1.00  0.00     0.000 HD 
BRANCH  32  34
HETATM   34  C   UNL     1      -8.762   5.473  66.249  1.00  0.00    -0.128 C  
BRANCH  34  35
HETATM   35  N   UNL     1      -8.912   4.800  64.941  1.00  0.00    -0.153 NA 
HETATM   36  C   UNL     1      -7.937   3.712  64.760  1.00  0.00    -0.090 C  
HETATM   37  C   UNL     1      -8.547   2.942  63.606  1.00  0.00    -0.086 C  
HETATM   38  C   UNL     1     -10.232   4.163  64.836  1.00  0.00    -0.204 C  
HETATM   39  C   UNL     1     -10.034   2.961  63.918  1.00  0.00    -0.161 C  
ENDBRANCH  34  35
ENDBRANCH  32  34
ENDBRANCH   7  30
BRANCH  16  40
HETATM   40  C   UNL     1      -6.624  19.592  67.026  1.00  0.00    -0.193 C  
HETATM   41  N   UNL     1      -5.367  20.106  67.056  1.00  0.00    -0.164 N  
HETATM   42  H2  UNL     1      -4.738  19.925  67.838  1.00  0.00     0.000 HD 
HETATM   43  H1  UNL     1      -5.077  20.680  66.264  1.00  0.00     0.000 HD 
HETATM   44  O   UNL     1      -7.360  19.884  66.090  1.00  0.00    -0.270 OA 
ENDBRANCH  16  40
BRANCH  13  45
HETATM   45  N   UNL     1     -10.526  18.450  67.168  1.00  0.00    -0.398 NA 
HETATM   46  C   UNL     1     -10.697  19.894  67.313  1.00  0.00    -0.329 C  
HETATM   47  C   UNL     1     -10.508  18.093  65.747  1.00  0.00    -0.207 C  
ENDBRANCH  13  45
TORSDOF 5
ENDMDL
MODEL       42
REMARK 921   NORMALIZED FREE ENERGY PREDICTED BY IDOCK:   -6.31 KCAL/MOL
REMARK 922        TOTAL FREE ENERGY PREDICTED BY IDOCK:   -8.06 KCAL/MOL
REMARK 923 INTER-LIGAND FREE ENERGY PREDICTED BY IDOCK:   -7.64 KCAL/MOL
REMARK 924 INTRA-LIGAND FREE ENERGY PREDICTED BY IDOCK:   -0.42 KCAL/MOL
REMARK 927      BINDING AFFINITY PREDICTED BY RF-SCORE:    0.00 PKD
ROOT
HETATM    1  C   UNL     1      -8.977   7.473  70.023  1.00  0.00    -0.144 C  
HETATM    2  C   UNL     1      -7.990   8.569  69.639  1.00  0.00    -0.101 C  
HETATM    3  C   UNL     1      -8.675   9.781  69.112  1.00  0.00    -0.155 A  
HETATM    4  C   UNL     1      -7.972  10.595  68.226  1.00  0.00    -0.116 A  
HETATM    5  C   UNL     1      -8.516  11.766  67.733  1.00  0.00    -0.147 A  
HETATM    6  F   UNL     1      -6.728  10.260  67.857  1.00  0.00    -0.064 F  
HETATM    7  C   UNL     1      -9.804  12.141  68.104  1.00  0.00    -0.207 A  
HETATM    8  C   UNL     1      -8.331   3.714  73.321  1.00  0.00    -0.083 C  
HETATM    9  C   UNL     1     -10.520  11.332  69.012  1.00  0.00    -0.194 A  
HETATM   10  H   UNL     1     -11.124   4.050  71.814  1.00  0.00     0.000 HD 
HETATM   11  O   UNL     1     -11.815  11.681  69.295  1.00  0.00    -0.293 OA 
HETATM   12  C   UNL     1      -9.951  10.159  69.546  1.00  0.00    -0.257 A  
HETATM   13  C   UNL     1      -7.922   4.343  72.009  1.00  0.00    -0.098 C  
HETATM   14  O   UNL     1     -10.252   5.987  74.549  1.00  0.00    -0.295 OA 
HETATM   15  H   UNL     1     -12.297  11.136  69.906  1.00  0.00     0.000 HD 
HETATM   16  C   UNL     1      -9.568   3.873  73.814  1.00  0.00    -0.132 C  
HETATM   17  C   UNL     1     -10.616   9.351  70.621  1.00  0.00    -0.290 C  
HETATM   18  O   UNL     1     -11.523   9.814  71.309  1.00  0.00    -0.353 OA 
HETATM   19  C   UNL     1     -10.089   7.964  70.903  1.00  0.00    -0.205 C  
HETATM   20  C   UNL     1      -8.163   6.412  70.734  1.00  0.00    -0.125 C  
HETATM   21  H   UNL     1      -6.386   3.451  73.863  1.00  0.00     0.000 HD 
HETATM   22  C   UNL     1     -10.634   7.171  71.857  1.00  0.00    -0.213 C  
HETATM   23  C   UNL     1     -10.217   5.704  72.097  1.00  0.00    -0.202 C  
HETATM   24  C   UNL     1      -8.988   5.236  71.269  1.00  0.00    -0.158 C  
HETATM   25  O   UNL     1     -11.757   7.562  72.581  1.00  0.00    -0.469 OA 
HETATM   26  H   UNL     1     -12.139   7.005  73.249  1.00  0.00     0.000 HD 
HETATM   27  C   UNL     1     -10.057   5.265  73.573  1.00  0.00    -0.183 C  
HETATM   28  O   UNL     1     -11.380   4.953  71.665  1.00  0.00     0.282 OA 
HETATM   29  O   UNL     1      -7.262   3.563  74.212  1.00  0.00    -0.050 OA 
ENDROOT
BRANCH   7  30
HETATM   30  N   UNL     1     -10.386  13.334  67.632  1.00  0.00    -0.228 N  
HETATM   31  O   UNL     1     -12.156  12.534  66.344  1.00  0.00    -0.576 OA 
HETATM   32  C   UNL     1     -11.427  13.447  66.724  1.00  0.00    -0.343 C  
HETATM   33  H   UNL     1     -10.001  14.205  67.997  1.00  0.00     0.000 HD 
BRANCH  32  34
HETATM   34  C   UNL     1     -11.660  14.878  66.240  1.00  0.00    -0.233 C  
BRANCH  34  35
HETATM   35  N   UNL     1     -10.663  15.815  66.799  1.00  0.00    -0.313 NA 
HETATM   36  C   UNL     1     -10.319  16.890  65.854  1.00  0.00    -0.315 C  
HETATM   37  C   UNL     1      -9.658  17.902  66.768  1.00  0.00    -0.305 C  
HETATM   38  C   UNL     1     -11.201  16.496  67.986  1.00  0.00    -0.202 C  
HETATM   39  C   UNL     1     -10.517  17.858  68.021  1.00  0.00    -0.390 C  
ENDBRANCH  34  35
ENDBRANCH  32  34
ENDBRANCH   7  30
BRANCH  16  40
HETATM   40  C   UNL     1     -10.383   2.650  73.536  1.00  0.00    -0.127 C  
HETATM   41  N   UNL     1     -10.206   2.042  72.334  1.00  0.00    -0.155 N  
HETATM   42  H2  UNL     1      -9.544   2.405  71.649  1.00  0.00     0.000 HD 
HETATM   43  H1  UNL     1     -10.762   1.208  72.145  1.00  0.00     0.000 HD 
HETATM   44  O   UNL     1     -11.231   2.207  74.303  1.00  0.00    -0.104 OA 
ENDBRANCH  16  40
BRANCH  13  45
HETATM   45  N   UNL     1      -7.301   3.448  71.004  1.00  0.00    -0.033 NA 
HETATM   46  C   UNL     1      -8.222   3.066  69.935  1.00  0.00    -0.044 C  
HETATM   47  C   UNL     1      -6.053   3.952  70.426  1.00  0.00    -0.019 C  
ENDBRANCH  13  45
TORSDOF 5
ENDMDL
MODEL       43
REMARK 921   NORMALIZED FREE ENERGY PREDICTED BY IDOCK:   -6.30 KCAL/MOL
REMARK 922        TOTAL FREE ENERGY PREDICTED BY IDOCK:   -8.04 KCAL/MOL
REMARK 923 INTER-LIGAND FREE ENERGY PREDICTED BY IDOCK:   -7.39 KCAL/MOL
REMARK 924 INTRA-LIGAND FREE ENERGY PREDICTED BY IDOCK:   -0.65 KCAL/MOL
REMARK 927      BINDING AFFINITY PREDICTED BY RF-SCORE:    0.00 PKD
ROOT
HETATM    1  C   UNL     1      -9.465   9.835  68.202  1.00  0.00    -0.146 C  
HETATM    2  C   UNL     1     -10.545  10.897  68.036  1.00  0.00    -0.239 C  
HETATM    3  C   UNL     1      -9.978  12.272  67.990  1.00  0.00    -0.202 A  
HETATM    4  C   UNL     1     -10.787  13.328  68.406  1.00  0.00    -0.258 A  
HETATM    5  C   UNL     1     -10.355  14.639  68.343  1.00  0.00    -0.237 A  
HETATM    6  F   UNL     1     -12.026  13.080  68.853  1.00  0.00    -0.314 F  
HETATM    7  C   UNL     1      -9.074  14.924  67.878  1.00  0.00    -0.182 A  
HETATM    8  C   UNL     1      -9.651   4.970  66.892  1.00  0.00    -0.154 C  
HETATM    9  C   UNL     1      -8.251  13.865  67.441  1.00  0.00    -0.187 A  
HETATM   10  H   UNL     1      -6.986   6.176  68.167  1.00  0.00     0.000 HD 
HETATM   11  O   UNL     1      -6.967  14.166  67.067  1.00  0.00    -0.377 OA 
HETATM   12  C   UNL     1      -8.705  12.532  67.466  1.00  0.00    -0.182 A  
HETATM   13  C   UNL     1     -10.182   6.072  67.779  1.00  0.00    -0.179 C  
HETATM   14  O   UNL     1      -7.814   6.632  64.835  1.00  0.00    -0.102 OA 
HETATM   15  H   UNL     1      -6.412  13.454  66.773  1.00  0.00     0.000 HD 
HETATM   16  C   UNL     1      -8.398   5.004  66.412  1.00  0.00    -0.108 C  
HETATM   17  C   UNL     1      -7.922  11.396  66.878  1.00  0.00    -0.158 C  
HETATM   18  O   UNL     1      -7.007  11.587  66.080  1.00  0.00     0.055 OA 
HETATM   19  C   UNL     1      -8.335   9.985  67.225  1.00  0.00    -0.121 C  
HETATM   20  C   UNL     1     -10.159   8.503  68.014  1.00  0.00    -0.245 C  
HETATM   21  H   UNL     1     -11.535   4.326  66.472  1.00  0.00     0.000 HD 
HETATM   22  C   UNL     1      -7.680   8.905  66.735  1.00  0.00    -0.097 C  
HETATM   23  C   UNL     1      -7.982   7.451  67.158  1.00  0.00    -0.114 C  
HETATM   24  C   UNL     1      -9.226   7.289  68.075  1.00  0.00    -0.131 C  
HETATM   25  O   UNL     1      -6.544   9.036  65.943  1.00  0.00    -0.063 OA 
HETATM   26  H   UNL     1      -6.084   8.278  65.599  1.00  0.00     0.000 HD 
HETATM   27  C   UNL     1      -8.020   6.398  66.025  1.00  0.00    -0.115 C  
HETATM   28  O   UNL     1      -6.800   7.071  67.908  1.00  0.00    -0.071 OA 
HETATM   29  O   UNL     1     -10.649   4.350  66.132  1.00  0.00    -0.181 OA 
ENDROOT
BRANCH   7  30
HETATM   30  N   UNL     1      -8.604  16.249  67.789  1.00  0.00    -0.170 N  
HETATM   31  O   UNL     1      -9.432  16.919  65.715  1.00  0.00    -0.514 OA 
HETATM   32  C   UNL     1      -8.719  17.098  66.699  1.00  0.00    -0.252 C  
HETATM   33  H   UNL     1      -8.130  16.622  68.611  1.00  0.00     0.000 HD 
BRANCH  32  34
HETATM   34  C   UNL     1      -7.895  18.378  66.835  1.00  0.00    -0.234 C  
BRANCH  34  35
HETATM   35  N   UNL     1      -7.196  18.444  68.137  1.00  0.00    -0.253 NA 
HETATM   36  C   UNL     1      -5.745  18.636  67.979  1.00  0.00    -0.180 C  
HETATM   37  C   UNL     1      -5.343  19.088  69.369  1.00  0.00    -0.203 C  
HETATM   38  C   UNL     1      -7.661  19.601  68.916  1.00  0.00    -0.309 C  
HETATM   39  C   UNL     1      -6.473  20.017  69.777  1.00  0.00    -0.370 C  
ENDBRANCH  34  35
ENDBRANCH  32  34
ENDBRANCH   7  30
BRANCH  16  40
HETATM   40  C   UNL     1      -7.522   4.104  67.223  1.00  0.00    -0.073 C  
HETATM   41  N   UNL     1      -6.179   4.286  67.126  1.00  0.00    -0.038 N  
HETATM   42  H2  UNL     1      -5.785   5.008  66.523  1.00  0.00     0.000 HD 
HETATM   43  H1  UNL     1      -5.581   3.672  67.679  1.00  0.00     0.000 HD 
HETATM   44  O   UNL     1      -7.944   3.186  67.919  1.00  0.00    -0.073 OA 
ENDBRANCH  16  40
BRANCH  13  45
HETATM   45  N   UNL     1     -10.802   5.658  69.060  1.00  0.00    -0.242 NA 
HETATM   46  C   UNL     1      -9.820   5.265  70.068  1.00  0.00    -0.218 C  
HETATM   47  C   UNL     1     -11.733   6.635  69.631  1.00  0.00    -0.153 C  
ENDBRANCH  13  45
TORSDOF 5
ENDMDL
MODEL       44
REMARK 921   NORMALIZED FREE ENERGY PREDICTED BY IDOCK:   -6.22 KCAL/MOL
REMARK 922        TOTAL FREE ENERGY PREDICTED BY IDOCK:   -7.94 KCAL/MOL
REMARK 923 INTER-LIGAND FREE ENERGY PREDICTED BY IDOCK:   -6.98 KCAL/MOL
REMARK 924 INTRA-LIGAND FREE ENERGY PREDICTED BY IDOCK:   -0.96 KCAL/MOL
REMARK 927      BINDING AFFINITY PREDICTED BY RF-SCORE:    0.00 PKD
ROOT
HETATM    1  C   UNL     1      -7.325   9.048  68.648  1.00  0.00    -0.077 C  
HETATM    2  C   UNL     1      -6.959  10.182  69.597  1.00  0.00    -0.103 C  
HETATM    3  C   UNL     1      -7.116  11.519  68.961  1.00  0.00    -0.115 A  
HETATM    4  C   UNL     1      -6.328  12.566  69.435  1.00  0.00    -0.114 A  
HETATM    5  C   UNL     1      -6.452  13.848  68.935  1.00  0.00    -0.098 A  
HETATM    6  F   UNL     1      -5.444  12.341  70.417  1.00  0.00    -0.092 F  
HETATM    7  C   UNL     1      -7.366  14.110  67.919  1.00  0.00    -0.157 A  
HETATM    8  C   UNL     1      -8.839   4.381  69.810  1.00  0.00    -0.084 C  
HETATM    9  C   UNL     1      -8.180  13.062  67.441  1.00  0.00    -0.183 A  
HETATM   10  H   UNL     1      -8.645   5.279  66.754  1.00  0.00     0.000 HD 
HETATM   11  O   UNL     1      -9.011  13.328  66.384  1.00  0.00    -0.442 OA 
HETATM   12  C   UNL     1      -8.083  11.763  67.977  1.00  0.00    -0.145 A  
HETATM   13  C   UNL     1      -7.728   5.405  69.839  1.00  0.00    -0.080 C  
HETATM   14  O   UNL     1     -11.318   6.157  68.774  1.00  0.00    -0.344 OA 
HETATM   15  H   UNL     1      -9.560  12.623  66.063  1.00  0.00     0.000 HD 
HETATM   16  C   UNL     1      -9.776   4.397  68.849  1.00  0.00    -0.211 C  
HETATM   17  C   UNL     1      -9.026  10.657  67.604  1.00  0.00    -0.139 C  
HETATM   18  O   UNL     1     -10.105  10.884  67.062  1.00  0.00    -0.192 OA 
HETATM   19  C   UNL     1      -8.657   9.242  67.984  1.00  0.00    -0.121 C  
HETATM   20  C   UNL     1      -7.327   7.788  69.488  1.00  0.00    -0.088 C  
HETATM   21  H   UNL     1      -8.521   3.899  71.761  1.00  0.00     0.000 HD 
HETATM   22  C   UNL     1      -9.454   8.189  67.683  1.00  0.00    -0.145 C  
HETATM   23  C   UNL     1      -9.065   6.716  67.936  1.00  0.00    -0.114 C  
HETATM   24  C   UNL     1      -7.743   6.523  68.729  1.00  0.00    -0.109 C  
HETATM   25  O   UNL     1     -10.622   8.343  66.942  1.00  0.00    -0.305 OA 
HETATM   26  H   UNL     1     -11.181   7.603  66.731  1.00  0.00     0.000 HD 
HETATM   27  C   UNL     1     -10.169   5.801  68.518  1.00  0.00    -0.192 C  
HETATM   28  O   UNL     1      -8.884   6.186  66.598  1.00  0.00    -0.120 OA 
HETATM   29  O   UNL     1      -9.184   3.910  71.082  1.00  0.00    -0.111 OA 
ENDROOT
BRANCH   7  30
HETATM   30  N   UNL     1      -7.529  15.408  67.394  1.00  0.00    -0.192 N  
HETATM   31  O   UNL     1      -8.981  16.377  68.939  1.00  0.00    -0.240 OA 
HETATM   32  C   UNL     1      -8.384  16.391  67.865  1.00  0.00    -0.171 C  
HETATM   33  H   UNL     1      -6.958  15.647  66.584  1.00  0.00     0.000 HD 
BRANCH  32  34
HETATM   34  C   UNL     1      -8.499  17.595  66.932  1.00  0.00    -0.241 C  
BRANCH  34  35
HETATM   35  N   UNL     1      -8.092  18.849  67.602  1.00  0.00    -0.253 NA 
HETATM   36  C   UNL     1      -6.715  18.782  68.118  1.00  0.00    -0.224 C  
HETATM   37  C   UNL     1      -6.404  20.247  68.351  1.00  0.00    -0.337 C  
HETATM   38  C   UNL     1      -8.098  19.970  66.650  1.00  0.00    -0.315 C  
HETATM   39  C   UNL     1      -7.027  20.934  67.148  1.00  0.00    -0.426 C  
ENDBRANCH  34  35
ENDBRANCH  32  34
ENDBRANCH   7  30
BRANCH  16  40
HETATM   40  C   UNL     1      -9.460   3.362  67.818  1.00  0.00    -0.176 C  
HETATM   41  N   UNL     1      -9.924   3.573  66.558  1.00  0.00    -0.364 N  
HETATM   42  H2  UNL     1     -10.467   4.404  66.326  1.00  0.00     0.000 HD 
HETATM   43  H1  UNL     1      -9.708   2.866  65.855  1.00  0.00     0.000 HD 
HETATM   44  O   UNL     1      -8.859   2.320  68.059  1.00  0.00    -0.090 OA 
ENDBRANCH  16  40
BRANCH  13  45
HETATM   45  N   UNL     1      -6.344   4.885  69.944  1.00  0.00    -0.029 NA 
HETATM   46  C   UNL     1      -5.915   4.683  71.326  1.00  0.00    -0.017 C  
HETATM   47  C   UNL     1      -6.087   3.672  69.163  1.00  0.00    -0.028 C  
ENDBRANCH  13  45
TORSDOF 5
ENDMDL
MODEL       45
REMARK 921   NORMALIZED FREE ENERGY PREDICTED BY IDOCK:   -6.22 KCAL/MOL
REMARK 922        TOTAL FREE ENERGY PREDICTED BY IDOCK:   -7.94 KCAL/MOL
REMARK 923 INTER-LIGAND FREE ENERGY PREDICTED BY IDOCK:   -7.29 KCAL/MOL
REMARK 924 INTRA-LIGAND FREE ENERGY PREDICTED BY IDOCK:   -0.65 KCAL/MOL
REMARK 927      BINDING AFFINITY PREDICTED BY RF-SCORE:    0.00 PKD
ROOT
HETATM    1  C   UNL     1      -8.729  14.694  66.421  1.00  0.00    -0.008 C  
HETATM    2  C   UNL     1      -9.547  13.940  65.379  1.00  0.00     0.044 C  
HETATM    3  C   UNL     1      -9.797  12.527  65.777  1.00  0.00    -0.244 A  
HETATM    4  C   UNL     1      -9.999  11.589  64.766  1.00  0.00    -0.260 A  
HETATM    5  C   UNL     1     -10.291  10.269  65.052  1.00  0.00    -0.174 A  
HETATM    6  F   UNL     1      -9.940  11.971  63.482  1.00  0.00    -0.340 F  
HETATM    7  C   UNL     1     -10.363   9.847  66.376  1.00  0.00    -0.176 A  
HETATM    8  C   UNL     1      -8.559  19.665  67.245  1.00  0.00    -0.308 C  
HETATM    9  C   UNL     1     -10.174  10.790  67.408  1.00  0.00    -0.204 A  
HETATM   10  H   UNL     1      -6.876  17.684  69.096  1.00  0.00     0.000 HD 
HETATM   11  O   UNL     1     -10.169  10.332  68.700  1.00  0.00    -0.165 OA 
HETATM   12  C   UNL     1      -9.917  12.145  67.119  1.00  0.00    -0.210 A  
HETATM   13  C   UNL     1      -8.259  18.517  66.309  1.00  0.00    -0.225 C  
HETATM   14  O   UNL     1     -10.273  18.190  69.538  1.00  0.00    -0.102 OA 
HETATM   15  H   UNL     1     -10.042  10.967  69.395  1.00  0.00     0.000 HD 
HETATM   16  C   UNL     1      -8.582  19.491  68.576  1.00  0.00    -0.379 C  
HETATM   17  C   UNL     1      -9.855  13.205  68.178  1.00  0.00    -0.228 C  
HETATM   18  O   UNL     1     -10.321  13.023  69.301  1.00  0.00     0.093 OA 
HETATM   19  C   UNL     1      -9.274  14.550  67.813  1.00  0.00    -0.194 C  
HETATM   20  C   UNL     1      -8.745  16.145  65.990  1.00  0.00    -0.282 C  
HETATM   21  H   UNL     1      -9.378  20.755  65.734  1.00  0.00     0.000 HD 
HETATM   22  C   UNL     1      -9.182  15.559  68.712  1.00  0.00    -0.210 C  
HETATM   23  C   UNL     1      -8.482  16.905  68.426  1.00  0.00    -0.239 C  
HETATM   24  C   UNL     1      -8.027  17.098  66.952  1.00  0.00    -0.250 C  
HETATM   25  O   UNL     1      -9.552  15.389  70.043  1.00  0.00    -0.422 OA 
HETATM   26  H   UNL     1      -9.487  16.097  70.674  1.00  0.00     0.000 HD 
HETATM   27  C   UNL     1      -9.207  18.179  68.926  1.00  0.00    -0.157 C  
HETATM   28  O   UNL     1      -7.306  16.855  69.272  1.00  0.00    -0.238 OA 
HETATM   29  O   UNL     1      -9.395  20.633  66.676  1.00  0.00    -0.224 OA 
ENDROOT
BRANCH   7  30
HETATM   30  N   UNL     1     -10.670   8.512  66.706  1.00  0.00    -0.233 N  
HETATM   31  O   UNL     1      -8.566   7.636  67.195  1.00  0.00    -0.119 OA 
HETATM   32  C   UNL     1      -9.768   7.497  66.981  1.00  0.00    -0.198 C  
HETATM   33  H   UNL     1     -11.660   8.268  66.746  1.00  0.00     0.000 HD 
BRANCH  32  34
HETATM   34  C   UNL     1     -10.414   6.114  67.063  1.00  0.00    -0.277 C  
BRANCH  34  35
HETATM   35  N   UNL     1      -9.639   5.102  66.314  1.00  0.00    -0.154 NA 
HETATM   36  C   UNL     1      -9.197   3.992  67.174  1.00  0.00    -0.165 C  
HETATM   37  C   UNL     1      -8.831   2.937  66.150  1.00  0.00    -0.143 C  
HETATM   38  C   UNL     1     -10.470   4.482  65.272  1.00  0.00    -0.150 C  
HETATM   39  C   UNL     1      -9.926   3.066  65.105  1.00  0.00     0.203 C  
ENDBRANCH  34  35
ENDBRANCH  32  34
ENDBRANCH   7  30
BRANCH  16  40
HETATM   40  C   UNL     1      -7.301  19.983  69.171  1.00  0.00    -0.102 C  
HETATM   41  N   UNL     1      -6.889  19.405  70.330  1.00  0.00     0.120 N  
HETATM   42  H2  UNL     1      -7.432  18.666  70.775  1.00  0.00     0.000 HD 
HETATM   43  H1  UNL     1      -6.016  19.741  70.736  1.00  0.00     0.000 HD 
HETATM   44  O   UNL     1      -6.642  20.906  68.705  1.00  0.00    -0.176 OA 
ENDBRANCH  16  40
BRANCH  13  45
HETATM   45  N   UNL     1      -7.197  18.739  65.299  1.00  0.00    -0.432 NA 
HETATM   46  C   UNL     1      -7.005  20.151  64.976  1.00  0.00    -0.159 C  
HETATM   47  C   UNL     1      -5.907  18.125  65.626  1.00  0.00    -0.206 C  
ENDBRANCH  13  45
TORSDOF 5
ENDMDL
MODEL       46
REMARK 921   NORMALIZED FREE ENERGY PREDICTED BY IDOCK:   -6.17 KCAL/MOL
REMARK 922        TOTAL FREE ENERGY PREDICTED BY IDOCK:   -7.88 KCAL/MOL
REMARK 923 INTER-LIGAND FREE ENERGY PREDICTED BY IDOCK:   -7.73 KCAL/MOL
REMARK 924 INTRA-LIGAND FREE ENERGY PREDICTED BY IDOCK:   -0.14 KCAL/MOL
REMARK 927      BINDING AFFINITY PREDICTED BY RF-SCORE:    0.00 PKD
ROOT
HETATM    1  C   UNL     1      -8.885   6.603  67.971  1.00  0.00    -0.115 C  
HETATM    2  C   UNL     1     -10.029   6.685  68.974  1.00  0.00    -0.162 C  
HETATM    3  C   UNL     1     -10.400   8.091  69.290  1.00  0.00    -0.224 A  
HETATM    4  C   UNL     1     -10.976   8.352  70.532  1.00  0.00    -0.242 A  
HETATM    5  C   UNL     1     -11.398   9.621  70.881  1.00  0.00    -0.431 A  
HETATM    6  F   UNL     1     -11.156   7.352  71.406  1.00  0.00    -0.238 F  
HETATM    7  C   UNL     1     -11.228  10.677  69.991  1.00  0.00    -0.309 A  
HETATM    8  C   UNL     1      -7.746   2.817  64.843  1.00  0.00    -0.077 C  
HETATM    9  C   UNL     1     -10.659  10.422  68.725  1.00  0.00    -0.208 A  
HETATM   10  H   UNL     1      -6.014   5.497  64.798  1.00  0.00     0.000 HD 
HETATM   11  O   UNL     1     -10.427  11.493  67.902  1.00  0.00    -0.176 OA 
HETATM   12  C   UNL     1     -10.265   9.122  68.352  1.00  0.00    -0.230 A  
HETATM   13  C   UNL     1      -7.856   3.302  66.270  1.00  0.00    -0.078 C  
HETATM   14  O   UNL     1      -9.093   5.258  63.231  1.00  0.00     0.070 OA 
HETATM   15  H   UNL     1     -10.044  11.322  67.049  1.00  0.00     0.000 HD 
HETATM   16  C   UNL     1      -7.487   3.666  63.836  1.00  0.00    -0.062 C  
HETATM   17  C   UNL     1      -9.794   8.781  66.970  1.00  0.00    -0.216 C  
HETATM   18  O   UNL     1     -10.010   9.522  66.013  1.00  0.00    -0.278 OA 
HETATM   19  C   UNL     1      -9.107   7.453  66.754  1.00  0.00    -0.178 C  
HETATM   20  C   UNL     1      -8.771   5.143  67.589  1.00  0.00    -0.103 C  
HETATM   21  H   UNL     1      -8.710   1.084  65.300  1.00  0.00     0.000 HD 
HETATM   22  C   UNL     1      -8.652   7.071  65.537  1.00  0.00    -0.081 C  
HETATM   23  C   UNL     1      -7.834   5.785  65.288  1.00  0.00    -0.106 C  
HETATM   24  C   UNL     1      -7.708   4.850  66.523  1.00  0.00    -0.095 C  
HETATM   25  O   UNL     1      -8.726   7.913  64.430  1.00  0.00    -0.374 OA 
HETATM   26  H   UNL     1      -8.406   7.645  63.576  1.00  0.00     0.000 HD 
HETATM   27  C   UNL     1      -8.213   4.958  64.036  1.00  0.00    -0.122 C  
HETATM   28  O   UNL     1      -6.517   6.289  64.951  1.00  0.00    -0.036 OA 
HETATM   29  O   UNL     1      -8.528   1.684  64.587  1.00  0.00    -0.081 OA 
ENDROOT
BRANCH   7  30
HETATM   30  N   UNL     1     -11.657  11.981  70.308  1.00  0.00    -0.527 N  
HETATM   31  O   UNL     1     -13.314  11.574  71.897  1.00  0.00    -0.443 OA 
HETATM   32  C   UNL     1     -12.714  12.329  71.134  1.00  0.00    -0.243 C  
HETATM   33  H   UNL     1     -11.136  12.748  69.884  1.00  0.00     0.000 HD 
BRANCH  32  34
HETATM   34  C   UNL     1     -13.068  13.814  71.077  1.00  0.00    -0.205 C  
BRANCH  34  35
HETATM   35  N   UNL     1     -12.215  14.616  71.981  1.00  0.00    -0.325 NA 
HETATM   36  C   UNL     1     -12.273  16.053  71.669  1.00  0.00    -0.453 C  
HETATM   37  C   UNL     1     -11.701  16.664  72.933  1.00  0.00    -0.173 C  
HETATM   38  C   UNL     1     -12.680  14.498  73.371  1.00  0.00    -0.309 C  
HETATM   39  C   UNL     1     -12.308  15.818  74.039  1.00  0.00    -0.749 C  
ENDBRANCH  34  35
ENDBRANCH  32  34
ENDBRANCH   7  30
BRANCH  16  40
HETATM   40  C   UNL     1      -6.043   3.578  63.460  1.00  0.00    -0.014 C  
HETATM   41  N   UNL     1      -5.219   2.902  64.303  1.00  0.00    -0.008 N  
HETATM   42  H2  UNL     1      -5.571   2.472  65.157  1.00  0.00     0.000 HD 
HETATM   43  H1  UNL     1      -4.233   2.843  64.046  1.00  0.00     0.000 HD 
HETATM   44  O   UNL     1      -5.560   4.125  62.474  1.00  0.00    -0.009 OA 
ENDBRANCH  16  40
BRANCH  13  45
HETATM   45  N   UNL     1      -7.035   2.595  67.281  1.00  0.00    -0.044 NA 
HETATM   46  C   UNL     1      -5.923   3.402  67.778  1.00  0.00    -0.027 C  
HETATM   47  C   UNL     1      -7.794   2.048  68.409  1.00  0.00    -0.053 C  
ENDBRANCH  13  45
TORSDOF 5
ENDMDL
MODEL       47
REMARK 921   NORMALIZED FREE ENERGY PREDICTED BY IDOCK:   -6.16 KCAL/MOL
REMARK 922        TOTAL FREE ENERGY PREDICTED BY IDOCK:   -7.86 KCAL/MOL
REMARK 923 INTER-LIGAND FREE ENERGY PREDICTED BY IDOCK:   -7.58 KCAL/MOL
REMARK 924 INTRA-LIGAND FREE ENERGY PREDICTED BY IDOCK:   -0.29 KCAL/MOL
REMARK 927      BINDING AFFINITY PREDICTED BY RF-SCORE:    0.00 PKD
ROOT
HETATM    1  C   UNL     1     -10.293   9.128  67.384  1.00  0.00    -0.330 C  
HETATM    2  C   UNL     1     -10.830   7.751  67.013  1.00  0.00    -0.176 C  
HETATM    3  C   UNL     1     -10.396   6.701  67.974  1.00  0.00    -0.226 A  
HETATM    4  C   UNL     1     -10.300   5.390  67.513  1.00  0.00    -0.190 A  
HETATM    5  C   UNL     1      -9.957   4.350  68.354  1.00  0.00    -0.070 A  
HETATM    6  F   UNL     1     -10.573   5.115  66.229  1.00  0.00    -0.258 F  
HETATM    7  C   UNL     1      -9.674   4.606  69.692  1.00  0.00    -0.213 A  
HETATM    8  C   UNL     1     -12.175  13.641  66.156  1.00  0.00    -0.444 C  
HETATM    9  C   UNL     1      -9.781   5.928  70.176  1.00  0.00    -0.168 A  
HETATM   10  H   UNL     1      -9.585  13.446  68.010  1.00  0.00     0.000 HD 
HETATM   11  O   UNL     1      -9.416   6.164  71.475  1.00  0.00    -0.149 OA 
HETATM   12  C   UNL     1     -10.170   6.983  69.328  1.00  0.00    -0.193 A  
HETATM   13  C   UNL     1     -11.531  12.358  65.685  1.00  0.00    -0.367 C  
HETATM   14  O   UNL     1     -12.785  12.957  69.243  1.00  0.00     0.373 OA 
HETATM   15  H   UNL     1      -9.489   7.054  71.801  1.00  0.00     0.000 HD 
HETATM   16  C   UNL     1     -11.953  14.120  67.389  1.00  0.00    -0.439 C  
HETATM   17  C   UNL     1     -10.438   8.371  69.829  1.00  0.00    -0.220 C  
HETATM   18  O   UNL     1     -10.635   8.601  71.020  1.00  0.00    -0.203 OA 
HETATM   19  C   UNL     1     -10.542   9.490  68.820  1.00  0.00    -0.240 C  
HETATM   20  C   UNL     1     -10.985  10.107  66.460  1.00  0.00     0.063 C  
HETATM   21  H   UNL     1     -13.567  13.551  64.673  1.00  0.00     0.000 HD 
HETATM   22  C   UNL     1     -10.781  10.771  69.191  1.00  0.00    -0.227 C  
HETATM   23  C   UNL     1     -10.771  11.966  68.214  1.00  0.00    -0.223 C  
HETATM   24  C   UNL     1     -10.633  11.576  66.716  1.00  0.00    -0.289 C  
HETATM   25  O   UNL     1     -10.872  11.140  70.530  1.00  0.00    -0.256 OA 
HETATM   26  H   UNL     1     -11.039  12.038  70.791  1.00  0.00     0.000 HD 
HETATM   27  C   UNL     1     -11.903  13.007  68.386  1.00  0.00    -0.334 C  
HETATM   28  O   UNL     1      -9.591  12.710  68.611  1.00  0.00    -0.146 OA 
HETATM   29  O   UNL     1     -13.410  13.891  65.546  1.00  0.00    -0.662 OA 
ENDROOT
BRANCH   7  30
HETATM   30  N   UNL     1      -9.333   3.569  70.583  1.00  0.00    -0.146 N  
HETATM   31  O   UNL     1      -7.126   4.094  71.117  1.00  0.00    -0.035 OA 
HETATM   32  C   UNL     1      -8.086   3.327  71.136  1.00  0.00    -0.062 C  
HETATM   33  H   UNL     1     -10.082   2.930  70.847  1.00  0.00     0.000 HD 
BRANCH  32  34
HETATM   34  C   UNL     1      -7.993   1.988  71.867  1.00  0.00    -0.045 C  
BRANCH  34  35
HETATM   35  N   UNL     1      -8.946   1.913  72.995  1.00  0.00    -0.066 NA 
HETATM   36  C   UNL     1      -9.091   3.204  73.687  1.00  0.00    -0.082 C  
HETATM   37  C   UNL     1     -10.371   2.989  74.471  1.00  0.00    -0.216 C  
HETATM   38  C   UNL     1     -10.293   1.574  72.513  1.00  0.00    -0.151 C  
HETATM   39  C   UNL     1     -11.256   2.230  73.498  1.00  0.00    -0.313 C  
ENDBRANCH  34  35
ENDBRANCH  32  34
ENDBRANCH   7  30
BRANCH  16  40
HETATM   40  C   UNL     1     -10.945  15.223  67.329  1.00  0.00    -0.327 C  
HETATM   41  N   UNL     1     -10.354  15.592  68.496  1.00  0.00    -0.216 N  
HETATM   42  H2  UNL     1     -10.589  15.136  69.377  1.00  0.00     0.000 HD 
HETATM   43  H1  UNL     1      -9.667  16.345  68.454  1.00  0.00     0.000 HD 
HETATM   44  O   UNL     1     -10.669  15.840  66.306  1.00  0.00    -0.312 OA 
ENDBRANCH  16  40
BRANCH  13  45
HETATM   45  N   UNL     1     -10.804  12.410  64.394  1.00  0.00    -0.314 NA 
HETATM   46  C   UNL     1     -11.554  13.097  63.345  1.00  0.00    -0.252 C  
HETATM   47  C   UNL     1      -9.450  12.964  64.479  1.00  0.00     0.543 C  
ENDBRANCH  13  45
TORSDOF 5
ENDMDL
MODEL       48
REMARK 921   NORMALIZED FREE ENERGY PREDICTED BY IDOCK:   -6.08 KCAL/MOL
REMARK 922        TOTAL FREE ENERGY PREDICTED BY IDOCK:   -7.76 KCAL/MOL
REMARK 923 INTER-LIGAND FREE ENERGY PREDICTED BY IDOCK:   -7.43 KCAL/MOL
REMARK 924 INTRA-LIGAND FREE ENERGY PREDICTED BY IDOCK:   -0.33 KCAL/MOL
REMARK 927      BINDING AFFINITY PREDICTED BY RF-SCORE:    0.00 PKD
ROOT
HETATM    1  C   UNL     1      -7.562   9.785  68.035  1.00  0.00    -0.082 C  
HETATM    2  C   UNL     1      -6.889  10.667  69.080  1.00  0.00    -0.071 C  
HETATM    3  C   UNL     1      -7.216  12.107  68.895  1.00  0.00    -0.079 A  
HETATM    4  C   UNL     1      -6.297  13.051  69.348  1.00  0.00    -0.111 A  
HETATM    5  C   UNL     1      -6.551  14.407  69.264  1.00  0.00    -0.122 A  
HETATM    6  F   UNL     1      -5.149  12.646  69.908  1.00  0.00    -0.074 F  
HETATM    7  C   UNL     1      -7.738  14.855  68.692  1.00  0.00    -0.127 A  
HETATM    8  C   UNL     1      -8.712   4.888  68.367  1.00  0.00    -0.101 C  
HETATM    9  C   UNL     1      -8.683  13.908  68.241  1.00  0.00    -0.183 A  
HETATM   10  H   UNL     1      -9.495   6.535  65.748  1.00  0.00     0.000 HD 
HETATM   11  O   UNL     1      -9.804  14.377  67.608  1.00  0.00    -0.220 OA 
HETATM   12  C   UNL     1      -8.443  12.526  68.364  1.00  0.00    -0.125 A  
HETATM   13  C   UNL     1      -7.631   5.942  68.308  1.00  0.00    -0.090 C  
HETATM   14  O   UNL     1     -11.358   6.700  68.663  1.00  0.00    -0.201 OA 
HETATM   15  H   UNL     1     -10.441  13.740  67.305  1.00  0.00     0.000 HD 
HETATM   16  C   UNL     1      -9.908   5.083  67.790  1.00  0.00    -0.199 C  
HETATM   17  C   UNL     1      -9.477  11.490  68.035  1.00  0.00    -0.181 C  
HETATM   18  O   UNL     1     -10.669  11.775  67.939  1.00  0.00    -0.191 OA 
HETATM   19  C   UNL     1      -9.034  10.052  67.900  1.00  0.00    -0.131 C  
HETATM   20  C   UNL     1      -7.318   8.358  68.477  1.00  0.00    -0.093 C  
HETATM   21  H   UNL     1      -7.792   3.953  69.924  1.00  0.00     0.000 HD 
HETATM   22  C   UNL     1      -9.905   9.058  67.604  1.00  0.00    -0.173 C  
HETATM   23  C   UNL     1      -9.483   7.598  67.331  1.00  0.00    -0.143 C  
HETATM   24  C   UNL     1      -7.980   7.299  67.589  1.00  0.00    -0.114 C  
HETATM   25  O   UNL     1     -11.246   9.316  67.336  1.00  0.00    -0.362 OA 
HETATM   26  H   UNL     1     -11.857   8.618  67.128  1.00  0.00     0.000 HD 
HETATM   27  C   UNL     1     -10.359   6.496  67.975  1.00  0.00    -0.187 C  
HETATM   28  O   UNL     1      -9.753   7.434  65.916  1.00  0.00     0.109 OA 
HETATM   29  O   UNL     1      -8.638   4.091  69.515  1.00  0.00    -0.072 OA 
ENDROOT
BRANCH   7  30
HETATM   30  N   UNL     1      -8.036  16.229  68.600  1.00  0.00    -0.200 N  
HETATM   31  O   UNL     1      -6.079  17.205  69.405  1.00  0.00    -0.203 OA 
HETATM   32  C   UNL     1      -7.253  17.280  69.049  1.00  0.00    -0.227 C  
HETATM   33  H   UNL     1      -8.921  16.475  68.156  1.00  0.00     0.000 HD 
BRANCH  32  34
HETATM   34  C   UNL     1      -7.968  18.630  69.017  1.00  0.00    -0.134 C  
BRANCH  34  35
HETATM   35  N   UNL     1      -8.973  18.691  67.935  1.00  0.00    -0.282 NA 
HETATM   36  C   UNL     1     -10.264  19.219  68.405  1.00  0.00    -0.411 C  
HETATM   37  C   UNL     1     -10.943  19.577  67.098  1.00  0.00    -0.459 C  
HETATM   38  C   UNL     1      -8.537  19.612  66.875  1.00  0.00    -0.315 C  
HETATM   39  C   UNL     1      -9.819  20.175  66.269  1.00  0.00    -0.541 C  
ENDBRANCH  34  35
ENDBRANCH  32  34
ENDBRANCH   7  30
BRANCH  16  40
HETATM   40  C   UNL     1      -9.960   4.362  66.481  1.00  0.00    -0.223 C  
HETATM   41  N   UNL     1     -10.922   4.740  65.598  1.00  0.00    -0.875 N  
HETATM   42  H2  UNL     1     -11.582   5.485  65.821  1.00  0.00     0.000 HD 
HETATM   43  H1  UNL     1     -10.957   4.248  64.705  1.00  0.00     0.000 HD 
HETATM   44  O   UNL     1      -9.226   3.424  66.188  1.00  0.00    -0.156 OA 
ENDBRANCH  16  40
BRANCH  13  45
HETATM   45  N   UNL     1      -6.297   5.504  67.833  1.00  0.00    -0.040 NA 
HETATM   46  C   UNL     1      -6.040   5.871  66.442  1.00  0.00    -0.029 C  
HETATM   47  C   UNL     1      -5.178   5.936  68.674  1.00  0.00    -0.007 C  
ENDBRANCH  13  45
TORSDOF 5
ENDMDL
MODEL       49
REMARK 921   NORMALIZED FREE ENERGY PREDICTED BY IDOCK:   -5.94 KCAL/MOL
REMARK 922        TOTAL FREE ENERGY PREDICTED BY IDOCK:   -7.58 KCAL/MOL
REMARK 923 INTER-LIGAND FREE ENERGY PREDICTED BY IDOCK:   -8.97 KCAL/MOL
REMARK 924 INTRA-LIGAND FREE ENERGY PREDICTED BY IDOCK:    1.39 KCAL/MOL
REMARK 927      BINDING AFFINITY PREDICTED BY RF-SCORE:    0.00 PKD
ROOT
HETATM    1  C   UNL     1     -10.328   7.237  71.347  1.00  0.00    -0.212 C  
HETATM    2  C   UNL     1     -11.757   7.742  71.502  1.00  0.00    -0.312 C  
HETATM    3  C   UNL     1     -11.864   9.208  71.267  1.00  0.00    -0.396 A  
HETATM    4  C   UNL     1     -12.899   9.898  71.895  1.00  0.00    -0.429 A  
HETATM    5  C   UNL     1     -13.099  11.249  71.686  1.00  0.00    -0.513 A  
HETATM    6  F   UNL     1     -13.744   9.239  72.701  1.00  0.00    -0.466 F  
HETATM    7  C   UNL     1     -12.239  11.955  70.851  1.00  0.00    -0.249 A  
HETATM    8  C   UNL     1      -8.776   2.573  70.221  1.00  0.00    -0.071 C  
HETATM    9  C   UNL     1     -11.196  11.265  70.198  1.00  0.00    -0.067 A  
HETATM   10  H   UNL     1      -6.641   4.913  70.609  1.00  0.00     0.000 HD 
HETATM   11  O   UNL     1     -10.315  11.999  69.447  1.00  0.00    -0.420 OA 
HETATM   12  C   UNL     1     -11.015   9.879  70.378  1.00  0.00    -0.379 A  
HETATM   13  C   UNL     1      -9.464   3.484  71.212  1.00  0.00    -0.159 C  
HETATM   14  O   UNL     1      -8.450   4.525  67.680  1.00  0.00    -0.103 OA 
HETATM   15  H   UNL     1      -9.613  11.535  69.008  1.00  0.00     0.000 HD 
HETATM   16  C   UNL     1      -7.838   3.039  69.382  1.00  0.00    -0.052 C  
HETATM   17  C   UNL     1     -10.015   9.082  69.595  1.00  0.00    -0.192 C  
HETATM   18  O   UNL     1      -9.521   9.510  68.554  1.00  0.00    -0.140 OA 
HETATM   19  C   UNL     1      -9.680   7.688  70.070  1.00  0.00    -0.172 C  
HETATM   20  C   UNL     1     -10.414   5.726  71.396  1.00  0.00    -0.296 C  
HETATM   21  H   UNL     1     -10.245   1.176  70.402  1.00  0.00     0.000 HD 
HETATM   22  C   UNL     1      -8.787   6.904  69.419  1.00  0.00    -0.136 C  
HETATM   23  C   UNL     1      -8.316   5.526  69.933  1.00  0.00    -0.105 C  
HETATM   24  C   UNL     1      -9.075   5.010  71.187  1.00  0.00    -0.177 C  
HETATM   25  O   UNL     1      -8.074   7.367  68.317  1.00  0.00    -0.121 OA 
HETATM   26  H   UNL     1      -7.448   6.817  67.860  1.00  0.00     0.000 HD 
HETATM   27  C   UNL     1      -8.207   4.398  68.879  1.00  0.00    -0.079 C  
HETATM   28  O   UNL     1      -6.931   5.761  70.293  1.00  0.00    -0.054 OA 
HETATM   29  O   UNL     1      -9.581   1.505  69.808  1.00  0.00    -0.089 OA 
ENDROOT
BRANCH   7  30
HETATM   30  N   UNL     1     -12.420  13.330  70.604  1.00  0.00    -0.328 N  
HETATM   31  O   UNL     1     -12.458  13.405  68.275  1.00  0.00    -0.033 OA 
HETATM   32  C   UNL     1     -12.410  13.960  69.370  1.00  0.00    -0.197 C  
HETATM   33  H   UNL     1     -12.574  13.924  71.419  1.00  0.00     0.000 HD 
BRANCH  32  34
HETATM   34  C   UNL     1     -12.392  15.485  69.465  1.00  0.00    -0.153 C  
BRANCH  34  35
HETATM   35  N   UNL     1     -12.760  15.954  70.818  1.00  0.00    -0.390 NA 
HETATM   36  C   UNL     1     -13.949  15.261  71.343  1.00  0.00    -0.508 C  
HETATM   37  C   UNL     1     -13.862  15.581  72.822  1.00  0.00    -0.606 C  
HETATM   38  C   UNL     1     -11.684  15.663  71.777  1.00  0.00    -0.454 C  
HETATM   39  C   UNL     1     -12.377  15.462  73.120  1.00  0.00    -0.562 C  
ENDBRANCH  34  35
ENDBRANCH  32  34
ENDBRANCH   7  30
BRANCH  16  40
HETATM   40  C   UNL     1      -6.480   2.690  69.901  1.00  0.00    -0.029 C  
HETATM   41  N   UNL     1      -5.459   3.534  69.597  1.00  0.00    -0.015 N  
HETATM   42  H2  UNL     1      -5.614   4.372  69.037  1.00  0.00     0.000 HD 
HETATM   43  H1  UNL     1      -4.533   3.295  69.950  1.00  0.00     0.000 HD 
HETATM   44  O   UNL     1      -6.232   1.667  70.530  1.00  0.00    -0.022 OA 
ENDBRANCH  16  40
BRANCH  13  45
HETATM   45  N   UNL     1      -9.479   3.040  72.626  1.00  0.00    -0.101 NA 
HETATM   46  C   UNL     1      -9.993   1.683  72.792  1.00  0.00    -0.107 C  
HETATM   47  C   UNL     1      -8.196   3.172  73.321  1.00  0.00    -0.073 C  
ENDBRANCH  13  45
TORSDOF 5
ENDMDL
MODEL       50
REMARK 921   NORMALIZED FREE ENERGY PREDICTED BY IDOCK:   -5.88 KCAL/MOL
REMARK 922        TOTAL FREE ENERGY PREDICTED BY IDOCK:   -7.51 KCAL/MOL
REMARK 923 INTER-LIGAND FREE ENERGY PREDICTED BY IDOCK:   -6.92 KCAL/MOL
REMARK 924 INTRA-LIGAND FREE ENERGY PREDICTED BY IDOCK:   -0.59 KCAL/MOL
REMARK 927      BINDING AFFINITY PREDICTED BY RF-SCORE:    0.00 PKD
ROOT
HETATM    1  C   UNL     1      -9.294   9.346  66.874  1.00  0.00    -0.188 C  
HETATM    2  C   UNL     1     -10.072  10.411  66.109  1.00  0.00    -0.299 C  
HETATM    3  C   UNL     1      -9.926  11.760  66.720  1.00  0.00    -0.224 A  
HETATM    4  C   UNL     1     -10.955  12.680  66.527  1.00  0.00    -0.269 A  
HETATM    5  C   UNL     1     -10.873  13.970  67.015  1.00  0.00    -0.291 A  
HETATM    6  F   UNL     1     -12.043  12.324  65.830  1.00  0.00    -0.462 F  
HETATM    7  C   UNL     1      -9.752  14.367  67.738  1.00  0.00    -0.221 A  
HETATM    8  C   UNL     1      -7.542   4.938  65.167  1.00  0.00    -0.078 C  
HETATM    9  C   UNL     1      -8.697  13.449  67.927  1.00  0.00    -0.187 A  
HETATM   10  H   UNL     1      -6.975   5.819  68.181  1.00  0.00     0.000 HD 
HETATM   11  O   UNL     1      -7.644  13.839  68.713  1.00  0.00    -0.132 OA 
HETATM   12  C   UNL     1      -8.762  12.146  67.396  1.00  0.00    -0.177 A  
HETATM   13  C   UNL     1      -8.746   5.792  65.491  1.00  0.00    -0.138 C  
HETATM   14  O   UNL     1      -5.142   7.058  65.516  1.00  0.00    -0.022 OA 
HETATM   15  H   UNL     1      -6.934  13.221  68.840  1.00  0.00     0.000 HD 
HETATM   16  C   UNL     1      -6.381   5.094  65.821  1.00  0.00    -0.035 C  
HETATM   17  C   UNL     1      -7.608  11.190  67.447  1.00  0.00    -0.113 C  
HETATM   18  O   UNL     1      -6.461  11.573  67.667  1.00  0.00    -0.057 OA 
HETATM   19  C   UNL     1      -7.868   9.734  67.138  1.00  0.00    -0.099 C  
HETATM   20  C   UNL     1      -9.358   8.095  66.024  1.00  0.00    -0.184 C  
HETATM   21  H   UNL     1      -8.336   4.403  63.371  1.00  0.00     0.000 HD 
HETATM   22  C   UNL     1      -6.880   8.808  67.163  1.00  0.00    -0.067 C  
HETATM   23  C   UNL     1      -7.116   7.293  66.980  1.00  0.00    -0.087 C  
HETATM   24  C   UNL     1      -8.570   6.907  66.589  1.00  0.00    -0.124 C  
HETATM   25  O   UNL     1      -5.582   9.133  67.546  1.00  0.00    -0.041 OA 
HETATM   26  H   UNL     1      -4.889   8.483  67.563  1.00  0.00     0.000 HD 
HETATM   27  C   UNL     1      -6.109   6.543  66.075  1.00  0.00    -0.033 C  
HETATM   28  O   UNL     1      -6.830   6.751  68.294  1.00  0.00    -0.071 OA 
HETATM   29  O   UNL     1      -7.514   4.513  63.833  1.00  0.00    -0.057 OA 
ENDROOT
BRANCH   7  30
HETATM   30  N   UNL     1      -9.628  15.677  68.240  1.00  0.00    -0.199 N  
HETATM   31  O   UNL     1     -11.048  15.626  70.088  1.00  0.00    -0.276 OA 
HETATM   32  C   UNL     1     -10.344  16.236  69.286  1.00  0.00    -0.277 C  
HETATM   33  H   UNL     1      -8.940  16.277  67.785  1.00  0.00     0.000 HD 
BRANCH  32  34
HETATM   34  C   UNL     1     -10.145  17.745  69.423  1.00  0.00    -0.019 C  
BRANCH  34  35
HETATM   35  N   UNL     1      -9.829  18.376  68.124  1.00  0.00    -0.324 NA 
HETATM   36  C   UNL     1     -11.025  18.545  67.283  1.00  0.00    -0.131 C  
HETATM   37  C   UNL     1     -10.540  19.551  66.258  1.00  0.00    -0.580 C  
HETATM   38  C   UNL     1      -9.297  19.732  68.323  1.00  0.00    -0.329 C  
HETATM   39  C   UNL     1      -9.707  20.519  67.082  1.00  0.00    -0.581 C  
ENDBRANCH  34  35
ENDBRANCH  32  34
ENDBRANCH   7  30
BRANCH  16  40
HETATM   40  C   UNL     1      -6.241   4.031  66.863  1.00  0.00    -0.035 C  
HETATM   41  N   UNL     1      -7.109   2.987  66.809  1.00  0.00    -0.053 N  
HETATM   42  H2  UNL     1      -7.827   2.931  66.087  1.00  0.00     0.000 HD 
HETATM   43  H1  UNL     1      -7.013   2.262  67.520  1.00  0.00     0.000 HD 
HETATM   44  O   UNL     1      -5.432   4.080  67.783  1.00  0.00    -0.015 OA 
ENDBRANCH  16  40
BRANCH  13  45
HETATM   45  N   UNL     1     -10.016   5.078  65.765  1.00  0.00    -0.151 NA 
HETATM   46  C   UNL     1     -10.260   3.974  64.839  1.00  0.00    -0.200 C  
HETATM   47  C   UNL     1     -10.166   4.609  67.145  1.00  0.00    -0.095 C  
ENDBRANCH  13  45
TORSDOF 5
ENDMDL
MODEL       51
REMARK 921   NORMALIZED FREE ENERGY PREDICTED BY IDOCK:   -5.75 KCAL/MOL
REMARK 922        TOTAL FREE ENERGY PREDICTED BY IDOCK:   -7.33 KCAL/MOL
REMARK 923 INTER-LIGAND FREE ENERGY PREDICTED BY IDOCK:   -7.01 KCAL/MOL
REMARK 924 INTRA-LIGAND FREE ENERGY PREDICTED BY IDOCK:   -0.33 KCAL/MOL
REMARK 927      BINDING AFFINITY PREDICTED BY RF-SCORE:    0.00 PKD
ROOT
HETATM    1  C   UNL     1      -8.729   7.624  67.643  1.00  0.00    -0.122 C  
HETATM    2  C   UNL     1      -9.918   8.308  68.307  1.00  0.00    -0.217 C  
HETATM    3  C   UNL     1     -10.039   9.737  67.907  1.00  0.00    -0.212 A  
HETATM    4  C   UNL     1     -10.659  10.614  68.795  1.00  0.00    -0.206 A  
HETATM    5  C   UNL     1     -10.859  11.944  68.477  1.00  0.00    -0.257 A  
HETATM    6  F   UNL     1     -11.100  10.163  69.977  1.00  0.00    -0.248 F  
HETATM    7  C   UNL     1     -10.415  12.438  67.254  1.00  0.00    -0.222 A  
HETATM    8  C   UNL     1      -8.071   2.710  66.731  1.00  0.00    -0.081 C  
HETATM    9  C   UNL     1      -9.799  11.556  66.340  1.00  0.00    -0.205 A  
HETATM   10  H   UNL     1      -5.862   4.814  65.795  1.00  0.00     0.000 HD 
HETATM   11  O   UNL     1      -9.297  12.085  65.180  1.00  0.00    -0.428 OA 
HETATM   12  C   UNL     1      -9.631  10.191  66.647  1.00  0.00    -0.230 A  
HETATM   13  C   UNL     1      -8.208   3.808  67.760  1.00  0.00    -0.089 C  
HETATM   14  O   UNL     1      -8.785   4.285  64.014  1.00  0.00    -0.116 OA 
HETATM   15  H   UNL     1      -8.883  11.492  64.565  1.00  0.00     0.000 HD 
HETATM   16  C   UNL     1      -7.570   2.956  65.511  1.00  0.00    -0.077 C  
HETATM   17  C   UNL     1      -9.116   9.193  65.653  1.00  0.00    -0.219 C  
HETATM   18  O   UNL     1      -9.105   9.430  64.447  1.00  0.00    -0.217 OA 
HETATM   19  C   UNL     1      -8.681   7.838  66.158  1.00  0.00    -0.177 C  
HETATM   20  C   UNL     1      -8.863   6.151  67.966  1.00  0.00    -0.111 C  
HETATM   21  H   UNL     1      -9.384   1.526  67.740  1.00  0.00     0.000 HD 
HETATM   22  C   UNL     1      -8.204   6.881  65.325  1.00  0.00    -0.129 C  
HETATM   23  C   UNL     1      -7.629   5.531  65.805  1.00  0.00    -0.083 C  
HETATM   24  C   UNL     1      -7.790   5.264  67.327  1.00  0.00    -0.100 C  
HETATM   25  O   UNL     1      -8.021   7.119  63.966  1.00  0.00    -0.175 OA 
HETATM   26  H   UNL     1      -7.687   6.448  63.382  1.00  0.00     0.000 HD 
HETATM   27  C   UNL     1      -8.051   4.277  65.001  1.00  0.00    -0.098 C  
HETATM   28  O   UNL     1      -6.216   5.645  65.500  1.00  0.00    -0.032 OA 
HETATM   29  O   UNL     1      -9.030   1.700  66.876  1.00  0.00    -0.122 OA 
ENDROOT
BRANCH   7  30
HETATM   30  N   UNL     1     -10.613  13.784  66.890  1.00  0.00    -0.275 N  
HETATM   31  O   UNL     1      -8.550  14.736  67.411  1.00  0.00    -0.172 OA 
HETATM   32  C   UNL     1      -9.731  14.835  67.087  1.00  0.00    -0.233 C  
HETATM   33  H   UNL     1     -11.497  14.009  66.435  1.00  0.00     0.000 HD 
BRANCH  32  34
HETATM   34  C   UNL     1     -10.343  16.205  66.800  1.00  0.00    -0.291 C  
BRANCH  34  35
HETATM   35  N   UNL     1      -9.804  17.246  67.701  1.00  0.00    -0.272 NA 
HETATM   36  C   UNL     1      -8.491  17.741  67.256  1.00  0.00    -0.231 C  
HETATM   37  C   UNL     1      -8.366  19.029  68.046  1.00  0.00    -0.335 C  
HETATM   38  C   UNL     1     -10.682  18.425  67.714  1.00  0.00    -0.340 C  
HETATM   39  C   UNL     1      -9.767  19.613  67.991  1.00  0.00    -0.501 C  
ENDBRANCH  34  35
ENDBRANCH  32  34
ENDBRANCH   7  30
BRANCH  16  40
HETATM   40  C   UNL     1      -6.142   2.517  65.453  1.00  0.00    -0.023 C  
HETATM   41  N   UNL     1      -5.595   2.335  64.223  1.00  0.00    -0.009 N  
HETATM   42  H2  UNL     1      -6.136   2.493  63.373  1.00  0.00     0.000 HD 
HETATM   43  H1  UNL     1      -4.621   2.035  64.183  1.00  0.00     0.000 HD 
HETATM   44  O   UNL     1      -5.466   2.261  66.444  1.00  0.00    -0.012 OA 
ENDBRANCH  16  40
BRANCH  13  45
HETATM   45  N   UNL     1      -7.627   3.545  69.098  1.00  0.00    -0.052 NA 
HETATM   46  C   UNL     1      -6.405   4.307  69.347  1.00  0.00    -0.028 C  
HETATM   47  C   UNL     1      -8.559   3.725  70.214  1.00  0.00    -0.061 C  
ENDBRANCH  13  45
TORSDOF 5
ENDMDL
MODEL       52
REMARK 921   NORMALIZED FREE ENERGY PREDICTED BY IDOCK:   -5.63 KCAL/MOL
REMARK 922        TOTAL FREE ENERGY PREDICTED BY IDOCK:   -7.18 KCAL/MOL
REMARK 923 INTER-LIGAND FREE ENERGY PREDICTED BY IDOCK:   -6.96 KCAL/MOL
REMARK 924 INTRA-LIGAND FREE ENERGY PREDICTED BY IDOCK:   -0.22 KCAL/MOL
REMARK 927      BINDING AFFINITY PREDICTED BY RF-SCORE:    0.00 PKD
ROOT
HETATM    1  C   UNL     1      -9.453  11.170  67.114  1.00  0.00    -0.187 C  
HETATM    2  C   UNL     1     -10.437  10.033  67.362  1.00  0.00    -0.316 C  
HETATM    3  C   UNL     1      -9.757   8.793  67.826  1.00  0.00    -0.194 A  
HETATM    4  C   UNL     1     -10.369   7.571  67.557  1.00  0.00    -0.252 A  
HETATM    5  C   UNL     1      -9.830   6.378  68.001  1.00  0.00    -0.126 A  
HETATM    6  F   UNL     1     -11.522   7.540  66.875  1.00  0.00    -0.125 F  
HETATM    7  C   UNL     1      -8.636   6.382  68.715  1.00  0.00    -0.123 A  
HETATM    8  C   UNL     1     -10.351  16.131  67.165  1.00  0.00    -0.291 C  
HETATM    9  C   UNL     1      -8.014   7.614  69.007  1.00  0.00    -0.121 A  
HETATM   10  H   UNL     1      -7.391  15.052  66.652  1.00  0.00     0.000 HD 
HETATM   11  O   UNL     1      -6.798   7.583  69.639  1.00  0.00    -0.043 OA 
HETATM   12  C   UNL     1      -8.583   8.833  68.590  1.00  0.00    -0.134 A  
HETATM   13  C   UNL     1     -10.599  14.798  66.498  1.00  0.00    -0.299 C  
HETATM   14  O   UNL     1      -8.771  15.234  69.824  1.00  0.00    -0.192 OA 
HETATM   15  H   UNL     1      -6.379   8.413  69.836  1.00  0.00     0.000 HD 
HETATM   16  C   UNL     1      -9.211  16.377  67.828  1.00  0.00    -0.201 C  
HETATM   17  C   UNL     1      -8.037  10.168  69.002  1.00  0.00    -0.125 C  
HETATM   18  O   UNL     1      -7.270  10.286  69.955  1.00  0.00    -0.132 OA 
HETATM   19  C   UNL     1      -8.514  11.397  68.264  1.00  0.00    -0.154 C  
HETATM   20  C   UNL     1     -10.297  12.402  66.865  1.00  0.00    -0.240 C  
HETATM   21  H   UNL     1     -12.334  16.586  67.117  1.00  0.00     0.000 HD 
HETATM   22  C   UNL     1      -8.069  12.638  68.574  1.00  0.00    -0.082 C  
HETATM   23  C   UNL     1      -8.428  13.907  67.771  1.00  0.00    -0.183 C  
HETATM   24  C   UNL     1      -9.491  13.689  66.659  1.00  0.00    -0.285 C  
HETATM   25  O   UNL     1      -7.091  12.843  69.543  1.00  0.00    -0.325 OA 
HETATM   26  H   UNL     1      -6.778  13.714  69.761  1.00  0.00     0.000 HD 
HETATM   27  C   UNL     1      -8.776  15.169  68.596  1.00  0.00    -0.174 C  
HETATM   28  O   UNL     1      -7.171  14.271  67.146  1.00  0.00    -0.099 OA 
HETATM   29  O   UNL     1     -11.527  16.760  67.587  1.00  0.00     0.040 OA 
ENDROOT
BRANCH   7  30
HETATM   30  N   UNL     1      -8.063   5.187  69.195  1.00  0.00    -0.084 N  
HETATM   31  O   UNL     1      -8.391   5.381  71.495  1.00  0.00    -0.119 OA 
HETATM   32  C   UNL     1      -7.887   4.826  70.521  1.00  0.00    -0.062 C  
HETATM   33  H   UNL     1      -7.745   4.519  68.493  1.00  0.00     0.000 HD 
BRANCH  32  34
HETATM   34  C   UNL     1      -7.021   3.580  70.703  1.00  0.00    -0.033 C  
BRANCH  34  35
HETATM   35  N   UNL     1      -7.803   2.440  71.226  1.00  0.00    -0.043 NA 
HETATM   36  C   UNL     1      -7.958   2.496  72.689  1.00  0.00    -0.054 C  
HETATM   37  C   UNL     1      -9.098   1.523  72.913  1.00  0.00    -0.074 C  
HETATM   38  C   UNL     1      -9.171   2.461  70.687  1.00  0.00    -0.130 C  
HETATM   39  C   UNL     1     -10.042   1.814  71.759  1.00  0.00    -0.195 C  
ENDBRANCH  34  35
ENDBRANCH  32  34
ENDBRANCH   7  30
BRANCH  16  40
HETATM   40  C   UNL     1      -8.292  17.187  66.971  1.00  0.00    -0.207 C  
HETATM   41  N   UNL     1      -6.988  17.260  67.349  1.00  0.00    -0.155 N  
HETATM   42  H2  UNL     1      -6.651  16.781  68.183  1.00  0.00     0.000 HD 
HETATM   43  H1  UNL     1      -6.362  17.813  66.764  1.00  0.00     0.000 HD 
HETATM   44  O   UNL     1      -8.659  17.826  65.991  1.00  0.00    -0.497 OA 
ENDBRANCH  16  40
BRANCH  13  45
HETATM   45  N   UNL     1     -11.010  14.829  65.075  1.00  0.00    -0.389 NA 
HETATM   46  C   UNL     1     -12.291  14.168  64.837  1.00  0.00    -0.430 C  
HETATM   47  C   UNL     1     -11.022  16.164  64.472  1.00  0.00    -0.123 C  
ENDBRANCH  13  45
TORSDOF 5
ENDMDL
MODEL       53
REMARK 921   NORMALIZED FREE ENERGY PREDICTED BY IDOCK:   -5.62 KCAL/MOL
REMARK 922        TOTAL FREE ENERGY PREDICTED BY IDOCK:   -7.17 KCAL/MOL
REMARK 923 INTER-LIGAND FREE ENERGY PREDICTED BY IDOCK:   -6.84 KCAL/MOL
REMARK 924 INTRA-LIGAND FREE ENERGY PREDICTED BY IDOCK:   -0.33 KCAL/MOL
REMARK 927      BINDING AFFINITY PREDICTED BY RF-SCORE:    0.00 PKD
ROOT
HETATM    1  C   UNL     1      -8.875  10.240  68.367  1.00  0.00    -0.129 C  
HETATM    2  C   UNL     1      -8.983  11.098  67.113  1.00  0.00    -0.145 C  
HETATM    3  C   UNL     1      -8.733  12.538  67.395  1.00  0.00    -0.189 A  
HETATM    4  C   UNL     1      -9.323  13.482  66.557  1.00  0.00    -0.215 A  
HETATM    5  C   UNL     1      -9.097  14.835  66.717  1.00  0.00    -0.291 A  
HETATM    6  F   UNL     1     -10.109  13.077  65.549  1.00  0.00    -0.274 F  
HETATM    7  C   UNL     1      -8.281  15.283  67.752  1.00  0.00    -0.147 A  
HETATM    8  C   UNL     1      -7.837   5.317  68.692  1.00  0.00    -0.086 C  
HETATM    9  C   UNL     1      -7.666  14.336  68.599  1.00  0.00    -0.135 A  
HETATM   10  H   UNL     1      -8.268   7.033  71.347  1.00  0.00     0.000 HD 
HETATM   11  O   UNL     1      -6.935  14.807  69.659  1.00  0.00    -0.163 OA 
HETATM   12  C   UNL     1      -7.863  12.954  68.411  1.00  0.00    -0.133 A  
HETATM   13  C   UNL     1      -8.800   6.389  68.236  1.00  0.00    -0.115 C  
HETATM   14  O   UNL     1      -5.290   7.077  69.579  1.00  0.00    -0.014 OA 
HETATM   15  H   UNL     1      -6.521  14.170  70.229  1.00  0.00     0.000 HD 
HETATM   16  C   UNL     1      -7.023   5.511  69.741  1.00  0.00    -0.062 C  
HETATM   17  C   UNL     1      -7.117  11.913  69.192  1.00  0.00    -0.053 C  
HETATM   18  O   UNL     1      -6.088  12.183  69.807  1.00  0.00    -0.120 OA 
HETATM   19  C   UNL     1      -7.614  10.488  69.144  1.00  0.00    -0.123 C  
HETATM   20  C   UNL     1      -8.935   8.803  67.893  1.00  0.00    -0.142 C  
HETATM   21  H   UNL     1      -7.987   4.348  66.908  1.00  0.00     0.000 HD 
HETATM   22  C   UNL     1      -6.997   9.490  69.821  1.00  0.00    -0.071 C  
HETATM   23  C   UNL     1      -7.537   8.046  69.906  1.00  0.00    -0.087 C  
HETATM   24  C   UNL     1      -8.772   7.763  69.007  1.00  0.00    -0.135 C  
HETATM   25  O   UNL     1      -5.913   9.735  70.658  1.00  0.00    -0.060 OA 
HETATM   26  H   UNL     1      -5.479   9.035  71.133  1.00  0.00     0.000 HD 
HETATM   27  C   UNL     1      -6.497   6.911  69.748  1.00  0.00    -0.043 C  
HETATM   28  O   UNL     1      -7.936   7.922  71.295  1.00  0.00    -0.086 OA 
HETATM   29  O   UNL     1      -7.410   4.485  67.650  1.00  0.00    -0.068 OA 
ENDROOT
BRANCH   7  30
HETATM   30  N   UNL     1      -8.017  16.654  67.939  1.00  0.00    -0.168 N  
HETATM   31  O   UNL     1      -6.194  16.995  66.527  1.00  0.00    -0.202 OA 
HETATM   32  C   UNL     1      -6.956  17.374  67.413  1.00  0.00    -0.164 C  
HETATM   33  H   UNL     1      -8.675  17.170  68.523  1.00  0.00     0.000 HD 
BRANCH  32  34
HETATM   34  C   UNL     1      -6.823  18.778  68.000  1.00  0.00    -0.229 C  
BRANCH  34  35
HETATM   35  N   UNL     1      -7.880  19.684  67.500  1.00  0.00    -0.267 NA 
HETATM   36  C   UNL     1      -8.238  19.400  66.100  1.00  0.00    -0.311 C  
HETATM   37  C   UNL     1      -9.565  20.121  65.971  1.00  0.00    -0.380 C  
HETATM   38  C   UNL     1      -9.122  19.502  68.265  1.00  0.00    -0.342 C  
HETATM   39  C   UNL     1     -10.252  19.834  67.296  1.00  0.00    -0.570 C  
ENDBRANCH  34  35
ENDBRANCH  32  34
ENDBRANCH   7  30
BRANCH  16  40
HETATM   40  C   UNL     1      -7.585   4.832  70.949  1.00  0.00    -0.069 C  
HETATM   41  N   UNL     1      -7.016   5.121  72.148  1.00  0.00    -0.078 N  
HETATM   42  H2  UNL     1      -6.236   5.774  72.221  1.00  0.00     0.000 HD 
HETATM   43  H1  UNL     1      -7.399   4.657  72.972  1.00  0.00     0.000 HD 
HETATM   44  O   UNL     1      -8.482   3.997  70.907  1.00  0.00    -0.070 OA 
ENDBRANCH  16  40
BRANCH  13  45
HETATM   45  N   UNL     1     -10.217   5.988  68.070  1.00  0.00    -0.163 NA 
HETATM   46  C   UNL     1     -11.015   6.204  69.275  1.00  0.00    -0.381 C  
HETATM   47  C   UNL     1     -10.890   6.588  66.916  1.00  0.00    -0.357 C  
ENDBRANCH  13  45
TORSDOF 5
ENDMDL
MODEL       54
REMARK 921   NORMALIZED FREE ENERGY PREDICTED BY IDOCK:   -5.60 KCAL/MOL
REMARK 922        TOTAL FREE ENERGY PREDICTED BY IDOCK:   -7.14 KCAL/MOL
REMARK 923 INTER-LIGAND FREE ENERGY PREDICTED BY IDOCK:   -6.49 KCAL/MOL
REMARK 924 INTRA-LIGAND FREE ENERGY PREDICTED BY IDOCK:   -0.65 KCAL/MOL
REMARK 927      BINDING AFFINITY PREDICTED BY RF-SCORE:    0.00 PKD
ROOT
HETATM    1  C   UNL     1      -8.305   7.442  69.855  1.00  0.00    -0.134 C  
HETATM    2  C   UNL     1      -7.198   8.402  69.436  1.00  0.00    -0.059 C  
HETATM    3  C   UNL     1      -7.733   9.616  68.761  1.00  0.00    -0.080 A  
HETATM    4  C   UNL     1      -6.909  10.275  67.851  1.00  0.00    -0.074 A  
HETATM    5  C   UNL     1      -7.310  11.439  67.223  1.00  0.00    -0.130 A  
HETATM    6  F   UNL     1      -5.686   9.793  67.590  1.00  0.00    -0.040 F  
HETATM    7  C   UNL     1      -8.573  11.964  67.479  1.00  0.00    -0.160 A  
HETATM    8  C   UNL     1      -8.202   3.970  73.509  1.00  0.00    -0.089 C  
HETATM    9  C   UNL     1      -9.411  11.314  68.410  1.00  0.00    -0.181 A  
HETATM   10  H   UNL     1     -10.866   4.417  71.810  1.00  0.00     0.000 HD 
HETATM   11  O   UNL     1     -10.679  11.805  68.581  1.00  0.00    -0.205 OA 
HETATM   12  C   UNL     1      -8.987  10.150  69.081  1.00  0.00    -0.181 A  
HETATM   13  C   UNL     1      -7.665   4.432  72.174  1.00  0.00    -0.085 C  
HETATM   14  O   UNL     1      -9.955   6.517  74.409  1.00  0.00    -0.298 OA 
HETATM   15  H   UNL     1     -11.243  11.368  69.208  1.00  0.00     0.000 HD 
HETATM   16  C   UNL     1      -9.442   4.288  73.909  1.00  0.00    -0.119 C  
HETATM   17  C   UNL     1      -9.783   9.512  70.181  1.00  0.00    -0.246 C  
HETATM   18  O   UNL     1     -10.676  10.119  70.768  1.00  0.00    -0.282 OA 
HETATM   19  C   UNL     1      -9.409   8.115  70.618  1.00  0.00    -0.165 C  
HETATM   20  C   UNL     1      -7.637   6.383  70.706  1.00  0.00    -0.096 C  
HETATM   21  H   UNL     1      -6.323   3.582  74.191  1.00  0.00     0.000 HD 
HETATM   22  C   UNL     1     -10.078   7.469  71.603  1.00  0.00    -0.180 C  
HETATM   23  C   UNL     1      -9.819   5.999  71.999  1.00  0.00    -0.156 C  
HETATM   24  C   UNL     1      -8.599   5.345  71.293  1.00  0.00    -0.128 C  
HETATM   25  O   UNL     1     -11.194   8.029  72.219  1.00  0.00    -0.288 OA 
HETATM   26  H   UNL     1     -11.663   7.576  72.911  1.00  0.00     0.000 HD 
HETATM   27  C   UNL     1      -9.780   5.690  73.515  1.00  0.00    -0.154 C  
HETATM   28  O   UNL     1     -11.025   5.321  71.566  1.00  0.00    -0.159 OA 
HETATM   29  O   UNL     1      -7.201   3.807  74.475  1.00  0.00    -0.055 OA 
ENDROOT
BRANCH   7  30
HETATM   30  N   UNL     1      -9.010  13.155  66.868  1.00  0.00    -0.284 N  
HETATM   31  O   UNL     1      -8.233  14.777  68.352  1.00  0.00    -0.140 OA 
HETATM   32  C   UNL     1      -8.909  14.438  67.383  1.00  0.00    -0.203 C  
HETATM   33  H   UNL     1      -9.448  13.064  65.951  1.00  0.00     0.000 HD 
BRANCH  32  34
HETATM   34  C   UNL     1      -9.694  15.478  66.585  1.00  0.00    -0.247 C  
BRANCH  34  35
HETATM   35  N   UNL     1     -10.554  14.848  65.561  1.00  0.00    -0.330 NA 
HETATM   36  C   UNL     1     -11.765  14.248  66.144  1.00  0.00    -0.390 C  
HETATM   37  C   UNL     1     -12.639  14.071  64.918  1.00  0.00    -0.369 C  
HETATM   38  C   UNL     1     -11.038  15.853  64.603  1.00  0.00    -0.354 C  
HETATM   39  C   UNL     1     -12.392  15.341  64.123  1.00  0.00    -0.065 C  
ENDBRANCH  34  35
ENDBRANCH  32  34
ENDBRANCH   7  30
BRANCH  16  40
HETATM   40  C   UNL     1     -10.356   3.125  73.692  1.00  0.00    -0.146 C  
HETATM   41  N   UNL     1     -11.654   3.397  73.395  1.00  0.00    -0.052 N  
HETATM   42  H2  UNL     1     -11.990   4.357  73.323  1.00  0.00     0.000 HD 
HETATM   43  H1  UNL     1     -12.277   2.603  73.247  1.00  0.00     0.000 HD 
HETATM   44  O   UNL     1     -10.014   1.954  73.823  1.00  0.00    -0.084 OA 
ENDBRANCH  16  40
BRANCH  13  45
HETATM   45  N   UNL     1      -7.082   3.392  71.293  1.00  0.00    -0.032 NA 
HETATM   46  C   UNL     1      -5.700   3.066  71.635  1.00  0.00    -0.009 C  
HETATM   47  C   UNL     1      -7.872   2.162  71.196  1.00  0.00    -0.043 C  
ENDBRANCH  13  45
TORSDOF 5
ENDMDL
MODEL       55
REMARK 921   NORMALIZED FREE ENERGY PREDICTED BY IDOCK:   -5.54 KCAL/MOL
REMARK 922        TOTAL FREE ENERGY PREDICTED BY IDOCK:   -7.06 KCAL/MOL
REMARK 923 INTER-LIGAND FREE ENERGY PREDICTED BY IDOCK:   -7.74 KCAL/MOL
REMARK 924 INTRA-LIGAND FREE ENERGY PREDICTED BY IDOCK:    0.68 KCAL/MOL
REMARK 927      BINDING AFFINITY PREDICTED BY RF-SCORE:    0.00 PKD
ROOT
HETATM    1  C   UNL     1      -9.884   7.243  70.213  1.00  0.00    -0.179 C  
HETATM    2  C   UNL     1     -11.236   7.831  70.598  1.00  0.00    -0.278 C  
HETATM    3  C   UNL     1     -11.288   9.304  70.390  1.00  0.00    -0.283 A  
HETATM    4  C   UNL     1     -12.165  10.046  71.179  1.00  0.00    -0.380 A  
HETATM    5  C   UNL     1     -12.312  11.409  71.011  1.00  0.00    -0.448 A  
HETATM    6  F   UNL     1     -12.909   9.428  72.107  1.00  0.00    -0.396 F  
HETATM    7  C   UNL     1     -11.555  12.074  70.051  1.00  0.00    -0.195 A  
HETATM    8  C   UNL     1      -8.824   2.511  68.832  1.00  0.00    -0.100 C  
HETATM    9  C   UNL     1     -10.674  11.332  69.236  1.00  0.00    -0.179 A  
HETATM   10  H   UNL     1      -6.514   4.712  68.882  1.00  0.00     0.000 HD 
HETATM   11  O   UNL     1      -9.881  12.023  68.357  1.00  0.00    -0.207 OA 
HETATM   12  C   UNL     1     -10.553   9.936  69.379  1.00  0.00    -0.250 A  
HETATM   13  C   UNL     1      -9.287   3.447  69.925  1.00  0.00    -0.168 C  
HETATM   14  O   UNL     1      -8.788   4.476  66.280  1.00  0.00    -0.112 OA 
HETATM   15  H   UNL     1      -9.288  11.523  67.808  1.00  0.00     0.000 HD 
HETATM   16  C   UNL     1      -8.005   2.931  67.856  1.00  0.00    -0.068 C  
HETATM   17  C   UNL     1      -9.743   9.091  68.442  1.00  0.00    -0.156 C  
HETATM   18  O   UNL     1      -9.396   9.503  67.337  1.00  0.00    -0.129 OA 
HETATM   19  C   UNL     1      -9.422   7.672  68.850  1.00  0.00    -0.149 C  
HETATM   20  C   UNL     1     -10.054   5.739  70.269  1.00  0.00    -0.273 C  
HETATM   21  H   UNL     1     -10.328   1.202  69.241  1.00  0.00     0.000 HD 
HETATM   22  C   UNL     1      -8.695   6.846  68.061  1.00  0.00    -0.125 C  
HETATM   23  C   UNL     1      -8.234   5.435  68.487  1.00  0.00    -0.094 C  
HETATM   24  C   UNL     1      -8.813   4.947  69.844  1.00  0.00    -0.126 C  
HETATM   25  O   UNL     1      -8.141   7.280  66.861  1.00  0.00    -0.116 OA 
HETATM   26  H   UNL     1      -7.631   6.700  66.307  1.00  0.00     0.000 HD 
HETATM   27  C   UNL     1      -8.365   4.317  67.424  1.00  0.00    -0.099 C  
HETATM   28  O   UNL     1      -6.798   5.581  68.621  1.00  0.00    -0.055 OA 
HETATM   29  O   UNL     1      -9.749   1.499  68.549  1.00  0.00    -0.176 OA 
ENDROOT
BRANCH   7  30
HETATM   30  N   UNL     1     -11.688  13.461  69.843  1.00  0.00    -0.442 N  
HETATM   31  O   UNL     1     -12.267  13.561  67.587  1.00  0.00    -0.312 OA 
HETATM   32  C   UNL     1     -11.922  14.100  68.636  1.00  0.00    -0.338 C  
HETATM   33  H   UNL     1     -11.601  14.057  70.666  1.00  0.00     0.000 HD 
BRANCH  32  34
HETATM   34  C   UNL     1     -11.772  15.619  68.712  1.00  0.00    -0.370 C  
BRANCH  34  35
HETATM   35  N   UNL     1     -10.416  16.056  68.315  1.00  0.00    -0.260 NA 
HETATM   36  C   UNL     1      -9.440  15.898  69.405  1.00  0.00    -0.248 C  
HETATM   37  C   UNL     1      -8.125  15.990  68.655  1.00  0.00    -0.187 C  
HETATM   38  C   UNL     1      -9.907  15.227  67.212  1.00  0.00    -0.220 C  
HETATM   39  C   UNL     1      -8.392  15.207  67.381  1.00  0.00    -0.206 C  
ENDBRANCH  34  35
ENDBRANCH  32  34
ENDBRANCH   7  30
BRANCH  16  40
HETATM   40  C   UNL     1      -6.605   2.493  68.148  1.00  0.00    -0.035 C  
HETATM   41  N   UNL     1      -6.424   1.634  69.184  1.00  0.00    -0.028 N  
HETATM   42  H2  UNL     1      -7.210   1.301  69.741  1.00  0.00     0.000 HD 
HETATM   43  H1  UNL     1      -5.469   1.336  69.383  1.00  0.00     0.000 HD 
HETATM   44  O   UNL     1      -5.621   2.907  67.544  1.00  0.00    -0.017 OA 
ENDBRANCH  16  40
BRANCH  13  45
HETATM   45  N   UNL     1      -9.102   2.985  71.321  1.00  0.00    -0.099 NA 
HETATM   46  C   UNL     1     -10.023   3.624  72.259  1.00  0.00    -0.169 C  
HETATM   47  C   UNL     1      -9.148   1.531  71.494  1.00  0.00    -0.071 C  
ENDBRANCH  13  45
TORSDOF 5
ENDMDL
MODEL       56
REMARK 921   NORMALIZED FREE ENERGY PREDICTED BY IDOCK:   -5.52 KCAL/MOL
REMARK 922        TOTAL FREE ENERGY PREDICTED BY IDOCK:   -7.04 KCAL/MOL
REMARK 923 INTER-LIGAND FREE ENERGY PREDICTED BY IDOCK:   -6.79 KCAL/MOL
REMARK 924 INTRA-LIGAND FREE ENERGY PREDICTED BY IDOCK:   -0.24 KCAL/MOL
REMARK 927      BINDING AFFINITY PREDICTED BY RF-SCORE:    0.00 PKD
ROOT
HETATM    1  C   UNL     1     -10.493  10.363  68.673  1.00  0.00    -0.216 C  
HETATM    2  C   UNL     1     -10.523   9.458  69.899  1.00  0.00    -0.257 C  
HETATM    3  C   UNL     1     -10.368   8.021  69.540  1.00  0.00    -0.221 A  
HETATM    4  C   UNL     1     -10.921   7.070  70.396  1.00  0.00    -0.268 A  
HETATM    5  C   UNL     1     -10.775   5.716  70.163  1.00  0.00    -0.376 A  
HETATM    6  F   UNL     1     -11.589   7.467  71.489  1.00  0.00    -0.263 F  
HETATM    7  C   UNL     1     -10.083   5.278  69.039  1.00  0.00    -0.202 A  
HETATM    8  C   UNL     1      -9.258  15.245  68.435  1.00  0.00    -0.194 C  
HETATM    9  C   UNL     1      -9.506   6.231  68.173  1.00  0.00    -0.113 A  
HETATM   10  H   UNL     1     -10.018  13.662  65.771  1.00  0.00     0.000 HD 
HETATM   11  O   UNL     1      -8.901   5.774  67.031  1.00  0.00    -0.113 OA 
HETATM   12  C   UNL     1      -9.619   7.611  68.431  1.00  0.00    -0.155 A  
HETATM   13  C   UNL     1     -10.223  14.198  68.940  1.00  0.00    -0.175 C  
HETATM   14  O   UNL     1      -6.892  13.414  67.243  1.00  0.00    -0.146 OA 
HETATM   15  H   UNL     1      -8.513   6.415  66.448  1.00  0.00     0.000 HD 
HETATM   16  C   UNL     1      -8.557  15.060  67.307  1.00  0.00    -0.226 C  
HETATM   17  C   UNL     1      -8.902   8.650  67.621  1.00  0.00    -0.136 C  
HETATM   18  O   UNL     1      -7.949   8.362  66.901  1.00  0.00    -0.097 OA 
HETATM   19  C   UNL     1      -9.324  10.093  67.771  1.00  0.00    -0.153 C  
HETATM   20  C   UNL     1     -10.440  11.780  69.204  1.00  0.00    -0.060 C  
HETATM   21  H   UNL     1      -9.193  16.144  70.260  1.00  0.00     0.000 HD 
HETATM   22  C   UNL     1      -8.727  11.090  67.075  1.00  0.00    -0.141 C  
HETATM   23  C   UNL     1      -9.204  12.558  67.096  1.00  0.00    -0.205 C  
HETATM   24  C   UNL     1     -10.334  12.857  68.120  1.00  0.00    -0.243 C  
HETATM   25  O   UNL     1      -7.739  10.833  66.130  1.00  0.00    -0.147 OA 
HETATM   26  H   UNL     1      -7.320  11.533  65.642  1.00  0.00     0.000 HD 
HETATM   27  C   UNL     1      -8.101  13.640  67.196  1.00  0.00    -0.077 C  
HETATM   28  O   UNL     1      -9.725  12.758  65.758  1.00  0.00    -0.242 OA 
HETATM   29  O   UNL     1      -8.696  16.013  69.462  1.00  0.00    -0.216 OA 
ENDROOT
BRANCH   7  30
HETATM   30  N   UNL     1      -9.903   3.905  68.776  1.00  0.00    -0.032 N  
HETATM   31  O   UNL     1      -8.507   3.255  70.526  1.00  0.00    -0.058 OA 
HETATM   32  C   UNL     1      -9.066   3.033  69.454  1.00  0.00    -0.132 C  
HETATM   33  H   UNL     1     -10.445   3.513  68.007  1.00  0.00     0.000 HD 
BRANCH  32  34
HETATM   34  C   UNL     1      -8.920   1.674  68.771  1.00  0.00    -0.105 C  
BRANCH  34  35
HETATM   35  N   UNL     1      -7.855   1.688  67.746  1.00  0.00    -0.058 NA 
HETATM   36  C   UNL     1      -8.307   2.294  66.483  1.00  0.00    -0.094 C  
HETATM   37  C   UNL     1      -6.989   2.575  65.788  1.00  0.00    -0.052 C  
HETATM   38  C   UNL     1      -6.720   2.511  68.189  1.00  0.00    -0.039 C  
HETATM   39  C   UNL     1      -6.097   3.070  66.914  1.00  0.00    -0.024 C  
ENDBRANCH  34  35
ENDBRANCH  32  34
ENDBRANCH   7  30
BRANCH  16  40
HETATM   40  C   UNL     1      -9.197  15.813  66.184  1.00  0.00    -0.350 C  
HETATM   41  N   UNL     1     -10.413  15.382  65.758  1.00  0.00    -0.330 N  
HETATM   42  H2  UNL     1     -10.870  14.577  66.185  1.00  0.00     0.000 HD 
HETATM   43  H1  UNL     1     -10.849  15.896  64.992  1.00  0.00     0.000 HD 
HETATM   44  O   UNL     1      -8.664  16.750  65.600  1.00  0.00    -0.441 OA 
ENDBRANCH  16  40
BRANCH  13  45
HETATM   45  N   UNL     1     -11.598  14.653  69.257  1.00  0.00    -0.284 NA 
HETATM   46  C   UNL     1     -11.784  14.961  70.673  1.00  0.00    -0.303 C  
HETATM   47  C   UNL     1     -12.073  15.773  68.440  1.00  0.00     0.149 C  
ENDBRANCH  13  45
TORSDOF 5
ENDMDL
MODEL       57
REMARK 921   NORMALIZED FREE ENERGY PREDICTED BY IDOCK:   -5.49 KCAL/MOL
REMARK 922        TOTAL FREE ENERGY PREDICTED BY IDOCK:   -7.00 KCAL/MOL
REMARK 923 INTER-LIGAND FREE ENERGY PREDICTED BY IDOCK:   -7.11 KCAL/MOL
REMARK 924 INTRA-LIGAND FREE ENERGY PREDICTED BY IDOCK:    0.11 KCAL/MOL
REMARK 927      BINDING AFFINITY PREDICTED BY RF-SCORE:    0.00 PKD
ROOT
HETATM    1  C   UNL     1     -11.161  10.586  68.210  1.00  0.00    -0.340 C  
HETATM    2  C   UNL     1     -10.896   9.189  68.759  1.00  0.00    -0.096 C  
HETATM    3  C   UNL     1     -10.430   8.249  67.703  1.00  0.00    -0.303 A  
HETATM    4  C   UNL     1     -10.686   6.890  67.877  1.00  0.00    -0.232 A  
HETATM    5  C   UNL     1     -10.240   5.948  66.970  1.00  0.00    -0.256 A  
HETATM    6  F   UNL     1     -11.355   6.473  68.961  1.00  0.00    -0.332 F  
HETATM    7  C   UNL     1      -9.538   6.354  65.839  1.00  0.00     0.182 A  
HETATM    8  C   UNL     1     -11.132  14.969  70.701  1.00  0.00    -0.203 C  
HETATM    9  C   UNL     1      -9.261   7.726  65.658  1.00  0.00     0.143 A  
HETATM   10  H   UNL     1     -11.669  14.927  67.556  1.00  0.00     0.000 HD 
HETATM   11  O   UNL     1      -8.642   8.106  64.496  1.00  0.00    -0.380 OA 
HETATM   12  C   UNL     1      -9.680   8.683  66.603  1.00  0.00    -0.315 A  
HETATM   13  C   UNL     1     -11.787  13.622  70.499  1.00  0.00    -0.203 C  
HETATM   14  O   UNL     1      -8.484  14.671  68.893  1.00  0.00    -0.164 OA 
HETATM   15  H   UNL     1      -8.455   9.029  64.375  1.00  0.00     0.000 HD 
HETATM   16  C   UNL     1     -10.482  15.585  69.702  1.00  0.00    -0.289 C  
HETATM   17  C   UNL     1      -9.282  10.128  66.527  1.00  0.00    -0.153 C  
HETATM   18  O   UNL     1      -8.338  10.502  65.835  1.00  0.00    -0.149 OA 
HETATM   19  C   UNL     1     -10.023  11.121  67.391  1.00  0.00    -0.204 C  
HETATM   20  C   UNL     1     -11.409  11.466  69.417  1.00  0.00    -0.365 C  
HETATM   21  H   UNL     1     -11.162  14.740  72.724  1.00  0.00     0.000 HD 
HETATM   22  C   UNL     1      -9.725  12.443  67.379  1.00  0.00    -0.193 C  
HETATM   23  C   UNL     1     -10.532  13.513  68.145  1.00  0.00    -0.244 C  
HETATM   24  C   UNL     1     -11.632  12.945  69.085  1.00  0.00    -0.375 C  
HETATM   25  O   UNL     1      -8.768  12.970  66.517  1.00  0.00    -0.418 OA 
HETATM   26  H   UNL     1      -8.559  13.897  66.509  1.00  0.00     0.000 HD 
HETATM   27  C   UNL     1      -9.712  14.597  68.886  1.00  0.00    -0.196 C  
HETATM   28  O   UNL     1     -11.173  14.268  67.085  1.00  0.00    -0.301 OA 
HETATM   29  O   UNL     1     -10.701  15.176  72.017  1.00  0.00     0.097 OA 
ENDROOT
BRANCH   7  30
HETATM   30  N   UNL     1      -9.057   5.422  64.899  1.00  0.00    -0.356 N  
HETATM   31  O   UNL     1      -7.964   3.878  66.262  1.00  0.00    -0.092 OA 
HETATM   32  C   UNL     1      -8.235   4.335  65.154  1.00  0.00    -0.102 C  
HETATM   33  H   UNL     1      -9.343   5.560  63.930  1.00  0.00     0.000 HD 
BRANCH  32  34
HETATM   34  C   UNL     1      -7.700   3.666  63.889  1.00  0.00    -0.079 C  
BRANCH  34  35
HETATM   35  N   UNL     1      -8.733   2.839  63.228  1.00  0.00    -0.086 NA 
HETATM   36  C   UNL     1      -9.459   1.988  64.185  1.00  0.00    -0.131 C  
HETATM   37  C   UNL     1     -10.681   1.595  63.379  1.00  0.00    -0.143 C  
HETATM   38  C   UNL     1      -9.758   3.691  62.607  1.00  0.00    -0.115 C  
HETATM   39  C   UNL     1     -11.046   2.875  62.646  1.00  0.00    -0.084 C  
ENDBRANCH  34  35
ENDBRANCH  32  34
ENDBRANCH   7  30
BRANCH  16  40
HETATM   40  C   UNL     1     -11.354  16.646  69.111  1.00  0.00    -0.051 C  
HETATM   41  N   UNL     1     -10.765  17.825  68.782  1.00  0.00    -0.316 N  
HETATM   42  H2  UNL     1      -9.769  17.981  68.932  1.00  0.00     0.000 HD 
HETATM   43  H1  UNL     1     -11.360  18.549  68.378  1.00  0.00     0.000 HD 
HETATM   44  O   UNL     1     -12.565  16.529  68.962  1.00  0.00     0.630 OA 
ENDBRANCH  16  40
BRANCH  13  45
HETATM   45  N   UNL     1     -13.207  13.502  70.908  1.00  0.00    -0.079 NA 
HETATM   46  C   UNL     1     -13.404  12.560  72.008  1.00  0.00    -0.426 C  
HETATM   47  C   UNL     1     -13.861  14.775  71.222  1.00  0.00    -0.390 C  
ENDBRANCH  13  45
TORSDOF 5
ENDMDL
MODEL       58
REMARK 921   NORMALIZED FREE ENERGY PREDICTED BY IDOCK:   -5.29 KCAL/MOL
REMARK 922        TOTAL FREE ENERGY PREDICTED BY IDOCK:   -6.74 KCAL/MOL
REMARK 923 INTER-LIGAND FREE ENERGY PREDICTED BY IDOCK:   -7.27 KCAL/MOL
REMARK 924 INTRA-LIGAND FREE ENERGY PREDICTED BY IDOCK:    0.53 KCAL/MOL
REMARK 927      BINDING AFFINITY PREDICTED BY RF-SCORE:    0.00 PKD
ROOT
HETATM    1  C   UNL     1      -9.356   9.323  66.623  1.00  0.00    -0.219 C  
HETATM    2  C   UNL     1      -9.683   7.902  66.179  1.00  0.00    -0.079 C  
HETATM    3  C   UNL     1      -8.924   6.882  66.953  1.00  0.00    -0.128 A  
HETATM    4  C   UNL     1      -8.662   5.658  66.342  1.00  0.00    -0.126 A  
HETATM    5  C   UNL     1      -8.011   4.639  67.011  1.00  0.00    -0.102 A  
HETATM    6  F   UNL     1      -9.073   5.441  65.084  1.00  0.00    -0.160 F  
HETATM    7  C   UNL     1      -7.579   4.836  68.319  1.00  0.00    -0.077 A  
HETATM    8  C   UNL     1     -12.194  13.464  66.159  1.00  0.00    -0.415 C  
HETATM    9  C   UNL     1      -7.851   6.067  68.954  1.00  0.00    -0.096 A  
HETATM   10  H   UNL     1      -9.360  13.629  67.617  1.00  0.00     0.000 HD 
HETATM   11  O   UNL     1      -7.342   6.263  70.211  1.00  0.00    -0.083 OA 
HETATM   12  C   UNL     1      -8.550   7.091  68.286  1.00  0.00    -0.129 A  
HETATM   13  C   UNL     1     -11.406  12.374  65.468  1.00  0.00    -0.346 C  
HETATM   14  O   UNL     1     -12.192  12.422  69.206  1.00  0.00    -0.195 OA 
HETATM   15  H   UNL     1      -7.524   7.092  70.639  1.00  0.00     0.000 HD 
HETATM   16  C   UNL     1     -11.878  13.874  67.396  1.00  0.00    -0.437 C  
HETATM   17  C   UNL     1      -8.987   8.354  68.968  1.00  0.00    -0.147 C  
HETATM   18  O   UNL     1      -9.039   8.442  70.192  1.00  0.00    -0.146 OA 
HETATM   19  C   UNL     1      -9.446   9.509  68.110  1.00  0.00    -0.145 C  
HETATM   20  C   UNL     1     -10.348  10.219  65.912  1.00  0.00    -0.241 C  
HETATM   21  H   UNL     1     -13.755  13.224  64.874  1.00  0.00     0.000 HD 
HETATM   22  C   UNL     1      -9.854  10.684  68.648  1.00  0.00    -0.179 C  
HETATM   23  C   UNL     1     -10.211  11.934  67.815  1.00  0.00    -0.200 C  
HETATM   24  C   UNL     1     -10.234  11.703  66.278  1.00  0.00    -0.262 C  
HETATM   25  O   UNL     1      -9.806  10.917  70.019  1.00  0.00    -0.266 OA 
HETATM   26  H   UNL     1     -10.093  11.741  70.397  1.00  0.00     0.000 HD 
HETATM   27  C   UNL     1     -11.475  12.715  68.250  1.00  0.00    -0.313 C  
HETATM   28  O   UNL     1      -9.140  12.859  68.129  1.00  0.00    -0.199 OA 
HETATM   29  O   UNL     1     -13.532  13.515  65.751  1.00  0.00    -0.279 OA 
ENDROOT
BRANCH   7  30
HETATM   30  N   UNL     1      -6.924   3.817  69.037  1.00  0.00    -0.046 N  
HETATM   31  O   UNL     1      -8.706   2.473  69.710  1.00  0.00    -0.059 OA 
HETATM   32  C   UNL     1      -7.520   2.792  69.755  1.00  0.00    -0.044 C  
HETATM   33  H   UNL     1      -5.904   3.835  69.028  1.00  0.00     0.000 HD 
BRANCH  32  34
HETATM   34  C   UNL     1      -6.537   1.998  70.614  1.00  0.00    -0.024 C  
BRANCH  34  35
HETATM   35  N   UNL     1      -6.653   2.350  72.046  1.00  0.00    -0.015 NA 
HETATM   36  C   UNL     1      -5.913   3.578  72.378  1.00  0.00    -0.009 C  
HETATM   37  C   UNL     1      -6.516   3.945  73.720  1.00  0.00    -0.041 C  
HETATM   38  C   UNL     1      -8.053   2.629  72.398  1.00  0.00    -0.055 C  
HETATM   39  C   UNL     1      -7.993   3.642  73.537  1.00  0.00    -0.079 C  
ENDBRANCH  34  35
ENDBRANCH  32  34
ENDBRANCH   7  30
BRANCH  16  40
HETATM   40  C   UNL     1     -11.109  15.154  67.323  1.00  0.00    -0.332 C  
HETATM   41  N   UNL     1     -10.813  15.773  68.496  1.00  0.00    -0.274 N  
HETATM   42  H2  UNL     1     -11.104  15.379  69.391  1.00  0.00     0.000 HD 
HETATM   43  H1  UNL     1     -10.289  16.646  68.446  1.00  0.00     0.000 HD 
HETATM   44  O   UNL     1     -10.785  15.696  66.272  1.00  0.00    -0.308 OA 
ENDBRANCH  16  40
BRANCH  13  45
HETATM   45  N   UNL     1     -10.906  12.673  64.106  1.00  0.00    -0.367 NA 
HETATM   46  C   UNL     1     -10.318  11.509  63.446  1.00  0.00    -0.418 C  
HETATM   47  C   UNL     1     -11.889  13.301  63.219  1.00  0.00    -0.229 C  
ENDBRANCH  13  45
TORSDOF 5
ENDMDL
MODEL       59
REMARK 921   NORMALIZED FREE ENERGY PREDICTED BY IDOCK:   -4.93 KCAL/MOL
REMARK 922        TOTAL FREE ENERGY PREDICTED BY IDOCK:   -6.28 KCAL/MOL
REMARK 923 INTER-LIGAND FREE ENERGY PREDICTED BY IDOCK:   -6.96 KCAL/MOL
REMARK 924 INTRA-LIGAND FREE ENERGY PREDICTED BY IDOCK:    0.68 KCAL/MOL
REMARK 927      BINDING AFFINITY PREDICTED BY RF-SCORE:    0.00 PKD
ROOT
HETATM    1  C   UNL     1      -7.947  12.098  68.676  1.00  0.00    -0.063 C  
HETATM    2  C   UNL     1      -7.080  10.980  68.110  1.00  0.00    -0.074 C  
HETATM    3  C   UNL     1      -7.523   9.636  68.572  1.00  0.00    -0.079 A  
HETATM    4  C   UNL     1      -6.572   8.619  68.635  1.00  0.00    -0.055 A  
HETATM    5  C   UNL     1      -6.913   7.332  69.002  1.00  0.00    -0.077 A  
HETATM    6  F   UNL     1      -5.299   8.878  68.306  1.00  0.00    -0.033 F  
HETATM    7  C   UNL     1      -8.229   7.034  69.342  1.00  0.00    -0.132 A  
HETATM    8  C   UNL     1      -8.704  16.713  66.792  1.00  0.00    -0.226 C  
HETATM    9  C   UNL     1      -9.204   8.052  69.269  1.00  0.00    -0.152 A  
HETATM   10  H   UNL     1     -10.215  15.811  69.454  1.00  0.00     0.000 HD 
HETATM   11  O   UNL     1     -10.474   7.753  69.690  1.00  0.00    -0.221 OA 
HETATM   12  C   UNL     1      -8.866   9.356  68.856  1.00  0.00    -0.136 A  
HETATM   13  C   UNL     1      -7.733  15.728  67.402  1.00  0.00    -0.183 C  
HETATM   14  O   UNL     1     -11.283  14.848  66.303  1.00  0.00    -0.340 OA 
HETATM   15  H   UNL     1     -11.130   8.438  69.640  1.00  0.00     0.000 HD 
HETATM   16  C   UNL     1     -10.015  16.661  67.069  1.00  0.00    -0.271 C  
HETATM   17  C   UNL     1      -9.890  10.426  68.624  1.00  0.00    -0.177 C  
HETATM   18  O   UNL     1     -11.081  10.159  68.479  1.00  0.00    -0.245 OA 
HETATM   19  C   UNL     1      -9.417  11.854  68.490  1.00  0.00    -0.151 C  
HETATM   20  C   UNL     1      -7.520  13.360  67.956  1.00  0.00    -0.139 C  
HETATM   21  H   UNL     1      -7.368  17.213  65.339  1.00  0.00     0.000 HD 
HETATM   22  C   UNL     1     -10.278  12.878  68.280  1.00  0.00    -0.245 C  
HETATM   23  C   UNL     1      -9.861  14.365  68.262  1.00  0.00    -0.229 C  
HETATM   24  C   UNL     1      -8.327  14.607  68.335  1.00  0.00    -0.157 C  
HETATM   25  O   UNL     1     -11.656  12.681  68.249  1.00  0.00    -0.289 OA 
HETATM   26  H   UNL     1     -12.261  13.400  68.102  1.00  0.00     0.000 HD 
HETATM   27  C   UNL     1     -10.482  15.242  67.149  1.00  0.00    -0.280 C  
HETATM   28  O   UNL     1     -10.471  14.896  69.465  1.00  0.00    -0.237 OA 
HETATM   29  O   UNL     1      -8.297  17.176  65.535  1.00  0.00    -0.246 OA 
ENDROOT
BRANCH   7  30
HETATM   30  N   UNL     1      -8.617   5.730  69.709  1.00  0.00    -0.125 N  
HETATM   31  O   UNL     1      -6.633   4.538  69.427  1.00  0.00    -0.038 OA 
HETATM   32  C   UNL     1      -7.845   4.582  69.627  1.00  0.00    -0.058 C  
HETATM   33  H   UNL     1      -9.563   5.620  70.072  1.00  0.00     0.000 HD 
BRANCH  32  34
HETATM   34  C   UNL     1      -8.636   3.298  69.873  1.00  0.00    -0.060 C  
BRANCH  34  35
HETATM   35  N   UNL     1      -8.817   3.035  71.317  1.00  0.00    -0.077 NA 
HETATM   36  C   UNL     1     -10.012   3.702  71.859  1.00  0.00    -0.153 C  
HETATM   37  C   UNL     1     -10.209   2.963  73.167  1.00  0.00    -0.221 C  
HETATM   38  C   UNL     1      -9.028   1.600  71.558  1.00  0.00    -0.067 C  
HETATM   39  C   UNL     1      -9.903   1.519  72.805  1.00  0.00    -0.144 C  
ENDBRANCH  34  35
ENDBRANCH  32  34
ENDBRANCH   7  30
BRANCH  16  40
HETATM   40  C   UNL     1     -10.358  17.703  68.086  1.00  0.00    -0.386 C  
HETATM   41  N   UNL     1     -10.833  18.890  67.626  1.00  0.00    -0.398 N  
HETATM   42  H2  UNL     1     -10.951  19.063  66.628  1.00  0.00     0.000 HD 
HETATM   43  H1  UNL     1     -11.067  19.600  68.320  1.00  0.00     0.000 HD 
HETATM   44  O   UNL     1     -10.183  17.563  69.291  1.00  0.00    -0.303 OA 
ENDBRANCH  16  40
BRANCH  13  45
HETATM   45  N   UNL     1      -6.541  16.297  68.076  1.00  0.00    -0.127 NA 
HETATM   46  C   UNL     1      -6.290  17.689  67.710  1.00  0.00    -0.169 C  
HETATM   47  C   UNL     1      -6.542  16.161  69.535  1.00  0.00    -0.200 C  
ENDBRANCH  13  45
TORSDOF 5
ENDMDL
MODEL       60
REMARK 921   NORMALIZED FREE ENERGY PREDICTED BY IDOCK:   -4.54 KCAL/MOL
REMARK 922        TOTAL FREE ENERGY PREDICTED BY IDOCK:   -5.77 KCAL/MOL
REMARK 923 INTER-LIGAND FREE ENERGY PREDICTED BY IDOCK:   -5.54 KCAL/MOL
REMARK 924 INTRA-LIGAND FREE ENERGY PREDICTED BY IDOCK:   -0.23 KCAL/MOL
REMARK 927      BINDING AFFINITY PREDICTED BY RF-SCORE:    0.00 PKD
ROOT
HETATM    1  C   UNL     1      -8.676  10.392  66.288  1.00  0.00    -0.163 C  
HETATM    2  C   UNL     1      -8.585   9.285  65.244  1.00  0.00    -0.188 C  
HETATM    3  C   UNL     1      -7.800   8.118  65.730  1.00  0.00    -0.096 A  
HETATM    4  C   UNL     1      -7.156   7.322  64.784  1.00  0.00    -0.064 A  
HETATM    5  C   UNL     1      -6.453   6.190  65.149  1.00  0.00    -0.039 A  
HETATM    6  F   UNL     1      -7.237   7.638  63.484  1.00  0.00    -0.064 F  
HETATM    7  C   UNL     1      -6.357   5.837  66.492  1.00  0.00    -0.038 A  
HETATM    8  C   UNL     1     -12.187  13.983  66.724  1.00  0.00    -0.404 C  
HETATM    9  C   UNL     1      -7.017   6.627  67.458  1.00  0.00    -0.082 A  
HETATM   10  H   UNL     1      -9.826  13.795  68.862  1.00  0.00     0.000 HD 
HETATM   11  O   UNL     1      -6.837   6.304  68.778  1.00  0.00    -0.064 OA 
HETATM   12  C   UNL     1      -7.768   7.758  67.083  1.00  0.00    -0.105 A  
HETATM   13  C   UNL     1     -11.055  13.400  65.911  1.00  0.00    -0.280 C  
HETATM   14  O   UNL     1     -12.594  11.716  68.974  1.00  0.00    -0.120 OA 
HETATM   15  H   UNL     1      -7.281   6.835  69.428  1.00  0.00     0.000 HD 
HETATM   16  C   UNL     1     -12.234  13.839  68.057  1.00  0.00    -0.179 C  
HETATM   17  C   UNL     1      -8.602   8.538  68.056  1.00  0.00    -0.134 C  
HETATM   18  O   UNL     1      -8.926   8.072  69.146  1.00  0.00    -0.144 OA 
HETATM   19  C   UNL     1      -9.112   9.896  67.636  1.00  0.00    -0.140 C  
HETATM   20  C   UNL     1      -9.668  11.397  65.742  1.00  0.00    -0.263 C  
HETATM   21  H   UNL     1     -13.355  14.166  65.066  1.00  0.00     0.000 HD 
HETATM   22  C   UNL     1      -9.870  10.662  68.456  1.00  0.00    -0.168 C  
HETATM   23  C   UNL     1     -10.309  12.105  68.123  1.00  0.00    -0.207 C  
HETATM   24  C   UNL     1      -9.960  12.571  66.683  1.00  0.00    -0.243 C  
HETATM   25  O   UNL     1     -10.161  10.273  69.760  1.00  0.00    -0.236 OA 
HETATM   26  H   UNL     1     -10.693  10.810  70.335  1.00  0.00     0.000 HD 
HETATM   27  C   UNL     1     -11.775  12.474  68.456  1.00  0.00    -0.324 C  
HETATM   28  O   UNL     1      -9.556  12.907  69.067  1.00  0.00     0.154 OA 
HETATM   29  O   UNL     1     -13.389  14.064  66.010  1.00  0.00    -0.213 OA 
ENDROOT
BRANCH   7  30
HETATM   30  N   UNL     1      -5.660   4.683  66.900  1.00  0.00    -0.013 N  
HETATM   31  O   UNL     1      -7.368   3.102  67.026  1.00  0.00    -0.061 OA 
HETATM   32  C   UNL     1      -6.210   3.456  67.234  1.00  0.00    -0.035 C  
HETATM   33  H   UNL     1      -4.644   4.759  66.955  1.00  0.00     0.000 HD 
BRANCH  32  34
HETATM   34  C   UNL     1      -5.207   2.491  67.864  1.00  0.00    -0.012 C  
BRANCH  34  35
HETATM   35  N   UNL     1      -5.559   2.172  69.265  1.00  0.00    -0.017 NA 
HETATM   36  C   UNL     1      -5.705   3.382  70.090  1.00  0.00    -0.017 C  
HETATM   37  C   UNL     1      -6.454   2.843  71.293  1.00  0.00    -0.019 C  
HETATM   38  C   UNL     1      -6.862   1.495  69.329  1.00  0.00    -0.029 C  
HETATM   39  C   UNL     1      -7.455   1.879  70.681  1.00  0.00    -0.033 C  
ENDBRANCH  34  35
ENDBRANCH  32  34
ENDBRANCH   7  30
BRANCH  16  40
HETATM   40  C   UNL     1     -11.765  15.096  68.717  1.00  0.00    -0.342 C  
HETATM   41  N   UNL     1     -12.001  15.227  70.049  1.00  0.00    -0.321 N  
HETATM   42  H2  UNL     1     -12.480  14.497  70.577  1.00  0.00     0.000 HD 
HETATM   43  H1  UNL     1     -11.681  16.085  70.499  1.00  0.00     0.000 HD 
HETATM   44  O   UNL     1     -11.236  16.025  68.117  1.00  0.00    -0.343 OA 
ENDBRANCH  16  40
BRANCH  13  45
HETATM   45  N   UNL     1     -10.358  14.320  64.980  1.00  0.00    -0.420 NA 
HETATM   46  C   UNL     1     -11.276  15.179  64.236  1.00  0.00    -0.014 C  
HETATM   47  C   UNL     1      -9.308  15.133  65.598  1.00  0.00    -0.061 C  
ENDBRANCH  13  45
TORSDOF 5
ENDMDL
MODEL       61
REMARK 921   NORMALIZED FREE ENERGY PREDICTED BY IDOCK:   -4.48 KCAL/MOL
REMARK 922        TOTAL FREE ENERGY PREDICTED BY IDOCK:   -5.69 KCAL/MOL
REMARK 923 INTER-LIGAND FREE ENERGY PREDICTED BY IDOCK:   -5.98 KCAL/MOL
REMARK 924 INTRA-LIGAND FREE ENERGY PREDICTED BY IDOCK:    0.29 KCAL/MOL
REMARK 927      BINDING AFFINITY PREDICTED BY RF-SCORE:    0.00 PKD
ROOT
HETATM    1  C   UNL     1     -10.926  10.732  69.418  1.00  0.00    -0.305 C  
HETATM    2  C   UNL     1     -11.671  10.157  70.617  1.00  0.00    -0.425 C  
HETATM    3  C   UNL     1     -11.365   8.716  70.829  1.00  0.00    -0.299 A  
HETATM    4  C   UNL     1     -12.326   7.929  71.461  1.00  0.00    -0.315 A  
HETATM    5  C   UNL     1     -12.098   6.596  71.743  1.00  0.00    -0.400 A  
HETATM    6  F   UNL     1     -13.493   8.475  71.833  1.00  0.00    -0.321 F  
HETATM    7  C   UNL     1     -10.894   6.006  71.373  1.00  0.00    -0.270 A  
HETATM    8  C   UNL     1      -9.688  15.539  68.533  1.00  0.00    -0.203 C  
HETATM    9  C   UNL     1      -9.907   6.795  70.745  1.00  0.00    -0.183 A  
HETATM   10  H   UNL     1      -8.810  13.263  66.476  1.00  0.00     0.000 HD 
HETATM   11  O   UNL     1      -8.765   6.170  70.316  1.00  0.00    -0.140 OA 
HETATM   12  C   UNL     1     -10.122   8.164  70.493  1.00  0.00    -0.201 A  
HETATM   13  C   UNL     1     -10.788  14.514  68.690  1.00  0.00    -0.251 C  
HETATM   14  O   UNL     1      -7.101  13.845  69.432  1.00  0.00    -0.079 OA 
HETATM   15  H   UNL     1      -8.101   6.701  69.894  1.00  0.00     0.000 HD 
HETATM   16  C   UNL     1      -8.470  15.192  68.092  1.00  0.00    -0.152 C  
HETATM   17  C   UNL     1      -9.051   9.071  69.963  1.00  0.00    -0.176 C  
HETATM   18  O   UNL     1      -7.863   8.762  70.009  1.00  0.00    -0.085 OA 
HETATM   19  C   UNL     1      -9.456  10.428  69.437  1.00  0.00    -0.204 C  
HETATM   20  C   UNL     1     -11.161  12.227  69.461  1.00  0.00    -0.185 C  
HETATM   21  H   UNL     1     -10.666  16.852  69.742  1.00  0.00     0.000 HD 
HETATM   22  C   UNL     1      -8.550  11.304  68.941  1.00  0.00    -0.051 C  
HETATM   23  C   UNL     1      -8.925  12.646  68.277  1.00  0.00    -0.176 C  
HETATM   24  C   UNL     1     -10.432  13.014  68.367  1.00  0.00    -0.261 C  
HETATM   25  O   UNL     1      -7.203  10.975  68.823  1.00  0.00    -0.076 OA 
HETATM   26  H   UNL     1      -6.567  11.590  68.475  1.00  0.00     0.000 HD 
HETATM   27  C   UNL     1      -8.059  13.871  68.661  1.00  0.00    -0.097 C  
HETATM   28  O   UNL     1      -8.580  12.436  66.885  1.00  0.00    -0.195 OA 
HETATM   29  O   UNL     1      -9.803  16.607  69.430  1.00  0.00    -0.219 OA 
ENDROOT
BRANCH   7  30
HETATM   30  N   UNL     1     -10.621   4.653  71.656  1.00  0.00    -0.050 N  
HETATM   31  O   UNL     1      -8.900   4.821  73.218  1.00  0.00    -0.108 OA 
HETATM   32  C   UNL     1      -9.601   4.161  72.454  1.00  0.00    -0.139 C  
HETATM   33  H   UNL     1     -11.239   3.963  71.228  1.00  0.00     0.000 HD 
BRANCH  32  34
HETATM   34  C   UNL     1      -9.431   2.646  72.362  1.00  0.00    -0.105 C  
BRANCH  34  35
HETATM   35  N   UNL     1      -8.311   2.273  71.472  1.00  0.00    -0.057 NA 
HETATM   36  C   UNL     1      -8.507   2.761  70.097  1.00  0.00    -0.046 C  
HETATM   37  C   UNL     1      -7.107   2.642  69.528  1.00  0.00    -0.040 C  
HETATM   38  C   UNL     1      -7.058   2.890  71.931  1.00  0.00    -0.038 C  
HETATM   39  C   UNL     1      -6.221   3.100  70.674  1.00  0.00    -0.023 C  
ENDBRANCH  34  35
ENDBRANCH  32  34
ENDBRANCH   7  30
BRANCH  16  40
HETATM   40  C   UNL     1      -8.336  15.547  66.646  1.00  0.00    -0.251 C  
HETATM   41  N   UNL     1      -8.951  14.737  65.745  1.00  0.00    -0.316 N  
HETATM   42  H2  UNL     1      -9.483  13.920  66.043  1.00  0.00     0.000 HD 
HETATM   43  H1  UNL     1      -8.859  14.980  64.758  1.00  0.00     0.000 HD 
HETATM   44  O   UNL     1      -7.663  16.485  66.233  1.00  0.00    -0.291 OA 
ENDBRANCH  16  40
BRANCH  13  45
HETATM   45  N   UNL     1     -12.086  14.824  68.046  1.00  0.00    -0.216 NA 
HETATM   46  C   UNL     1     -12.254  16.246  67.757  1.00  0.00     1.254 C  
HETATM   47  C   UNL     1     -12.374  14.037  66.843  1.00  0.00    -0.286 C  
ENDBRANCH  13  45
TORSDOF 5
ENDMDL
MODEL       62
REMARK 921   NORMALIZED FREE ENERGY PREDICTED BY IDOCK:   -4.24 KCAL/MOL
REMARK 922        TOTAL FREE ENERGY PREDICTED BY IDOCK:   -5.38 KCAL/MOL
REMARK 923 INTER-LIGAND FREE ENERGY PREDICTED BY IDOCK:   -5.10 KCAL/MOL
REMARK 924 INTRA-LIGAND FREE ENERGY PREDICTED BY IDOCK:   -0.28 KCAL/MOL
REMARK 927      BINDING AFFINITY PREDICTED BY RF-SCORE:    0.00 PKD
ROOT
HETATM    1  C   UNL     1      -9.331   8.046  66.771  1.00  0.00    -0.229 C  
HETATM    2  C   UNL     1      -8.860   9.339  67.426  1.00  0.00    -0.124 C  
HETATM    3  C   UNL     1      -9.845   9.860  68.413  1.00  0.00    -0.166 A  
HETATM    4  C   UNL     1      -9.861  11.231  68.659  1.00  0.00    -0.202 A  
HETATM    5  C   UNL     1     -10.707  11.787  69.599  1.00  0.00     0.157 A  
HETATM    6  F   UNL     1      -9.022  12.037  67.993  1.00  0.00    -0.158 F  
HETATM    7  C   UNL     1     -11.586  10.973  70.308  1.00  0.00    -0.322 A  
HETATM    8  C   UNL     1      -6.534   4.430  64.645  1.00  0.00    -0.039 C  
HETATM    9  C   UNL     1     -11.568   9.581  70.078  1.00  0.00    -0.048 A  
HETATM   10  H   UNL     1      -9.704   4.104  64.807  1.00  0.00     0.000 HD 
HETATM   11  O   UNL     1     -12.500   8.814  70.728  1.00  0.00    -0.495 OA 
HETATM   12  C   UNL     1     -10.678   9.008  69.149  1.00  0.00    -0.176 A  
HETATM   13  C   UNL     1      -7.013   5.863  64.601  1.00  0.00    -0.052 C  
HETATM   14  O   UNL     1      -7.639   3.474  67.515  1.00  0.00    -0.069 OA 
HETATM   15  H   UNL     1     -12.488   7.877  70.574  1.00  0.00     0.000 HD 
HETATM   16  C   UNL     1      -7.279   3.463  65.202  1.00  0.00    -0.067 C  
HETATM   17  C   UNL     1     -10.523   7.526  68.980  1.00  0.00    -0.208 C  
HETATM   18  O   UNL     1     -10.920   6.734  69.832  1.00  0.00    -0.251 OA 
HETATM   19  C   UNL     1      -9.788   7.016  67.762  1.00  0.00    -0.166 C  
HETATM   20  C   UNL     1      -8.152   7.531  65.972  1.00  0.00    -0.123 C  
HETATM   21  H   UNL     1      -4.612   5.005  64.299  1.00  0.00     0.000 HD 
HETATM   22  C   UNL     1      -9.607   5.693  67.536  1.00  0.00    -0.118 C  
HETATM   23  C   UNL     1      -8.977   5.118  66.249  1.00  0.00    -0.130 C  
HETATM   24  C   UNL     1      -8.397   6.186  65.280  1.00  0.00    -0.144 C  
HETATM   25  O   UNL     1     -10.151   4.725  68.376  1.00  0.00    -0.127 OA 
HETATM   26  H   UNL     1     -10.024   3.797  68.217  1.00  0.00     0.000 HD 
HETATM   27  C   UNL     1      -7.961   3.965  66.434  1.00  0.00    -0.097 C  
HETATM   28  O   UNL     1     -10.092   4.459  65.599  1.00  0.00    -0.217 OA 
HETATM   29  O   UNL     1      -5.139   4.320  64.693  1.00  0.00    -0.008 OA 
ENDROOT
BRANCH   7  30
HETATM   30  N   UNL     1     -12.454  11.503  71.283  1.00  0.00    -0.333 N  
HETATM   31  O   UNL     1     -13.213  13.450  70.250  1.00  0.00     0.257 OA 
HETATM   32  C   UNL     1     -13.108  12.724  71.236  1.00  0.00    -0.157 C  
HETATM   33  H   UNL     1     -12.618  10.928  72.109  1.00  0.00     0.000 HD 
BRANCH  32  34
HETATM   34  C   UNL     1     -13.780  13.106  72.554  1.00  0.00    -0.459 C  
BRANCH  34  35
HETATM   35  N   UNL     1     -13.296  14.409  73.059  1.00  0.00    -0.635 NA 
HETATM   36  C   UNL     1     -11.847  14.577  72.863  1.00  0.00     0.218 C  
HETATM   37  C   UNL     1     -11.685  16.073  73.045  1.00  0.00    -0.398 C  
HETATM   38  C   UNL     1     -13.921  15.514  72.318  1.00  0.00    -0.548 C  
HETATM   39  C   UNL     1     -12.900  16.647  72.336  1.00  0.00     0.957 C  
ENDBRANCH  34  35
ENDBRANCH  32  34
ENDBRANCH   7  30
BRANCH  16  40
HETATM   40  C   UNL     1      -7.974   2.682  64.132  1.00  0.00    -0.081 C  
HETATM   41  N   UNL     1      -9.026   1.908  64.508  1.00  0.00    -0.109 N  
HETATM   42  H2  UNL     1      -9.329   1.862  65.480  1.00  0.00     0.000 HD 
HETATM   43  H1  UNL     1      -9.499   1.376  63.778  1.00  0.00     0.000 HD 
HETATM   44  O   UNL     1      -7.614   2.661  62.960  1.00  0.00    -0.058 OA 
ENDBRANCH  16  40
BRANCH  13  45
HETATM   45  N   UNL     1      -6.985   6.535  63.280  1.00  0.00    -0.048 NA 
HETATM   46  C   UNL     1      -5.684   6.443  62.622  1.00  0.00    -0.023 C  
HETATM   47  C   UNL     1      -8.040   6.109  62.356  1.00  0.00    -0.100 C  
ENDBRANCH  13  45
TORSDOF 5
ENDMDL
MODEL       63
REMARK 921   NORMALIZED FREE ENERGY PREDICTED BY IDOCK:   -4.09 KCAL/MOL
REMARK 922        TOTAL FREE ENERGY PREDICTED BY IDOCK:   -5.18 KCAL/MOL
REMARK 923 INTER-LIGAND FREE ENERGY PREDICTED BY IDOCK:   -6.96 KCAL/MOL
REMARK 924 INTRA-LIGAND FREE ENERGY PREDICTED BY IDOCK:    1.78 KCAL/MOL
REMARK 927      BINDING AFFINITY PREDICTED BY RF-SCORE:    0.00 PKD
ROOT
HETATM    1  C   UNL     1      -9.074   7.029  68.234  1.00  0.00    -0.126 C  
HETATM    2  C   UNL     1      -8.410   7.629  67.000  1.00  0.00    -0.124 C  
HETATM    3  C   UNL     1      -8.713   9.078  66.847  1.00  0.00    -0.132 A  
HETATM    4  C   UNL     1      -8.688   9.620  65.564  1.00  0.00    -0.153 A  
HETATM    5  C   UNL     1      -8.905  10.967  65.343  1.00  0.00    -0.192 A  
HETATM    6  F   UNL     1      -8.419   8.831  64.514  1.00  0.00    -0.154 F  
HETATM    7  C   UNL     1      -9.181  11.809  66.416  1.00  0.00    -0.217 A  
HETATM    8  C   UNL     1      -7.684   2.947  70.846  1.00  0.00    -0.039 C  
HETATM    9  C   UNL     1      -9.196  11.274  67.722  1.00  0.00    -0.156 A  
HETATM   10  H   UNL     1     -10.196   4.669  71.797  1.00  0.00     0.000 HD 
HETATM   11  O   UNL     1      -9.551  12.108  68.749  1.00  0.00    -0.384 OA 
HETATM   12  C   UNL     1      -8.934   9.910  67.952  1.00  0.00    -0.129 A  
HETATM   13  C   UNL     1      -8.206   3.511  69.545  1.00  0.00    -0.052 C  
HETATM   14  O   UNL     1      -6.936   5.635  72.454  1.00  0.00    -0.078 OA 
HETATM   15  H   UNL     1      -9.561  11.749  69.628  1.00  0.00     0.000 HD 
HETATM   16  C   UNL     1      -7.923   3.558  72.016  1.00  0.00    -0.063 C  
HETATM   17  C   UNL     1      -8.796   9.330  69.329  1.00  0.00    -0.146 C  
HETATM   18  O   UNL     1      -8.595  10.041  70.311  1.00  0.00    -0.116 OA 
HETATM   19  C   UNL     1      -8.828   7.828  69.481  1.00  0.00    -0.139 C  
HETATM   20  C   UNL     1      -8.505   5.633  68.374  1.00  0.00    -0.105 C  
HETATM   21  H   UNL     1      -6.325   1.792  69.863  1.00  0.00     0.000 HD 
HETATM   22  C   UNL     1      -8.711   7.227  70.689  1.00  0.00    -0.147 C  
HETATM   23  C   UNL     1      -8.864   5.707  70.913  1.00  0.00    -0.140 C  
HETATM   24  C   UNL     1      -8.997   4.871  69.610  1.00  0.00    -0.137 C  
HETATM   25  O   UNL     1      -8.626   7.963  71.868  1.00  0.00    -0.110 OA 
HETATM   26  H   UNL     1      -8.543   7.541  72.716  1.00  0.00     0.000 HD 
HETATM   27  C   UNL     1      -7.838   5.043  71.863  1.00  0.00    -0.109 C  
HETATM   28  O   UNL     1     -10.103   5.604  71.659  1.00  0.00    -0.183 OA 
HETATM   29  O   UNL     1      -6.495   2.225  70.692  1.00  0.00    -0.023 OA 
ENDROOT
BRANCH   7  30
HETATM   30  N   UNL     1      -9.394  13.189  66.230  1.00  0.00    -0.434 N  
HETATM   31  O   UNL     1      -7.953  14.120  67.808  1.00  0.00    -0.140 OA 
HETATM   32  C   UNL     1      -8.864  14.220  66.988  1.00  0.00    -0.226 C  
HETATM   33  H   UNL     1     -10.004  13.457  65.457  1.00  0.00     0.000 HD 
BRANCH  32  34
HETATM   34  C   UNL     1      -9.481  15.583  66.679  1.00  0.00    -0.259 C  
BRANCH  34  35
HETATM   35  N   UNL     1     -10.840  15.454  66.112  1.00  0.00    -0.323 NA 
HETATM   36  C   UNL     1     -10.817  14.984  64.716  1.00  0.00    -0.355 C  
HETATM   37  C   UNL     1     -12.252  14.536  64.521  1.00  0.00    -0.483 C  
HETATM   38  C   UNL     1     -11.615  14.446  66.850  1.00  0.00    -0.388 C  
HETATM   39  C   UNL     1     -12.592  13.858  65.837  1.00  0.00    -0.498 C  
ENDBRANCH  34  35
ENDBRANCH  32  34
ENDBRANCH   7  30
BRANCH  16  40
HETATM   40  C   UNL     1      -9.038   2.863  72.730  1.00  0.00    -0.086 C  
HETATM   41  N   UNL     1     -10.287   3.380  72.591  1.00  0.00    -0.161 N  
HETATM   42  H2  UNL     1     -10.457   4.210  72.023  1.00  0.00     0.000 HD 
HETATM   43  H1  UNL     1     -11.047   2.906  73.078  1.00  0.00     0.000 HD 
HETATM   44  O   UNL     1      -8.878   1.897  73.469  1.00  0.00    -0.064 OA 
ENDBRANCH  16  40
BRANCH  13  45
HETATM   45  N   UNL     1      -8.965   2.584  68.672  1.00  0.00    -0.109 NA 
HETATM   46  C   UNL     1      -8.157   2.036  67.585  1.00  0.00    -0.064 C  
HETATM   47  C   UNL     1      -9.644   1.496  69.382  1.00  0.00    -0.014 C  
ENDBRANCH  13  45
TORSDOF 5
ENDMDL
MODEL       64
REMARK 921   NORMALIZED FREE ENERGY PREDICTED BY IDOCK:   -4.04 KCAL/MOL
REMARK 922        TOTAL FREE ENERGY PREDICTED BY IDOCK:   -5.13 KCAL/MOL
REMARK 923 INTER-LIGAND FREE ENERGY PREDICTED BY IDOCK:   -5.52 KCAL/MOL
REMARK 924 INTRA-LIGAND FREE ENERGY PREDICTED BY IDOCK:    0.39 KCAL/MOL
REMARK 927      BINDING AFFINITY PREDICTED BY RF-SCORE:    0.00 PKD
ROOT
HETATM    1  C   UNL     1      -7.370   8.638  68.996  1.00  0.00    -0.077 C  
HETATM    2  C   UNL     1      -7.012   9.892  69.785  1.00  0.00    -0.095 C  
HETATM    3  C   UNL     1      -7.270  11.136  69.010  1.00  0.00    -0.118 A  
HETATM    4  C   UNL     1      -6.512  12.265  69.313  1.00  0.00    -0.109 A  
HETATM    5  C   UNL     1      -6.727  13.473  68.678  1.00  0.00    -0.094 A  
HETATM    6  F   UNL     1      -5.567  12.197  70.262  1.00  0.00    -0.092 F  
HETATM    7  C   UNL     1      -7.704  13.573  67.693  1.00  0.00    -0.176 A  
HETATM    8  C   UNL     1      -8.584   4.079  70.772  1.00  0.00    -0.072 C  
HETATM    9  C   UNL     1      -8.489  12.441  67.387  1.00  0.00    -0.179 A  
HETATM   10  H   UNL     1      -8.596   4.619  67.627  1.00  0.00     0.000 HD 
HETATM   11  O   UNL     1      -9.386  12.544  66.356  1.00  0.00    -0.234 OA 
HETATM   12  C   UNL     1      -8.298  11.219  68.063  1.00  0.00    -0.136 A  
HETATM   13  C   UNL     1      -7.526   5.147  70.619  1.00  0.00    -0.070 C  
HETATM   14  O   UNL     1     -11.200   5.609  69.685  1.00  0.00    -0.267 OA 
HETATM   15  H   UNL     1      -9.915  11.782  66.151  1.00  0.00     0.000 HD 
HETATM   16  C   UNL     1      -9.569   3.940  69.872  1.00  0.00    -0.270 C  
HETATM   17  C   UNL     1      -9.202  10.037  67.874  1.00  0.00    -0.137 C  
HETATM   18  O   UNL     1     -10.318  10.151  67.372  1.00  0.00    -0.207 OA 
HETATM   19  C   UNL     1      -8.743   8.695  68.392  1.00  0.00    -0.142 C  
HETATM   20  C   UNL     1      -7.264   7.487  69.974  1.00  0.00    -0.069 C  
HETATM   21  H   UNL     1      -8.139   3.844  72.745  1.00  0.00     0.000 HD 
HETATM   22  C   UNL     1      -9.500   7.579  68.261  1.00  0.00    -0.144 C  
HETATM   23  C   UNL     1      -9.025   6.165  68.658  1.00  0.00    -0.126 C  
HETATM   24  C   UNL     1      -7.655   6.125  69.391  1.00  0.00    -0.098 C  
HETATM   25  O   UNL     1     -10.712   7.593  67.576  1.00  0.00    -0.394 OA 
HETATM   26  H   UNL     1     -11.243   6.810  67.484  1.00  0.00     0.000 HD 
HETATM   27  C   UNL     1     -10.049   5.277  69.406  1.00  0.00    -0.241 C  
HETATM   28  O   UNL     1      -8.888   5.489  67.383  1.00  0.00    -0.108 OA 
HETATM   29  O   UNL     1      -8.837   3.746  72.108  1.00  0.00    -0.094 OA 
ENDROOT
BRANCH   7  30
HETATM   30  N   UNL     1      -7.960  14.791  67.033  1.00  0.00    -0.333 N  
HETATM   31  O   UNL     1      -8.172  16.276  68.818  1.00  0.00    -0.202 OA 
HETATM   32  C   UNL     1      -8.274  16.005  67.624  1.00  0.00    -0.148 C  
HETATM   33  H   UNL     1      -7.909  14.778  66.015  1.00  0.00     0.000 HD 
BRANCH  32  34
HETATM   34  C   UNL     1      -8.729  17.068  66.625  1.00  0.00    -0.251 C  
BRANCH  34  35
HETATM   35  N   UNL     1     -10.019  16.713  65.995  1.00  0.00    -0.392 NA 
HETATM   36  C   UNL     1      -9.846  15.808  64.847  1.00  0.00     0.555 C  
HETATM   37  C   UNL     1     -11.252  15.274  64.664  1.00  0.00    -0.366 C  
HETATM   38  C   UNL     1     -10.873  15.983  66.943  1.00  0.00    -0.203 C  
HETATM   39  C   UNL     1     -11.736  15.060  66.088  1.00  0.00    -0.091 C  
ENDBRANCH  34  35
ENDBRANCH  32  34
ENDBRANCH   7  30
BRANCH  16  40
HETATM   40  C   UNL     1      -9.255   2.806  68.950  1.00  0.00    -0.161 C  
HETATM   41  N   UNL     1      -8.347   1.889  69.375  1.00  0.00    -0.044 N  
HETATM   42  H2  UNL     1      -7.898   1.972  70.287  1.00  0.00     0.000 HD 
HETATM   43  H1  UNL     1      -8.133   1.115  68.746  1.00  0.00     0.000 HD 
HETATM   44  O   UNL     1      -9.726   2.692  67.824  1.00  0.00    -0.094 OA 
ENDBRANCH  16  40
BRANCH  13  45
HETATM   45  N   UNL     1      -6.114   4.704  70.703  1.00  0.00    -0.017 NA 
HETATM   46  C   UNL     1      -5.698   3.906  69.552  1.00  0.00    -0.018 C  
HETATM   47  C   UNL     1      -5.149   5.783  70.933  1.00  0.00    -0.009 C  
ENDBRANCH  13  45
TORSDOF 5
ENDMDL
MODEL       65
REMARK 921   NORMALIZED FREE ENERGY PREDICTED BY IDOCK:   -3.74 KCAL/MOL
REMARK 922        TOTAL FREE ENERGY PREDICTED BY IDOCK:   -4.74 KCAL/MOL
REMARK 923 INTER-LIGAND FREE ENERGY PREDICTED BY IDOCK:   -4.56 KCAL/MOL
REMARK 924 INTRA-LIGAND FREE ENERGY PREDICTED BY IDOCK:   -0.18 KCAL/MOL
REMARK 927      BINDING AFFINITY PREDICTED BY RF-SCORE:    0.00 PKD
ROOT
HETATM    1  C   UNL     1      -8.615   7.817  67.235  1.00  0.00    -0.128 C  
HETATM    2  C   UNL     1      -9.740   8.845  67.231  1.00  0.00    -0.235 C  
HETATM    3  C   UNL     1      -9.261  10.202  67.612  1.00  0.00    -0.151 A  
HETATM    4  C   UNL     1     -10.174  11.079  68.195  1.00  0.00    -0.182 A  
HETATM    5  C   UNL     1      -9.823  12.374  68.527  1.00  0.00    -0.156 A  
HETATM    6  F   UNL     1     -11.433  10.677  68.418  1.00  0.00    -0.308 F  
HETATM    7  C   UNL     1      -8.524  12.819  68.301  1.00  0.00    -0.161 A  
HETATM    8  C   UNL     1      -8.355   3.475  64.685  1.00  0.00    -0.093 C  
HETATM    9  C   UNL     1      -7.595  11.945  67.698  1.00  0.00    -0.136 A  
HETATM   10  H   UNL     1      -5.914   4.392  66.525  1.00  0.00     0.000 HD 
HETATM   11  O   UNL     1      -6.302  12.381  67.563  1.00  0.00    -0.116 OA 
HETATM   12  C   UNL     1      -7.962  10.638  67.322  1.00  0.00    -0.116 A  
HETATM   13  C   UNL     1      -9.042   4.281  65.764  1.00  0.00    -0.135 C  
HETATM   14  O   UNL     1      -6.434   5.691  63.357  1.00  0.00    -0.027 OA 
HETATM   15  H   UNL     1      -5.676  11.793  67.157  1.00  0.00     0.000 HD 
HETATM   16  C   UNL     1      -7.066   3.681  64.376  1.00  0.00    -0.054 C  
HETATM   17  C   UNL     1      -7.053   9.730  66.549  1.00  0.00    -0.090 C  
HETATM   18  O   UNL     1      -6.077  10.160  65.938  1.00  0.00    -0.072 OA 
HETATM   19  C   UNL     1      -7.406   8.263  66.465  1.00  0.00    -0.081 C  
HETATM   20  C   UNL     1      -9.200   6.560  66.627  1.00  0.00    -0.172 C  
HETATM   21  H   UNL     1     -10.143   2.900  63.901  1.00  0.00     0.000 HD 
HETATM   22  C   UNL     1      -6.637   7.378  65.788  1.00  0.00    -0.045 C  
HETATM   23  C   UNL     1      -6.885   5.854  65.779  1.00  0.00    -0.056 C  
HETATM   24  C   UNL     1      -8.201   5.408  66.474  1.00  0.00    -0.109 C  
HETATM   25  O   UNL     1      -5.438   7.756  65.191  1.00  0.00    -0.032 OA 
HETATM   26  H   UNL     1      -4.899   7.135  64.716  1.00  0.00     0.000 HD 
HETATM   27  C   UNL     1      -6.742   5.140  64.412  1.00  0.00    -0.047 C  
HETATM   28  O   UNL     1      -5.762   5.330  66.531  1.00  0.00    -0.016 OA 
HETATM   29  O   UNL     1      -9.231   3.045  63.681  1.00  0.00    -0.095 OA 
ENDROOT
BRANCH   7  30
HETATM   30  N   UNL     1      -8.134  14.135  68.615  1.00  0.00    -0.167 N  
HETATM   31  O   UNL     1      -8.193  15.170  66.526  1.00  0.00    -0.150 OA 
HETATM   32  C   UNL     1      -7.897  15.166  67.719  1.00  0.00    -0.147 C  
HETATM   33  H   UNL     1      -8.014  14.353  69.604  1.00  0.00     0.000 HD 
BRANCH  32  34
HETATM   34  C   UNL     1      -7.257  16.396  68.362  1.00  0.00    -0.158 C  
BRANCH  34  35
HETATM   35  N   UNL     1      -7.450  17.608  67.537  1.00  0.00    -0.192 NA 
HETATM   36  C   UNL     1      -8.092  18.697  68.291  1.00  0.00    -0.314 C  
HETATM   37  C   UNL     1      -7.793  19.896  67.413  1.00  0.00    -0.321 C  
HETATM   38  C   UNL     1      -6.154  18.147  67.100  1.00  0.00    -0.152 C  
HETATM   39  C   UNL     1      -6.363  19.652  66.960  1.00  0.00    -0.199 C  
ENDBRANCH  34  35
ENDBRANCH  32  34
ENDBRANCH   7  30
BRANCH  16  40
HETATM   40  C   UNL     1      -6.219   2.629  65.017  1.00  0.00    -0.019 C  
HETATM   41  N   UNL     1      -5.221   2.090  64.269  1.00  0.00    -0.007 N  
HETATM   42  H2  UNL     1      -5.058   2.390  63.308  1.00  0.00     0.000 HD 
HETATM   43  H1  UNL     1      -4.643   1.372  64.707  1.00  0.00     0.000 HD 
HETATM   44  O   UNL     1      -6.410   2.195  66.148  1.00  0.00    -0.023 OA 
ENDBRANCH  16  40
BRANCH  13  45
HETATM   45  N   UNL     1      -9.759   3.518  66.813  1.00  0.00    -0.107 NA 
HETATM   46  C   UNL     1      -9.654   2.071  66.637  1.00  0.00     0.380 C  
HETATM   47  C   UNL     1      -9.394   3.877  68.186  1.00  0.00    -0.169 C  
ENDBRANCH  13  45
TORSDOF 5
ENDMDL
MODEL       66
REMARK 921   NORMALIZED FREE ENERGY PREDICTED BY IDOCK:   -3.24 KCAL/MOL
REMARK 922        TOTAL FREE ENERGY PREDICTED BY IDOCK:   -4.09 KCAL/MOL
REMARK 923 INTER-LIGAND FREE ENERGY PREDICTED BY IDOCK:   -6.32 KCAL/MOL
REMARK 924 INTRA-LIGAND FREE ENERGY PREDICTED BY IDOCK:    2.23 KCAL/MOL
REMARK 927      BINDING AFFINITY PREDICTED BY RF-SCORE:    0.00 PKD
ROOT
HETATM    1  C   UNL     1      -8.850  11.787  68.692  1.00  0.00    -0.062 C  
HETATM    2  C   UNL     1      -7.468  11.656  69.321  1.00  0.00     0.073 C  
HETATM    3  C   UNL     1      -7.157  10.252  69.706  1.00  0.00    -0.140 A  
HETATM    4  C   UNL     1      -6.259  10.044  70.751  1.00  0.00    -0.084 A  
HETATM    5  C   UNL     1      -5.876   8.773  71.133  1.00  0.00    -0.042 A  
HETATM    6  F   UNL     1      -5.726  11.095  71.389  1.00  0.00    -0.050 F  
HETATM    7  C   UNL     1      -6.411   7.664  70.484  1.00  0.00    -0.038 A  
HETATM    8  C   UNL     1     -10.513  15.354  65.540  1.00  0.00    -0.380 C  
HETATM    9  C   UNL     1      -7.311   7.862  69.415  1.00  0.00    -0.081 A  
HETATM   10  H   UNL     1     -12.428  12.939  66.368  1.00  0.00     0.000 HD 
HETATM   11  O   UNL     1      -7.885   6.754  68.849  1.00  0.00    -0.107 OA 
HETATM   12  C   UNL     1      -7.671   9.159  68.998  1.00  0.00    -0.078 A  
HETATM   13  C   UNL     1     -10.022  15.006  66.927  1.00  0.00    -0.244 C  
HETATM   14  O   UNL     1      -9.964  12.604  63.958  1.00  0.00    -0.312 OA 
HETATM   15  H   UNL     1      -8.491   6.887  68.130  1.00  0.00     0.000 HD 
HETATM   16  C   UNL     1     -11.147  14.449  64.779  1.00  0.00    -0.402 C  
HETATM   17  C   UNL     1      -8.505   9.417  67.779  1.00  0.00    -0.116 C  
HETATM   18  O   UNL     1      -8.663   8.561  66.911  1.00  0.00    -0.124 OA 
HETATM   19  C   UNL     1      -9.092  10.796  67.591  1.00  0.00    -0.148 C  
HETATM   20  C   UNL     1      -8.933  13.203  68.163  1.00  0.00    -0.195 C  
HETATM   21  H   UNL     1      -9.291  16.980  65.456  1.00  0.00     0.000 HD 
HETATM   22  C   UNL     1      -9.857  11.110  66.518  1.00  0.00    -0.208 C  
HETATM   23  C   UNL     1     -10.582  12.462  66.344  1.00  0.00    -0.244 C  
HETATM   24  C   UNL     1     -10.235  13.526  67.422  1.00  0.00    -0.237 C  
HETATM   25  O   UNL     1     -10.205  10.158  65.564  1.00  0.00    -0.286 OA 
HETATM   26  H   UNL     1     -10.742  10.378  64.811  1.00  0.00     0.000 HD 
HETATM   27  C   UNL     1     -10.524  13.099  64.934  1.00  0.00    -0.351 C  
HETATM   28  O   UNL     1     -11.982  12.107  66.476  1.00  0.00    -0.618 OA 
HETATM   29  O   UNL     1      -9.740  16.340  64.917  1.00  0.00     0.025 OA 
ENDROOT
BRANCH   7  30
HETATM   30  N   UNL     1      -6.035   6.353  70.838  1.00  0.00    -0.026 N  
HETATM   31  O   UNL     1      -5.416   5.453  68.779  1.00  0.00    -0.006 OA 
HETATM   32  C   UNL     1      -5.675   5.331  69.974  1.00  0.00    -0.016 C  
HETATM   33  H   UNL     1      -6.027   6.134  71.834  1.00  0.00     0.000 HD 
BRANCH  32  34
HETATM   34  C   UNL     1      -5.559   3.969  70.657  1.00  0.00    -0.012 C  
BRANCH  34  35
HETATM   35  N   UNL     1      -6.688   3.720  71.578  1.00  0.00    -0.026 NA 
HETATM   36  C   UNL     1      -6.233   3.404  72.942  1.00  0.00    -0.009 C  
HETATM   37  C   UNL     1      -7.502   3.614  73.744  1.00  0.00    -0.062 C  
HETATM   38  C   UNL     1      -7.522   4.923  71.713  1.00  0.00    -0.087 C  
HETATM   39  C   UNL     1      -8.114   4.855  73.116  1.00  0.00    -0.101 C  
ENDBRANCH  34  35
ENDBRANCH  32  34
ENDBRANCH   7  30
BRANCH  16  40
HETATM   40  C   UNL     1     -12.622  14.691  64.829  1.00  0.00    -0.155 C  
HETATM   41  N   UNL     1     -13.284  14.277  65.942  1.00  0.00    -0.373 N  
HETATM   42  H2  UNL     1     -12.794  13.820  66.711  1.00  0.00     0.000 HD 
HETATM   43  H1  UNL     1     -14.290  14.442  65.976  1.00  0.00     0.000 HD 
HETATM   44  O   UNL     1     -13.264  15.185  63.909  1.00  0.00    -0.025 OA 
ENDBRANCH  16  40
BRANCH  13  45
HETATM   45  N   UNL     1     -10.423  15.916  68.025  1.00  0.00    -0.266 NA 
HETATM   46  C   UNL     1     -10.333  17.327  67.657  1.00  0.00    -0.350 C  
HETATM   47  C   UNL     1     -11.743  15.637  68.597  1.00  0.00    -0.352 C  
ENDBRANCH  13  45
TORSDOF 5
ENDMDL
MODEL       67
REMARK 921   NORMALIZED FREE ENERGY PREDICTED BY IDOCK:   -3.20 KCAL/MOL
REMARK 922        TOTAL FREE ENERGY PREDICTED BY IDOCK:   -4.04 KCAL/MOL
REMARK 923 INTER-LIGAND FREE ENERGY PREDICTED BY IDOCK:   -4.35 KCAL/MOL
REMARK 924 INTRA-LIGAND FREE ENERGY PREDICTED BY IDOCK:    0.31 KCAL/MOL
REMARK 927      BINDING AFFINITY PREDICTED BY RF-SCORE:    0.00 PKD
ROOT
HETATM    1  C   UNL     1      -8.727   9.855  70.092  1.00  0.00    -0.142 C  
HETATM    2  C   UNL     1      -8.673  10.377  68.661  1.00  0.00    -0.138 C  
HETATM    3  C   UNL     1      -8.036  11.720  68.577  1.00  0.00    -0.140 A  
HETATM    4  C   UNL     1      -8.402  12.552  67.521  1.00  0.00    -0.175 A  
HETATM    5  C   UNL     1      -7.817  13.791  67.341  1.00  0.00    -0.167 A  
HETATM    6  F   UNL     1      -9.320  12.140  66.636  1.00  0.00    -0.199 F  
HETATM    7  C   UNL     1      -6.857  14.242  68.242  1.00  0.00    -0.109 A  
HETATM    8  C   UNL     1      -9.010   5.070  71.654  1.00  0.00    -0.133 C  
HETATM    9  C   UNL     1      -6.469  13.402  69.307  1.00  0.00    -0.111 A  
HETATM   10  H   UNL     1      -8.827   7.435  73.789  1.00  0.00     0.000 HD 
HETATM   11  O   UNL     1      -5.583  13.903  70.226  1.00  0.00    -0.108 OA 
HETATM   12  C   UNL     1      -7.034  12.122  69.469  1.00  0.00     0.113 A  
HETATM   13  C   UNL     1      -9.678   6.216  70.931  1.00  0.00    -0.177 C  
HETATM   14  O   UNL     1      -6.044   6.241  72.107  1.00  0.00    -0.040 OA 
HETATM   15  H   UNL     1      -5.321  13.338  70.943  1.00  0.00     0.000 HD 
HETATM   16  C   UNL     1      -8.117   5.288  72.632  1.00  0.00    -0.110 C  
HETATM   17  C   UNL     1      -6.548  11.143  70.496  1.00  0.00     0.362 C  
HETATM   18  O   UNL     1      -5.452  11.267  71.038  1.00  0.00    -0.209 OA 
HETATM   19  C   UNL     1      -7.405   9.937  70.799  1.00  0.00     0.115 C  
HETATM   20  C   UNL     1      -9.190   8.417  69.992  1.00  0.00    -0.158 C  
HETATM   21  H   UNL     1      -9.507   3.771  70.168  1.00  0.00     0.000 HD 
HETATM   22  C   UNL     1      -7.038   9.008  71.713  1.00  0.00     0.067 C  
HETATM   23  C   UNL     1      -7.934   7.829  72.150  1.00  0.00    -0.111 C  
HETATM   24  C   UNL     1      -9.248   7.677  71.333  1.00  0.00    -0.152 C  
HETATM   25  O   UNL     1      -5.883   9.149  72.477  1.00  0.00    -0.159 OA 
HETATM   26  H   UNL     1      -5.625   8.496  73.118  1.00  0.00     0.000 HD 
HETATM   27  C   UNL     1      -7.241   6.452  72.296  1.00  0.00    -0.087 C  
HETATM   28  O   UNL     1      -8.275   8.161  73.519  1.00  0.00    -0.188 OA 
HETATM   29  O   UNL     1      -8.875   3.925  70.860  1.00  0.00    -0.075 OA 
ENDROOT
BRANCH   7  30
HETATM   30  N   UNL     1      -6.231  15.494  68.083  1.00  0.00    -0.120 N  
HETATM   31  O   UNL     1      -7.302  16.781  69.704  1.00  0.00    -0.043 OA 
HETATM   32  C   UNL     1      -6.560  16.674  68.731  1.00  0.00    -0.169 C  
HETATM   33  H   UNL     1      -5.456  15.536  67.422  1.00  0.00     0.000 HD 
BRANCH  32  34
HETATM   34  C   UNL     1      -5.850  17.900  68.159  1.00  0.00    -0.170 C  
BRANCH  34  35
HETATM   35  N   UNL     1      -6.783  18.781  67.425  1.00  0.00    -0.202 NA 
HETATM   36  C   UNL     1      -7.880  18.026  66.795  1.00  0.00    -0.235 C  
HETATM   37  C   UNL     1      -8.878  19.127  66.499  1.00  0.00    -0.348 C  
HETATM   38  C   UNL     1      -7.436  19.724  68.344  1.00  0.00    -0.314 C  
HETATM   39  C   UNL     1      -8.803  20.012  67.732  1.00  0.00    -0.379 C  
ENDBRANCH  34  35
ENDBRANCH  32  34
ENDBRANCH   7  30
BRANCH  16  40
HETATM   40  C   UNL     1      -8.772   5.103  73.963  1.00  0.00    -0.117 C  
HETATM   41  N   UNL     1      -8.754   3.854  74.499  1.00  0.00    -0.094 N  
HETATM   42  H2  UNL     1      -8.313   3.075  74.012  1.00  0.00     0.000 HD 
HETATM   43  H1  UNL     1      -9.201   3.728  75.407  1.00  0.00     0.000 HD 
HETATM   44  O   UNL     1      -9.364   5.994  74.563  1.00  0.00    -0.140 OA 
ENDBRANCH  16  40
BRANCH  13  45
HETATM   45  N   UNL     1     -11.158   6.183  70.851  1.00  0.00    -0.301 NA 
HETATM   46  C   UNL     1     -11.786   7.375  71.417  1.00  0.00    -0.288 C  
HETATM   47  C   UNL     1     -11.691   5.932  69.510  1.00  0.00     0.799 C  
ENDBRANCH  13  45
TORSDOF 5
ENDMDL
MODEL       68
REMARK 921   NORMALIZED FREE ENERGY PREDICTED BY IDOCK:   -3.09 KCAL/MOL
REMARK 922        TOTAL FREE ENERGY PREDICTED BY IDOCK:   -3.89 KCAL/MOL
REMARK 923 INTER-LIGAND FREE ENERGY PREDICTED BY IDOCK:   -3.71 KCAL/MOL
REMARK 924 INTRA-LIGAND FREE ENERGY PREDICTED BY IDOCK:   -0.19 KCAL/MOL
REMARK 927      BINDING AFFINITY PREDICTED BY RF-SCORE:    0.00 PKD
ROOT
HETATM    1  C   UNL     1      -9.136  11.532  66.027  1.00  0.00    -0.206 C  
HETATM    2  C   UNL     1      -9.313  10.886  64.659  1.00  0.00    -0.256 C  
HETATM    3  C   UNL     1      -8.895   9.457  64.655  1.00  0.00    -0.238 A  
HETATM    4  C   UNL     1      -8.459   8.906  63.451  1.00  0.00    -0.145 A  
HETATM    5  C   UNL     1      -8.106   7.574  63.351  1.00  0.00    -0.024 A  
HETATM    6  F   UNL     1      -8.402   9.671  62.351  1.00  0.00    -0.123 F  
HETATM    7  C   UNL     1      -8.160   6.757  64.476  1.00  0.00    -0.070 A  
HETATM    8  C   UNL     1     -11.546  15.538  67.915  1.00  0.00    -0.223 C  
HETATM    9  C   UNL     1      -8.614   7.299  65.697  1.00  0.00    -0.109 A  
HETATM   10  H   UNL     1      -9.407  13.979  69.698  1.00  0.00     0.000 HD 
HETATM   11  O   UNL     1      -8.578   6.495  66.807  1.00  0.00    -0.113 OA 
HETATM   12  C   UNL     1      -9.012   8.647  65.791  1.00  0.00    -0.244 A  
HETATM   13  C   UNL     1     -10.587  14.999  66.879  1.00  0.00    -0.297 C  
HETATM   14  O   UNL     1     -12.640  12.819  69.250  1.00  0.00     0.195 OA 
HETATM   15  H   UNL     1      -8.884   6.860  67.628  1.00  0.00     0.000 HD 
HETATM   16  C   UNL     1     -11.680  14.950  69.114  1.00  0.00    -0.338 C  
HETATM   17  C   UNL     1      -9.637   9.225  67.027  1.00  0.00    -0.171 C  
HETATM   18  O   UNL     1     -10.116   8.509  67.903  1.00  0.00    -0.186 OA 
HETATM   19  C   UNL     1      -9.741  10.728  67.141  1.00  0.00    -0.198 C  
HETATM   20  C   UNL     1      -9.795  12.892  65.933  1.00  0.00    -0.239 C  
HETATM   21  H   UNL     1     -12.557  16.601  66.505  1.00  0.00     0.000 HD 
HETATM   22  C   UNL     1     -10.291  11.328  68.224  1.00  0.00    -0.183 C  
HETATM   23  C   UNL     1     -10.306  12.856  68.446  1.00  0.00    -0.244 C  
HETATM   24  C   UNL     1      -9.789  13.690  67.241  1.00  0.00    -0.241 C  
HETATM   25  O   UNL     1     -10.725  10.595  69.325  1.00  0.00    -0.209 OA 
HETATM   26  H   UNL     1     -11.110  11.016  70.085  1.00  0.00     0.000 HD 
HETATM   27  C   UNL     1     -11.627  13.462  68.980  1.00  0.00    -0.312 C  
HETATM   28  O   UNL     1      -9.397  13.039  69.561  1.00  0.00     0.999 OA 
HETATM   29  O   UNL     1     -12.653  16.185  67.353  1.00  0.00     1.715 OA 
ENDROOT
BRANCH   7  30
HETATM   30  N   UNL     1      -7.820   5.392  64.409  1.00  0.00    -0.096 N  
HETATM   31  O   UNL     1      -6.015   5.268  65.879  1.00  0.00    -0.024 OA 
HETATM   32  C   UNL     1      -6.735   4.776  65.014  1.00  0.00    -0.045 C  
HETATM   33  H   UNL     1      -8.435   4.794  63.858  1.00  0.00     0.000 HD 
BRANCH  32  34
HETATM   34  C   UNL     1      -6.514   3.337  64.549  1.00  0.00    -0.034 C  
BRANCH  34  35
HETATM   35  N   UNL     1      -6.792   2.364  65.627  1.00  0.00    -0.039 NA 
HETATM   36  C   UNL     1      -5.696   2.293  66.607  1.00  0.00    -0.021 C  
HETATM   37  C   UNL     1      -6.372   1.600  67.773  1.00  0.00    -0.025 C  
HETATM   38  C   UNL     1      -7.978   2.769  66.396  1.00  0.00    -0.081 C  
HETATM   39  C   UNL     1      -7.753   2.233  67.806  1.00  0.00    -0.059 C  
ENDBRANCH  34  35
ENDBRANCH  32  34
ENDBRANCH   7  30
BRANCH  16  40
HETATM   40  C   UNL     1     -10.910  15.716  70.141  1.00  0.00    -0.343 C  
HETATM   41  N   UNL     1     -10.802  15.167  71.379  1.00  0.00    -0.504 N  
HETATM   42  H2  UNL     1     -11.230  14.268  71.599  1.00  0.00     0.000 HD 
HETATM   43  H1  UNL     1     -10.277  15.690  72.080  1.00  0.00     0.000 HD 
HETATM   44  O   UNL     1     -10.424  16.825  69.943  1.00  0.00    -0.198 OA 
ENDBRANCH  16  40
BRANCH  13  45
HETATM   45  N   UNL     1      -9.632  15.966  66.287  1.00  0.00    -0.290 NA 
HETATM   46  C   UNL     1      -9.902  17.347  66.680  1.00  0.00    -0.297 C  
HETATM   47  C   UNL     1      -8.220  15.651  66.523  1.00  0.00    -0.192 C  
ENDBRANCH  13  45
TORSDOF 5
ENDMDL
MODEL       69
REMARK 921   NORMALIZED FREE ENERGY PREDICTED BY IDOCK:   -0.18 KCAL/MOL
REMARK 922        TOTAL FREE ENERGY PREDICTED BY IDOCK:   -0.14 KCAL/MOL
REMARK 923 INTER-LIGAND FREE ENERGY PREDICTED BY IDOCK:    0.43 KCAL/MOL
REMARK 924 INTRA-LIGAND FREE ENERGY PREDICTED BY IDOCK:   -0.58 KCAL/MOL
REMARK 927      BINDING AFFINITY PREDICTED BY RF-SCORE:    0.00 PKD
ROOT
HETATM    1  C   UNL     1      -7.677   8.669  67.626  1.00  0.00    -0.102 C  
HETATM    2  C   UNL     1      -6.625   9.653  67.129  1.00  0.00    -0.071 C  
HETATM    3  C   UNL     1      -6.924  11.052  67.543  1.00  0.00    -0.086 A  
HETATM    4  C   UNL     1      -6.439  12.088  66.747  1.00  0.00     0.034 A  
HETATM    5  C   UNL     1      -6.626  13.413  67.091  1.00  0.00     0.377 A  
HETATM    6  F   UNL     1      -5.748  11.804  65.634  1.00  0.00     0.216 F  
HETATM    7  C   UNL     1      -7.335  13.735  68.244  1.00  0.00    -0.118 A  
HETATM    8  C   UNL     1      -7.176   3.718  68.435  1.00  0.00    -0.054 C  
HETATM    9  C   UNL     1      -7.820  12.695  69.066  1.00  0.00     0.251 A  
HETATM   10  H   UNL     1      -9.949   5.164  69.069  1.00  0.00     0.000 HD 
HETATM   11  O   UNL     1      -8.585  13.039  70.149  1.00  0.00     2.392 OA 
HETATM   12  C   UNL     1      -7.594  11.344  68.738  1.00  0.00    -0.132 A  
HETATM   13  C   UNL     1      -7.191   4.851  67.435  1.00  0.00    -0.074 C  
HETATM   14  O   UNL     1      -7.243   5.325  71.225  1.00  0.00    -0.071 OA 
HETATM   15  H   UNL     1      -8.911  12.339  70.702  1.00  0.00     0.000 HD 
HETATM   16  C   UNL     1      -7.876   3.787  69.577  1.00  0.00    -0.052 C  
HETATM   17  C   UNL     1      -7.962  10.213  69.652  1.00  0.00    -0.173 C  
HETATM   18  O   UNL     1      -8.189  10.397  70.846  1.00  0.00     0.698 OA 
HETATM   19  C   UNL     1      -7.970   8.811  69.092  1.00  0.00    -0.109 C  
HETATM   20  C   UNL     1      -7.132   7.290  67.322  1.00  0.00    -0.091 C  
HETATM   21  H   UNL     1      -5.486   2.940  67.609  1.00  0.00     0.000 HD 
HETATM   22  C   UNL     1      -8.291   7.736  69.852  1.00  0.00    -0.130 C  
HETATM   23  C   UNL     1      -8.437   6.303  69.297  1.00  0.00    -0.124 C  
HETATM   24  C   UNL     1      -8.018   6.138  67.810  1.00  0.00    -0.106 C  
HETATM   25  O   UNL     1      -8.702   7.872  71.174  1.00  0.00    -0.130 OA 
HETATM   26  H   UNL     1      -8.928   7.119  71.708  1.00  0.00     0.000 HD 
HETATM   27  C   UNL     1      -7.818   5.168  70.149  1.00  0.00    -0.078 C  
HETATM   28  O   UNL     1      -9.860   6.046  69.410  1.00  0.00    -0.153 OA 
HETATM   29  O   UNL     1      -5.982   2.988  68.418  1.00  0.00    -0.023 OA 
ENDROOT
BRANCH   7  30
HETATM   30  N   UNL     1      -7.535  15.074  68.633  1.00  0.00    -0.115 N  
HETATM   31  O   UNL     1      -9.083  15.813  67.055  1.00  0.00    -0.202 OA 
HETATM   32  C   UNL     1      -8.291  16.027  67.969  1.00  0.00    -0.162 C  
HETATM   33  H   UNL     1      -7.076  15.373  69.493  1.00  0.00     0.000 HD 
BRANCH  32  34
HETATM   34  C   UNL     1      -8.108  17.441  68.519  1.00  0.00    -0.270 C  
BRANCH  34  35
HETATM   35  N   UNL     1      -6.712  17.907  68.379  1.00  0.00    -0.211 NA 
HETATM   36  C   UNL     1      -6.582  18.986  67.386  1.00  0.00    -0.197 C  
HETATM   37  C   UNL     1      -5.220  19.556  67.729  1.00  0.00    -0.172 C  
HETATM   38  C   UNL     1      -6.228  18.480  69.644  1.00  0.00    -0.232 C  
HETATM   39  C   UNL     1      -5.204  19.538  69.248  1.00  0.00    -0.197 C  
ENDBRANCH  34  35
ENDBRANCH  32  34
ENDBRANCH   7  30
BRANCH  16  40
HETATM   40  C   UNL     1      -9.141   3.001  69.443  1.00  0.00    -0.132 C  
HETATM   41  N   UNL     1     -10.187   3.361  70.231  1.00  0.00     0.565 N  
HETATM   42  H2  UNL     1     -10.112   4.136  70.889  1.00  0.00     0.000 HD 
HETATM   43  H1  UNL     1     -11.049   2.824  70.139  1.00  0.00     0.000 HD 
HETATM   44  O   UNL     1      -9.263   2.026  68.708  1.00  0.00    -0.128 OA 
ENDBRANCH  16  40
BRANCH  13  45
HETATM   45  N   UNL     1      -7.508   4.498  66.031  1.00  0.00    -0.084 NA 
HETATM   46  C   UNL     1      -6.598   5.116  65.069  1.00  0.00    -0.043 C  
HETATM   47  C   UNL     1      -7.604   3.060  65.770  1.00  0.00    -0.073 C  
ENDBRANCH  13  45
TORSDOF 5
ENDMDL
MODEL       70
REMARK 921   NORMALIZED FREE ENERGY PREDICTED BY IDOCK:    3.20 KCAL/MOL
REMARK 922        TOTAL FREE ENERGY PREDICTED BY IDOCK:    4.23 KCAL/MOL
REMARK 923 INTER-LIGAND FREE ENERGY PREDICTED BY IDOCK:    4.28 KCAL/MOL
REMARK 924 INTRA-LIGAND FREE ENERGY PREDICTED BY IDOCK:   -0.04 KCAL/MOL
REMARK 927      BINDING AFFINITY PREDICTED BY RF-SCORE:    0.00 PKD
ROOT
HETATM    1  C   UNL     1     -10.128  12.324  68.282  1.00  0.00    -0.218 C  
HETATM    2  C   UNL     1      -9.989  11.950  66.811  1.00  0.00    -0.215 C  
HETATM    3  C   UNL     1      -9.696  10.502  66.626  1.00  0.00    -0.232 A  
HETATM    4  C   UNL     1      -9.003  10.116  65.480  1.00  0.00    -0.172 A  
HETATM    5  C   UNL     1      -8.740   8.787  65.207  1.00  0.00    -0.216 A  
HETATM    6  F   UNL     1      -8.602  11.044  64.601  1.00  0.00    -0.150 F  
HETATM    7  C   UNL     1      -9.150   7.802  66.101  1.00  0.00    -0.153 A  
HETATM    8  C   UNL     1     -12.632  16.216  70.282  1.00  0.00     0.503 C  
HETATM    9  C   UNL     1      -9.865   8.179  67.258  1.00  0.00    -0.197 A  
HETATM   10  H   UNL     1     -11.162  14.119  72.186  1.00  0.00     0.000 HD 
HETATM   11  O   UNL     1     -10.183   7.199  68.161  1.00  0.00    -0.173 OA 
HETATM   12  C   UNL     1     -10.169   9.530  67.517  1.00  0.00    -0.283 A  
HETATM   13  C   UNL     1     -11.479  15.747  69.425  1.00  0.00    -0.355 C  
HETATM   14  O   UNL     1     -14.244  13.467  70.746  1.00  0.00     1.195 OA 
HETATM   15  H   UNL     1     -10.664   7.452  68.939  1.00  0.00     0.000 HD 
HETATM   16  C   UNL     1     -13.120  15.452  71.271  1.00  0.00    -0.564 C  
HETATM   17  C   UNL     1     -11.049   9.961  68.653  1.00  0.00    -0.134 C  
HETATM   18  O   UNL     1     -11.795   9.171  69.227  1.00  0.00     0.581 OA 
HETATM   19  C   UNL     1     -11.064  11.423  69.033  1.00  0.00    -0.300 C  
HETATM   20  C   UNL     1     -10.632  13.752  68.301  1.00  0.00    -0.262 C  
HETATM   21  H   UNL     1     -13.154  17.624  68.907  1.00  0.00     0.000 HD 
HETATM   22  C   UNL     1     -11.830  11.892  70.047  1.00  0.00    -0.328 C  
HETATM   23  C   UNL     1     -11.785  13.349  70.556  1.00  0.00    -0.026 C  
HETATM   24  C   UNL     1     -10.908  14.306  69.703  1.00  0.00    -0.101 C  
HETATM   25  O   UNL     1     -12.592  11.041  70.842  1.00  0.00    -0.351 OA 
HETATM   26  H   UNL     1     -13.130  11.371  71.554  1.00  0.00     0.000 HD 
HETATM   27  C   UNL     1     -13.149  14.014  70.863  1.00  0.00    -0.228 C  
HETATM   28  O   UNL     1     -11.189  13.223  71.872  1.00  0.00     3.062 OA 
HETATM   29  O   UNL     1     -13.499  17.083  69.607  1.00  0.00     5.222 OA 
ENDROOT
BRANCH   7  30
HETATM   30  N   UNL     1      -8.910   6.437  65.850  1.00  0.00    -0.216 N  
HETATM   31  O   UNL     1      -7.629   5.821  67.697  1.00  0.00    -0.087 OA 
HETATM   32  C   UNL     1      -8.100   5.587  66.586  1.00  0.00    -0.105 C  
HETATM   33  H   UNL     1      -9.382   6.032  65.042  1.00  0.00     0.000 HD 
BRANCH  32  34
HETATM   34  C   UNL     1      -7.864   4.236  65.913  1.00  0.00    -0.094 C  
BRANCH  34  35
HETATM   35  N   UNL     1      -8.608   4.120  64.641  1.00  0.00    -0.116 NA 
HETATM   36  C   UNL     1      -7.992   3.148  63.723  1.00  0.00    -0.081 C  
HETATM   37  C   UNL     1      -9.117   2.900  62.739  1.00  0.00    -0.091 C  
HETATM   38  C   UNL     1      -9.970   3.620  64.883  1.00  0.00    -0.137 C  
HETATM   39  C   UNL     1     -10.353   2.853  63.622  1.00  0.00    -0.197 C  
ENDBRANCH  34  35
ENDBRANCH  32  34
ENDBRANCH   7  30
BRANCH  16  40
HETATM   40  C   UNL     1     -12.589  15.929  72.586  1.00  0.00    -0.470 C  
HETATM   41  N   UNL     1     -11.254  15.801  72.803  1.00  0.00     0.116 N  
HETATM   42  H2  UNL     1     -10.639  15.396  72.098  1.00  0.00     0.000 HD 
HETATM   43  H1  UNL     1     -10.892  16.126  73.700  1.00  0.00     0.000 HD 
HETATM   44  O   UNL     1     -13.294  16.371  73.486  1.00  0.00    -0.587 OA 
ENDBRANCH  16  40
BRANCH  13  45
HETATM   45  N   UNL     1     -10.331  16.674  69.285  1.00  0.00    -0.312 NA 
HETATM   46  C   UNL     1      -9.961  16.916  67.893  1.00  0.00    -0.274 C  
HETATM   47  C   UNL     1     -10.490  17.951  69.985  1.00  0.00     1.023 C  
ENDBRANCH  13  45
TORSDOF 5
ENDMDL
MODEL       71
REMARK 921   NORMALIZED FREE ENERGY PREDICTED BY IDOCK:    4.05 KCAL/MOL
REMARK 922        TOTAL FREE ENERGY PREDICTED BY IDOCK:    5.32 KCAL/MOL
REMARK 923 INTER-LIGAND FREE ENERGY PREDICTED BY IDOCK:    4.37 KCAL/MOL
REMARK 924 INTRA-LIGAND FREE ENERGY PREDICTED BY IDOCK:    0.96 KCAL/MOL
REMARK 927      BINDING AFFINITY PREDICTED BY RF-SCORE:    0.00 PKD
ROOT
HETATM    1  C   UNL     1      -7.947  13.632  68.782  1.00  0.00    -0.022 C  
HETATM    2  C   UNL     1      -6.704  12.918  69.299  1.00  0.00    -0.061 C  
HETATM    3  C   UNL     1      -6.873  11.440  69.320  1.00  0.00    -0.119 A  
HETATM    4  C   UNL     1      -6.128  10.708  70.243  1.00  0.00    -0.123 A  
HETATM    5  C   UNL     1      -6.187   9.329  70.290  1.00  0.00    -0.048 A  
HETATM    6  F   UNL     1      -5.310  11.346  71.092  1.00  0.00    -0.110 F  
HETATM    7  C   UNL     1      -7.024   8.641  69.416  1.00  0.00    -0.053 A  
HETATM    8  C   UNL     1      -8.263  18.195  66.660  1.00  0.00    -0.262 C  
HETATM    9  C   UNL     1      -7.773   9.370  68.467  1.00  0.00    -0.085 A  
HETATM   10  H   UNL     1     -10.880  16.394  66.963  1.00  0.00     0.000 HD 
HETATM   11  O   UNL     1      -8.651   8.675  67.676  1.00  0.00    -0.133 OA 
HETATM   12  C   UNL     1      -7.683  10.773  68.391  1.00  0.00    -0.113 A  
HETATM   13  C   UNL     1      -7.961  17.383  67.899  1.00  0.00    -0.218 C  
HETATM   14  O   UNL     1      -8.565  15.884  64.438  1.00  0.00     4.764 OA 
HETATM   15  H   UNL     1      -9.155   9.165  67.037  1.00  0.00     0.000 HD 
HETATM   16  C   UNL     1      -9.125  17.753  65.731  1.00  0.00     0.307 C  
HETATM   17  C   UNL     1      -8.346  11.572  67.309  1.00  0.00    -0.154 C  
HETATM   18  O   UNL     1      -8.738  11.049  66.268  1.00  0.00    -0.165 OA 
HETATM   19  C   UNL     1      -8.453  13.069  67.485  1.00  0.00    -0.190 C  
HETATM   20  C   UNL     1      -7.552  15.084  68.614  1.00  0.00    -0.128 C  
HETATM   21  H   UNL     1      -6.583  19.315  66.917  1.00  0.00     0.000 HD 
HETATM   22  C   UNL     1      -9.037  13.860  66.554  1.00  0.00    -0.143 C  
HETATM   23  C   UNL     1      -9.284  15.373  66.744  1.00  0.00    -0.249 C  
HETATM   24  C   UNL     1      -8.655  15.975  68.030  1.00  0.00    -0.165 C  
HETATM   25  O   UNL     1      -9.636  13.331  65.415  1.00  0.00    -0.494 OA 
HETATM   26  H   UNL     1     -10.046  13.887  64.762  1.00  0.00     0.000 HD 
HETATM   27  C   UNL     1      -8.973  16.280  65.529  1.00  0.00     0.493 C  
HETATM   28  O   UNL     1     -10.728  15.463  66.847  1.00  0.00    -0.306 OA 
HETATM   29  O   UNL     1      -7.193  19.003  66.259  1.00  0.00    -0.226 OA 
ENDROOT
BRANCH   7  30
HETATM   30  N   UNL     1      -7.101   7.235  69.426  1.00  0.00    -0.072 N  
HETATM   31  O   UNL     1      -9.346   6.874  69.941  1.00  0.00    -0.151 OA 
HETATM   32  C   UNL     1      -8.197   6.466  69.783  1.00  0.00    -0.126 C  
HETATM   33  H   UNL     1      -6.262   6.730  69.142  1.00  0.00     0.000 HD 
BRANCH  32  34
HETATM   34  C   UNL     1      -7.879   4.978  69.919  1.00  0.00    -0.070 C  
BRANCH  34  35
HETATM   35  N   UNL     1      -8.926   4.135  69.302  1.00  0.00    -0.099 NA 
HETATM   36  C   UNL     1      -9.323   4.627  67.972  1.00  0.00    -0.135 C  
HETATM   37  C   UNL     1     -10.038   3.419  67.400  1.00  0.00     0.745 C  
HETATM   38  C   UNL     1      -8.427   2.770  69.080  1.00  0.00    -0.063 C  
HETATM   39  C   UNL     1      -9.181   2.252  67.860  1.00  0.00    -0.240 C  
ENDBRANCH  34  35
ENDBRANCH  32  34
ENDBRANCH   7  30
BRANCH  16  40
HETATM   40  C   UNL     1     -10.445  18.433  65.903  1.00  0.00    -0.321 C  
HETATM   41  N   UNL     1     -10.563  19.317  66.928  1.00  0.00    -0.442 N  
HETATM   42  H2  UNL     1      -9.782  19.509  67.555  1.00  0.00     0.000 HD 
HETATM   43  H1  UNL     1     -11.464  19.781  67.046  1.00  0.00     0.000 HD 
HETATM   44  O   UNL     1     -11.430  18.196  65.212  1.00  0.00     0.473 OA 
ENDBRANCH  16  40
BRANCH  13  45
HETATM   45  N   UNL     1      -8.090  18.079  69.201  1.00  0.00    -0.020 NA 
HETATM   46  C   UNL     1      -8.935  19.269  69.129  1.00  0.00    -0.137 C  
HETATM   47  C   UNL     1      -8.529  17.225  70.308  1.00  0.00     3.028 C  
ENDBRANCH  13  45
TORSDOF 5
ENDMDL
MODEL       72
REMARK 921   NORMALIZED FREE ENERGY PREDICTED BY IDOCK:    4.72 KCAL/MOL
REMARK 922        TOTAL FREE ENERGY PREDICTED BY IDOCK:    6.20 KCAL/MOL
REMARK 923 INTER-LIGAND FREE ENERGY PREDICTED BY IDOCK:    6.34 KCAL/MOL
REMARK 924 INTRA-LIGAND FREE ENERGY PREDICTED BY IDOCK:   -0.14 KCAL/MOL
REMARK 927      BINDING AFFINITY PREDICTED BY RF-SCORE:    0.00 PKD
ROOT
HETATM    1  C   UNL     1      -9.751   9.318  66.987  1.00  0.00    -0.241 C  
HETATM    2  C   UNL     1      -9.036  10.663  66.934  1.00  0.00    -0.168 C  
HETATM    3  C   UNL     1      -9.674  11.673  67.822  1.00  0.00    -0.177 A  
HETATM    4  C   UNL     1      -9.537  13.019  67.487  1.00  0.00    -0.204 A  
HETATM    5  C   UNL     1     -10.052  14.020  68.288  1.00  0.00    -0.246 A  
HETATM    6  F   UNL     1      -8.866  13.363  66.379  1.00  0.00    -0.178 F  
HETATM    7  C   UNL     1     -10.749  13.690  69.447  1.00  0.00     0.060 A  
HETATM    8  C   UNL     1      -7.884   4.755  65.931  1.00  0.00    -0.095 C  
HETATM    9  C   UNL     1     -10.883  12.332  69.804  1.00  0.00     0.432 A  
HETATM   10  H   UNL     1     -10.899   5.051  66.934  1.00  0.00     0.000 HD 
HETATM   11  O   UNL     1     -11.643  12.032  70.904  1.00  0.00    -0.178 OA 
HETATM   12  C   UNL     1     -10.322  11.312  69.010  1.00  0.00    -0.189 A  
HETATM   13  C   UNL     1      -8.266   6.126  65.421  1.00  0.00    -0.145 C  
HETATM   14  O   UNL     1      -8.207   5.144  69.111  1.00  0.00    -0.084 OA 
HETATM   15  H   UNL     1     -11.733  11.117  71.145  1.00  0.00     0.000 HD 
HETATM   16  C   UNL     1      -8.504   4.207  66.987  1.00  0.00    -0.100 C  
HETATM   17  C   UNL     1     -10.314   9.871  69.426  1.00  0.00    -0.222 C  
HETATM   18  O   UNL     1     -10.507   9.534  70.592  1.00  0.00    -0.264 OA 
HETATM   19  C   UNL     1      -9.978   8.827  68.387  1.00  0.00    -0.200 C  
HETATM   20  C   UNL     1      -8.874   8.352  66.219  1.00  0.00    -0.190 C  
HETATM   21  H   UNL     1      -6.102   4.827  64.950  1.00  0.00     0.000 HD 
HETATM   22  C   UNL     1      -9.950   7.505  68.682  1.00  0.00    -0.172 C  
HETATM   23  C   UNL     1      -9.739   6.393  67.632  1.00  0.00    -0.118 C  
HETATM   24  C   UNL     1      -9.385   6.907  66.208  1.00  0.00    -0.144 C  
HETATM   25  O   UNL     1     -10.299   7.029  69.942  1.00  0.00    -0.200 OA 
HETATM   26  H   UNL     1     -10.279   6.101  70.149  1.00  0.00     0.000 HD 
HETATM   27  C   UNL     1      -8.785   5.241  68.030  1.00  0.00    -0.102 C  
HETATM   28  O   UNL     1     -11.029   5.735  67.580  1.00  0.00    -0.241 OA 
HETATM   29  O   UNL     1      -6.541   4.439  65.697  1.00  0.00    -0.042 OA 
ENDROOT
BRANCH   7  30
HETATM   30  N   UNL     1     -11.277  14.684  70.294  1.00  0.00    -0.429 N  
HETATM   31  O   UNL     1     -13.563  14.236  70.201  1.00  0.00     0.457 OA 
HETATM   32  C   UNL     1     -12.618  14.951  70.523  1.00  0.00    -0.360 C  
HETATM   33  H   UNL     1     -10.604  15.268  70.789  1.00  0.00     0.000 HD 
BRANCH  32  34
HETATM   34  C   UNL     1     -12.856  16.244  71.303  1.00  0.00     0.786 C  
BRANCH  34  35
HETATM   35  N   UNL     1     -12.646  16.055  72.754  1.00  0.00    -0.457 NA 
HETATM   36  C   UNL     1     -12.361  14.652  73.097  1.00  0.00    -0.244 C  
HETATM   37  C   UNL     1     -11.783  14.788  74.491  1.00  0.00     0.981 C  
HETATM   38  C   UNL     1     -11.472  16.814  73.211  1.00  0.00     0.689 C  
HETATM   39  C   UNL     1     -10.910  16.028  74.390  1.00  0.00     4.765 C  
ENDBRANCH  34  35
ENDBRANCH  32  34
ENDBRANCH   7  30
BRANCH  16  40
HETATM   40  C   UNL     1      -9.516   3.211  66.517  1.00  0.00    -0.045 C  
HETATM   41  N   UNL     1      -9.834   2.197  67.364  1.00  0.00    -0.184 N  
HETATM   42  H2  UNL     1      -9.400   2.119  68.283  1.00  0.00     0.000 HD 
HETATM   43  H1  UNL     1     -10.524   1.518  67.042  1.00  0.00     0.000 HD 
HETATM   44  O   UNL     1     -10.024   3.230  65.401  1.00  0.00    -0.004 OA 
ENDBRANCH  16  40
BRANCH  13  45
HETATM   45  N   UNL     1      -8.564   6.240  63.973  1.00  0.00     0.211 NA 
HETATM   46  C   UNL     1      -7.792   5.305  63.158  1.00  0.00    -0.084 C  
HETATM   47  C   UNL     1      -9.986   6.137  63.633  1.00  0.00     3.659 C  
ENDBRANCH  13  45
TORSDOF 5
ENDMDL
MODEL       73
REMARK 921   NORMALIZED FREE ENERGY PREDICTED BY IDOCK:   18.46 KCAL/MOL
REMARK 922        TOTAL FREE ENERGY PREDICTED BY IDOCK:   23.95 KCAL/MOL
REMARK 923 INTER-LIGAND FREE ENERGY PREDICTED BY IDOCK:   22.28 KCAL/MOL
REMARK 924 INTRA-LIGAND FREE ENERGY PREDICTED BY IDOCK:    1.67 KCAL/MOL
REMARK 927      BINDING AFFINITY PREDICTED BY RF-SCORE:    0.00 PKD
ROOT
HETATM    1  C   UNL     1      -9.789   9.742  67.930  1.00  0.00    -0.176 C  
HETATM    2  C   UNL     1     -11.063  10.570  68.042  1.00  0.00    -0.361 C  
HETATM    3  C   UNL     1     -10.828  11.873  68.721  1.00  0.00    -0.270 A  
HETATM    4  C   UNL     1     -11.897  12.463  69.393  1.00  0.00    -0.304 A  
HETATM    5  C   UNL     1     -11.776  13.697  70.003  1.00  0.00    -0.319 A  
HETATM    6  F   UNL     1     -13.084  11.841  69.432  1.00  0.00     0.415 F  
HETATM    7  C   UNL     1     -10.557  14.368  69.973  1.00  0.00     0.248 A  
HETATM    8  C   UNL     1      -8.712   6.117  64.596  1.00  0.00     0.220 C  
HETATM    9  C   UNL     1      -9.471  13.787  69.284  1.00  0.00     0.521 A  
HETATM   10  H   UNL     1      -6.539   6.981  66.768  1.00  0.00     0.000 HD 
HETATM   11  O   UNL     1      -8.261  14.429  69.341  1.00  0.00    -0.360 OA 
HETATM   12  C   UNL     1      -9.605  12.548  68.627  1.00  0.00    -0.029 A  
HETATM   13  C   UNL     1      -9.569   6.568  65.755  1.00  0.00     0.330 C  
HETATM   14  O   UNL     1      -7.113   8.822  63.890  1.00  0.00    -0.090 OA 
HETATM   15  H   UNL     1      -7.530  14.038  68.877  1.00  0.00     0.000 HD 
HETATM   16  C   UNL     1      -7.460   6.572  64.436  1.00  0.00    -0.091 C  
HETATM   17  C   UNL     1      -8.525  11.966  67.763  1.00  0.00    -0.154 C  
HETATM   18  O   UNL     1      -7.605  12.655  67.329  1.00  0.00    -0.153 OA 
HETATM   19  C   UNL     1      -8.633  10.514  67.362  1.00  0.00    -0.122 C  
HETATM   20  C   UNL     1     -10.134   8.567  67.039  1.00  0.00    -0.347 C  
HETATM   21  H   UNL     1     -10.344   5.459  63.574  1.00  0.00     0.000 HD 
HETATM   22  C   UNL     1      -7.700   9.914  66.585  1.00  0.00    -0.106 C  
HETATM   23  C   UNL     1      -7.698   8.406  66.253  1.00  0.00    -0.094 C  
HETATM   24  C   UNL     1      -8.956   7.634  66.740  1.00  0.00    -0.166 C  
HETATM   25  O   UNL     1      -6.552  10.582  66.172  1.00  0.00    -0.106 OA 
HETATM   26  H   UNL     1      -5.897  10.161  65.626  1.00  0.00     0.000 HD 
HETATM   27  C   UNL     1      -7.377   8.023  64.788  1.00  0.00    -0.082 C  
HETATM   28  O   UNL     1      -6.541   7.909  66.973  1.00  0.00    -0.057 OA 
HETATM   29  O   UNL     1      -9.458   5.781  63.460  1.00  0.00     0.894 OA 
ENDROOT
BRANCH   7  30
HETATM   30  N   UNL     1     -10.400  15.633  70.573  1.00  0.00    -0.248 N  
HETATM   31  O   UNL     1      -8.591  15.274  71.998  1.00  0.00     4.546 OA 
HETATM   32  C   UNL     1      -9.523  15.964  71.593  1.00  0.00     4.677 C  
HETATM   33  H   UNL     1     -10.994  16.383  70.219  1.00  0.00     0.000 HD 
BRANCH  32  34
HETATM   34  C   UNL     1      -9.769  17.353  72.180  1.00  0.00     9.179 C  
BRANCH  34  35
HETATM   35  N   UNL     1     -11.205  17.593  72.438  1.00  0.00     1.550 NA 
HETATM   36  C   UNL     1     -12.065  16.623  71.739  1.00  0.00     0.326 C  
HETATM   37  C   UNL     1     -13.380  16.795  72.472  1.00  0.00     2.065 C  
HETATM   38  C   UNL     1     -11.510  17.425  73.867  1.00  0.00     0.918 C  
HETATM   39  C   UNL     1     -12.957  16.948  73.923  1.00  0.00     0.559 C  
ENDBRANCH  34  35
ENDBRANCH  32  34
ENDBRANCH   7  30
BRANCH  16  40
HETATM   40  C   UNL     1      -6.484   5.547  64.920  1.00  0.00    -0.038 C  
HETATM   41  N   UNL     1      -6.949   4.598  65.774  1.00  0.00    -0.061 N  
HETATM   42  H2  UNL     1      -7.923   4.585  66.073  1.00  0.00     0.000 HD 
HETATM   43  H1  UNL     1      -6.283   3.899  66.104  1.00  0.00     0.000 HD 
HETATM   44  O   UNL     1      -5.291   5.552  64.635  1.00  0.00    -0.009 OA 
ENDBRANCH  16  40
BRANCH  13  45
HETATM   45  N   UNL     1     -10.202   5.505  66.572  1.00  0.00    -0.214 NA 
HETATM   46  C   UNL     1     -10.447   4.278  65.817  1.00  0.00    -0.085 C  
HETATM   47  C   UNL     1      -9.494   5.188  67.815  1.00  0.00    -0.128 C  
ENDBRANCH  13  45
TORSDOF 5
ENDMDL
MODEL       74
REMARK 921   NORMALIZED FREE ENERGY PREDICTED BY IDOCK:   24.82 KCAL/MOL
REMARK 922        TOTAL FREE ENERGY PREDICTED BY IDOCK:   32.17 KCAL/MOL
REMARK 923 INTER-LIGAND FREE ENERGY PREDICTED BY IDOCK:   30.41 KCAL/MOL
REMARK 924 INTRA-LIGAND FREE ENERGY PREDICTED BY IDOCK:    1.76 KCAL/MOL
REMARK 927      BINDING AFFINITY PREDICTED BY RF-SCORE:    0.00 PKD
ROOT
HETATM    1  C   UNL     1     -10.822  15.080  68.055  1.00  0.00    -0.270 C  
HETATM    2  C   UNL     1     -12.165  14.399  67.820  1.00  0.00    -0.190 C  
HETATM    3  C   UNL     1     -12.152  12.971  68.240  1.00  0.00    -0.197 A  
HETATM    4  C   UNL     1     -13.030  12.094  67.607  1.00  0.00     3.717 A  
HETATM    5  C   UNL     1     -13.118  10.766  67.976  1.00  0.00     5.984 A  
HETATM    6  F   UNL     1     -13.835  12.546  66.634  1.00  0.00     4.505 F  
HETATM    7  C   UNL     1     -12.299  10.273  68.987  1.00  0.00     0.716 A  
HETATM    8  C   UNL     1      -9.890  19.994  68.689  1.00  0.00    -0.267 C  
HETATM    9  C   UNL     1     -11.415  11.154  69.646  1.00  0.00    -0.310 A  
HETATM   10  H   UNL     1      -7.501  17.885  68.853  1.00  0.00     0.000 HD 
HETATM   11  O   UNL     1     -10.562  10.624  70.579  1.00  0.00    -0.386 OA 
HETATM   12  C   UNL     1     -11.354  12.517  69.298  1.00  0.00    -0.307 A  
HETATM   13  C   UNL     1     -10.360  18.895  67.764  1.00  0.00    -0.421 C  
HETATM   14  O   UNL     1      -9.677  18.425  71.493  1.00  0.00     4.766 OA 
HETATM   15  H   UNL     1      -9.967  11.218  71.022  1.00  0.00     0.000 HD 
HETATM   16  C   UNL     1      -9.017  19.748  69.678  1.00  0.00     0.480 C  
HETATM   17  C   UNL     1     -10.539  13.516  70.066  1.00  0.00     0.992 C  
HETATM   18  O   UNL     1     -10.133  13.281  71.202  1.00  0.00     5.557 OA 
HETATM   19  C   UNL     1     -10.290  14.869  69.442  1.00  0.00    -0.217 C  
HETATM   20  C   UNL     1     -11.052  16.553  67.790  1.00  0.00    -0.179 C  
HETATM   21  H   UNL     1     -11.459  21.180  68.164  1.00  0.00     0.000 HD 
HETATM   22  C   UNL     1      -9.564  15.825  70.071  1.00  0.00     0.122 C  
HETATM   23  C   UNL     1      -9.175  17.173  69.425  1.00  0.00     0.236 C  
HETATM   24  C   UNL     1      -9.826  17.439  68.040  1.00  0.00    -0.288 C  
HETATM   25  O   UNL     1      -8.946  15.588  71.295  1.00  0.00     1.943 OA 
HETATM   26  H   UNL     1      -8.437  16.259  71.736  1.00  0.00     0.000 HD 
HETATM   27  C   UNL     1      -9.307  18.429  70.320  1.00  0.00     2.313 C  
HETATM   28  O   UNL     1      -7.741  17.055  69.250  1.00  0.00    -0.174 OA 
HETATM   29  O   UNL     1     -10.841  21.006  68.864  1.00  0.00     0.596 OA 
ENDROOT
BRANCH   7  30
HETATM   30  N   UNL     1     -12.369   8.927  69.399  1.00  0.00     1.239 N  
HETATM   31  O   UNL     1     -11.746   9.072  71.640  1.00  0.00    -0.311 OA 
HETATM   32  C   UNL     1     -11.996   8.416  70.632  1.00  0.00    -0.026 C  
HETATM   33  H   UNL     1     -12.733   8.260  68.719  1.00  0.00     0.000 HD 
BRANCH  32  34
HETATM   34  C   UNL     1     -11.970   6.889  70.675  1.00  0.00    -0.348 C  
BRANCH  34  35
HETATM   35  N   UNL     1     -10.603   6.359  70.482  1.00  0.00    -0.226 NA 
HETATM   36  C   UNL     1     -10.277   5.298  71.449  1.00  0.00    -0.213 C  
HETATM   37  C   UNL     1      -9.068   4.654  70.801  1.00  0.00    -0.181 C  
HETATM   38  C   UNL     1     -10.474   5.733  69.158  1.00  0.00    -0.276 C  
HETATM   39  C   UNL     1      -9.428   4.636  69.325  1.00  0.00    -0.231 C  
ENDBRANCH  34  35
ENDBRANCH  32  34
ENDBRANCH   7  30
BRANCH  16  40
HETATM   40  C   UNL     1      -7.648  20.183  69.263  1.00  0.00     0.158 C  
HETATM   41  N   UNL     1      -6.870  19.271  68.625  1.00  0.00    -0.287 N  
HETATM   42  H2  UNL     1      -7.206  18.326  68.436  1.00  0.00     0.000 HD 
HETATM   43  H1  UNL     1      -5.936  19.568  68.342  1.00  0.00     0.000 HD 
HETATM   44  O   UNL     1      -7.178  21.287  69.515  1.00  0.00     1.865 OA 
ENDBRANCH  16  40
BRANCH  13  45
HETATM   45  N   UNL     1     -10.249  19.154  66.309  1.00  0.00    -0.423 NA 
HETATM   46  C   UNL     1     -10.496  20.550  65.959  1.00  0.00     0.194 C  
HETATM   47  C   UNL     1      -8.992  18.706  65.704  1.00  0.00     0.754 C  
ENDBRANCH  13  45
TORSDOF 5
ENDMDL
MODEL       75
REMARK 921   NORMALIZED FREE ENERGY PREDICTED BY IDOCK:   24.85 KCAL/MOL
REMARK 922        TOTAL FREE ENERGY PREDICTED BY IDOCK:   32.20 KCAL/MOL
REMARK 923 INTER-LIGAND FREE ENERGY PREDICTED BY IDOCK:   28.31 KCAL/MOL
REMARK 924 INTRA-LIGAND FREE ENERGY PREDICTED BY IDOCK:    3.90 KCAL/MOL
REMARK 927      BINDING AFFINITY PREDICTED BY RF-SCORE:    0.00 PKD
ROOT
HETATM    1  C   UNL     1      -9.402  14.457  66.283  1.00  0.00    -0.261 C  
HETATM    2  C   UNL     1      -9.924  14.015  64.921  1.00  0.00    -0.161 C  
HETATM    3  C   UNL     1      -9.985  12.533  64.797  1.00  0.00    -0.177 A  
HETATM    4  C   UNL     1      -9.881  11.978  63.523  1.00  0.00    -0.289 A  
HETATM    5  C   UNL     1      -9.982  10.615  63.317  1.00  0.00    -0.314 A  
HETATM    6  F   UNL     1      -9.706  12.777  62.462  1.00  0.00     1.332 F  
HETATM    7  C   UNL     1     -10.169   9.763  64.401  1.00  0.00     0.898 A  
HETATM    8  C   UNL     1     -10.193  18.837  68.650  1.00  0.00    -0.313 C  
HETATM    9  C   UNL     1     -10.291  10.314  65.695  1.00  0.00    -0.162 A  
HETATM   10  H   UNL     1      -8.478  16.548  70.065  1.00  0.00     0.000 HD 
HETATM   11  O   UNL     1     -10.391   9.448  66.752  1.00  0.00    -0.251 OA 
HETATM   12  C   UNL     1     -10.228  11.706  65.901  1.00  0.00    -0.277 A  
HETATM   13  C   UNL     1      -9.574  18.118  67.475  1.00  0.00    -0.280 C  
HETATM   14  O   UNL     1     -11.941  16.488  69.991  1.00  0.00     0.193 OA 
HETATM   15  H   UNL     1     -10.473   9.818  67.622  1.00  0.00     0.000 HD 
HETATM   16  C   UNL     1     -10.375  18.221  69.828  1.00  0.00     0.755 C  
HETATM   17  C   UNL     1     -10.497  12.343  67.233  1.00  0.00    -0.222 C  
HETATM   18  O   UNL     1     -11.080  11.739  68.131  1.00  0.00    -0.212 OA 
HETATM   19  C   UNL     1     -10.106  13.788  67.428  1.00  0.00    -0.244 C  
HETATM   20  C   UNL     1      -9.602  15.957  66.337  1.00  0.00    -0.313 C  
HETATM   21  H   UNL     1     -10.963  20.277  67.434  1.00  0.00     0.000 HD 
HETATM   22  C   UNL     1     -10.314  14.435  68.600  1.00  0.00    -0.245 C  
HETATM   23  C   UNL     1      -9.819  15.868  68.892  1.00  0.00    -0.226 C  
HETATM   24  C   UNL     1      -9.199  16.600  67.669  1.00  0.00    -0.208 C  
HETATM   25  O   UNL     1     -10.835  13.783  69.714  1.00  0.00    -0.457 OA 
HETATM   26  H   UNL     1     -10.981  14.237  70.536  1.00  0.00     0.000 HD 
HETATM   27  C   UNL     1     -10.812  16.806  69.621  1.00  0.00    -0.204 C  
HETATM   28  O   UNL     1      -8.783  15.666  69.886  1.00  0.00    -0.102 OA 
HETATM   29  O   UNL     1     -11.091  19.841  68.268  1.00  0.00     0.182 OA 
ENDROOT
BRANCH   7  30
HETATM   30  N   UNL     1     -10.290   8.370  64.228  1.00  0.00     4.030 N  
HETATM   31  O   UNL     1     -10.684   7.642  66.407  1.00  0.00     0.103 OA 
HETATM   32  C   UNL     1     -10.428   7.419  65.226  1.00  0.00     3.982 C  
HETATM   33  H   UNL     1     -10.274   8.026  63.268  1.00  0.00     0.000 HD 
BRANCH  32  34
HETATM   34  C   UNL     1     -10.290   5.983  64.722  1.00  0.00     2.916 C  
BRANCH  34  35
HETATM   35  N   UNL     1      -9.900   5.057  65.807  1.00  0.00    -0.154 NA 
HETATM   36  C   UNL     1      -9.572   5.767  67.054  1.00  0.00    -0.135 C  
HETATM   37  C   UNL     1      -9.631   4.645  68.070  1.00  0.00    -0.207 C  
HETATM   38  C   UNL     1     -11.014   4.161  66.148  1.00  0.00     1.384 C  
HETATM   39  C   UNL     1     -10.834   3.830  67.626  1.00  0.00     3.153 C  
ENDBRANCH  34  35
ENDBRANCH  32  34
ENDBRANCH   7  30
BRANCH  16  40
HETATM   40  C   UNL     1      -9.293  18.621  70.780  1.00  0.00     3.747 C  
HETATM   41  N   UNL     1      -9.308  18.055  72.015  1.00  0.00    10.129 N  
HETATM   42  H2  UNL     1     -10.028  17.385  72.282  1.00  0.00     0.000 HD 
HETATM   43  H1  UNL     1      -8.570  18.329  72.664  1.00  0.00     0.000 HD 
HETATM   44  O   UNL     1      -8.439  19.464  70.526  1.00  0.00     1.441 OA 
ENDBRANCH  16  40
BRANCH  13  45
HETATM   45  N   UNL     1      -8.433  18.787  66.808  1.00  0.00    -0.277 NA 
HETATM   46  C   UNL     1      -7.434  17.846  66.306  1.00  0.00    -0.286 C  
HETATM   47  C   UNL     1      -8.810  19.722  65.745  1.00  0.00     0.037 C  
ENDBRANCH  13  45
TORSDOF 5
ENDMDL
MODEL       76
REMARK 921   NORMALIZED FREE ENERGY PREDICTED BY IDOCK:   28.30 KCAL/MOL
REMARK 922        TOTAL FREE ENERGY PREDICTED BY IDOCK:   36.67 KCAL/MOL
REMARK 923 INTER-LIGAND FREE ENERGY PREDICTED BY IDOCK:   36.48 KCAL/MOL
REMARK 924 INTRA-LIGAND FREE ENERGY PREDICTED BY IDOCK:    0.19 KCAL/MOL
REMARK 927      BINDING AFFINITY PREDICTED BY RF-SCORE:    0.00 PKD
ROOT
HETATM    1  C   UNL     1     -11.736  10.513  69.535  1.00  0.00    -0.313 C  
HETATM    2  C   UNL     1     -12.823  11.576  69.627  1.00  0.00     0.452 C  
HETATM    3  C   UNL     1     -12.310  12.934  69.297  1.00  0.00     0.045 A  
HETATM    4  C   UNL     1     -12.958  14.033  69.858  1.00  0.00     0.365 A  
HETATM    5  C   UNL     1     -12.578  15.327  69.559  1.00  0.00    -0.021 A  
HETATM    6  F   UNL     1     -13.995  13.842  70.686  1.00  0.00     0.011 F  
HETATM    7  C   UNL     1     -11.508  15.553  68.699  1.00  0.00    -0.359 A  
HETATM    8  C   UNL     1     -12.279   5.563  68.741  1.00  0.00     5.871 C  
HETATM    9  C   UNL     1     -10.852  14.449  68.114  1.00  0.00    -0.244 A  
HETATM   10  H   UNL     1      -9.360   6.821  69.025  1.00  0.00     0.000 HD 
HETATM   11  O   UNL     1      -9.751  14.698  67.337  1.00  0.00    -0.215 OA 
HETATM   12  C   UNL     1     -11.265  13.130  68.385  1.00  0.00    -0.305 A  
HETATM   13  C   UNL     1     -12.517   6.741  69.658  1.00  0.00     1.376 C  
HETATM   14  O   UNL     1     -11.187   7.027  66.089  1.00  0.00     1.156 OA 
HETATM   15  H   UNL     1      -9.309  13.955  66.943  1.00  0.00     0.000 HD 
HETATM   16  C   UNL     1     -11.238   5.538  67.895  1.00  0.00     0.715 C  
HETATM   17  C   UNL     1     -10.694  11.938  67.676  1.00  0.00    -0.215 C  
HETATM   18  O   UNL     1     -10.074  12.051  66.621  1.00  0.00    -0.196 OA 
HETATM   19  C   UNL     1     -10.968  10.566  68.246  1.00  0.00    -0.314 C  
HETATM   20  C   UNL     1     -12.444   9.182  69.678  1.00  0.00     1.563 C  
HETATM   21  H   UNL     1     -14.196   4.921  68.980  1.00  0.00     0.000 HD 
HETATM   22  C   UNL     1     -10.488   9.440  67.665  1.00  0.00    -0.268 C  
HETATM   23  C   UNL     1     -10.631   8.029  68.276  1.00  0.00    -0.101 C  
HETATM   24  C   UNL     1     -11.527   7.961  69.544  1.00  0.00     0.378 C  
HETATM   25  O   UNL     1      -9.655   9.489  66.551  1.00  0.00    -0.172 OA 
HETATM   26  H   UNL     1      -9.319   8.699  66.144  1.00  0.00     0.000 HD 
HETATM   27  C   UNL     1     -11.011   6.890  67.299  1.00  0.00    -0.336 C  
HETATM   28  O   UNL     1      -9.272   7.689  68.649  1.00  0.00    -0.142 OA 
HETATM   29  O   UNL     1     -13.459   4.902  68.381  1.00  0.00    18.808 OA 
ENDROOT
BRANCH   7  30
HETATM   30  N   UNL     1     -11.100  16.859  68.361  1.00  0.00    -0.297 N  
HETATM   31  O   UNL     1     -13.021  18.100  68.813  1.00  0.00     7.123 OA 
HETATM   32  C   UNL     1     -11.892  17.996  68.339  1.00  0.00     2.616 C  
HETATM   33  H   UNL     1     -10.120  16.980  68.107  1.00  0.00     0.000 HD 
BRANCH  32  34
HETATM   34  C   UNL     1     -11.207  19.203  67.699  1.00  0.00     0.148 C  
BRANCH  34  35
HETATM   35  N   UNL     1      -9.807  18.906  67.331  1.00  0.00    -0.314 NA 
HETATM   36  C   UNL     1      -9.393  19.609  66.105  1.00  0.00    -0.351 C  
HETATM   37  C   UNL     1      -7.884  19.498  66.182  1.00  0.00    -0.326 C  
HETATM   38  C   UNL     1      -8.886  19.374  68.378  1.00  0.00    -0.352 C  
HETATM   39  C   UNL     1      -7.589  19.724  67.656  1.00  0.00    -0.317 C  
ENDBRANCH  34  35
ENDBRANCH  32  34
ENDBRANCH   7  30
BRANCH  16  40
HETATM   40  C   UNL     1     -10.146   4.690  68.463  1.00  0.00    -0.007 C  
HETATM   41  N   UNL     1     -10.355   4.141  69.688  1.00  0.00     0.423 N  
HETATM   42  H2  UNL     1     -11.223   4.301  70.200  1.00  0.00     0.000 HD 
HETATM   43  H1  UNL     1      -9.609   3.563  70.076  1.00  0.00     0.000 HD 
HETATM   44  O   UNL     1      -9.064   4.513  67.914  1.00  0.00    -0.112 OA 
ENDBRANCH  16  40
BRANCH  13  45
HETATM   45  N   UNL     1     -12.705   6.440  71.097  1.00  0.00     0.125 NA 
HETATM   46  C   UNL     1     -12.040   7.402  71.972  1.00  0.00    -0.289 C  
HETATM   47  C   UNL     1     -14.102   6.279  71.509  1.00  0.00     0.872 C  
ENDBRANCH  13  45
TORSDOF 5
ENDMDL
MODEL       77
REMARK 921   NORMALIZED FREE ENERGY PREDICTED BY IDOCK:   30.04 KCAL/MOL
REMARK 922        TOTAL FREE ENERGY PREDICTED BY IDOCK:   38.92 KCAL/MOL
REMARK 923 INTER-LIGAND FREE ENERGY PREDICTED BY IDOCK:   38.72 KCAL/MOL
REMARK 924 INTRA-LIGAND FREE ENERGY PREDICTED BY IDOCK:    0.20 KCAL/MOL
REMARK 927      BINDING AFFINITY PREDICTED BY RF-SCORE:    0.00 PKD
ROOT
HETATM    1  C   UNL     1     -10.861  10.565  66.584  1.00  0.00    -0.166 C  
HETATM    2  C   UNL     1     -11.826   9.437  66.239  1.00  0.00     5.200 C  
HETATM    3  C   UNL     1     -11.499   8.178  66.963  1.00  0.00     1.851 A  
HETATM    4  C   UNL     1     -11.874   6.970  66.377  1.00  0.00     3.614 A  
HETATM    5  C   UNL     1     -11.656   5.761  67.009  1.00  0.00     1.200 A  
HETATM    6  F   UNL     1     -12.486   6.972  65.184  1.00  0.00     7.183 F  
HETATM    7  C   UNL     1     -11.026   5.732  68.249  1.00  0.00    -0.064 A  
HETATM    8  C   UNL     1     -11.643  15.537  66.278  1.00  0.00     0.211 C  
HETATM    9  C   UNL     1     -10.655   6.949  68.860  1.00  0.00    -0.221 A  
HETATM   10  H   UNL     1      -8.868  14.426  67.393  1.00  0.00     0.000 HD 
HETATM   11  O   UNL     1      -9.963   6.886  70.041  1.00  0.00    -0.179 OA 
HETATM   12  C   UNL     1     -10.913   8.185  68.235  1.00  0.00     0.163 A  
HETATM   13  C   UNL     1     -11.499  14.221  65.547  1.00  0.00    -0.329 C  
HETATM   14  O   UNL     1     -11.726  14.559  69.345  1.00  0.00    -0.281 OA 
HETATM   15  H   UNL     1      -9.713   7.705  70.452  1.00  0.00     0.000 HD 
HETATM   16  C   UNL     1     -11.033  15.751  67.453  1.00  0.00    -0.279 C  
HETATM   17  C   UNL     1     -10.670   9.502  68.909  1.00  0.00    -0.195 C  
HETATM   18  O   UNL     1     -10.530   9.588  70.127  1.00  0.00    -0.217 OA 
HETATM   19  C   UNL     1     -10.679  10.753  68.063  1.00  0.00    -0.270 C  
HETATM   20  C   UNL     1     -11.441  11.814  65.955  1.00  0.00    -0.281 C  
HETATM   21  H   UNL     1     -13.296  16.021  65.192  1.00  0.00     0.000 HD 
HETATM   22  C   UNL     1     -10.467  11.981  68.595  1.00  0.00    -0.218 C  
HETATM   23  C   UNL     1     -10.341  13.272  67.757  1.00  0.00    -0.233 C  
HETATM   24  C   UNL     1     -10.648  13.094  66.244  1.00  0.00    -0.292 C  
HETATM   25  O   UNL     1     -10.156  12.151  69.941  1.00  0.00     0.550 OA 
HETATM   26  H   UNL     1     -10.007  13.012  70.314  1.00  0.00     0.000 HD 
HETATM   27  C   UNL     1     -11.075  14.521  68.302  1.00  0.00    -0.261 C  
HETATM   28  O   UNL     1      -8.945  13.631  67.908  1.00  0.00    -0.176 OA 
HETATM   29  O   UNL     1     -12.864  16.173  66.024  1.00  0.00     2.844 OA 
ENDROOT
BRANCH   7  30
HETATM   30  N   UNL     1     -10.799   4.519  68.929  1.00  0.00     1.211 N  
HETATM   31  O   UNL     1     -11.081   2.949  67.229  1.00  0.00     5.195 OA 
HETATM   32  C   UNL     1     -10.943   3.240  68.415  1.00  0.00     5.574 C  
HETATM   33  H   UNL     1     -10.498   4.590  69.901  1.00  0.00     0.000 HD 
BRANCH  32  34
HETATM   34  C   UNL     1     -10.854   2.144  69.475  1.00  0.00     4.040 C  
BRANCH  34  35
HETATM   35  N   UNL     1     -10.350   2.667  70.763  1.00  0.00     0.776 NA 
HETATM   36  C   UNL     1     -11.258   2.360  71.881  1.00  0.00     1.707 C  
HETATM   37  C   UNL     1     -10.360   2.597  73.079  1.00  0.00    -0.235 C  
HETATM   38  C   UNL     1      -9.070   2.033  71.114  1.00  0.00    -0.093 C  
HETATM   39  C   UNL     1      -9.025   2.019  72.638  1.00  0.00    -0.087 C  
ENDBRANCH  34  35
ENDBRANCH  32  34
ENDBRANCH   7  30
BRANCH  16  40
HETATM   40  C   UNL     1      -9.798  16.567  67.239  1.00  0.00    -0.254 C  
HETATM   41  N   UNL     1      -9.185  16.465  66.031  1.00  0.00    -0.320 N  
HETATM   42  H2  UNL     1      -9.552  15.857  65.299  1.00  0.00     0.000 HD 
HETATM   43  H1  UNL     1      -8.342  17.022  65.885  1.00  0.00     0.000 HD 
HETATM   44  O   UNL     1      -9.286  17.269  68.104  1.00  0.00    -0.252 OA 
ENDBRANCH  16  40
BRANCH  13  45
HETATM   45  N   UNL     1     -11.088  14.289  64.125  1.00  0.00    -0.060 NA 
HETATM   46  C   UNL     1     -11.875  13.412  63.262  1.00  0.00    -0.141 C  
HETATM   47  C   UNL     1     -11.058  15.642  63.562  1.00  0.00     2.503 C  
ENDBRANCH  13  45
TORSDOF 5
ENDMDL
MODEL       78
REMARK 921   NORMALIZED FREE ENERGY PREDICTED BY IDOCK:   48.74 KCAL/MOL
REMARK 922        TOTAL FREE ENERGY PREDICTED BY IDOCK:   63.08 KCAL/MOL
REMARK 923 INTER-LIGAND FREE ENERGY PREDICTED BY IDOCK:   62.74 KCAL/MOL
REMARK 924 INTRA-LIGAND FREE ENERGY PREDICTED BY IDOCK:    0.34 KCAL/MOL
REMARK 927      BINDING AFFINITY PREDICTED BY RF-SCORE:    0.00 PKD
ROOT
HETATM    1  C   UNL     1      -8.500  13.587  70.547  1.00  0.00     4.624 C  
HETATM    2  C   UNL     1      -7.527  12.649  69.843  1.00  0.00     1.304 C  
HETATM    3  C   UNL     1      -8.141  11.329  69.535  1.00  0.00     0.378 A  
HETATM    4  C   UNL     1      -7.300  10.222  69.437  1.00  0.00    -0.115 A  
HETATM    5  C   UNL     1      -7.785   8.973  69.101  1.00  0.00    -0.092 A  
HETATM    6  F   UNL     1      -5.984  10.367  69.644  1.00  0.00    -0.040 F  
HETATM    7  C   UNL     1      -9.147   8.796  68.876  1.00  0.00    -0.141 A  
HETATM    8  C   UNL     1      -8.429  18.626  70.678  1.00  0.00     3.942 C  
HETATM    9  C   UNL     1     -10.007   9.912  68.959  1.00  0.00    -0.187 A  
HETATM   10  H   UNL     1     -10.783  17.028  72.123  1.00  0.00     0.000 HD 
HETATM   11  O   UNL     1     -11.352   9.694  68.814  1.00  0.00    -0.469 OA 
HETATM   12  C   UNL     1      -9.508  11.194  69.261  1.00  0.00     0.095 A  
HETATM   13  C   UNL     1      -7.754  17.331  71.069  1.00  0.00     5.863 C  
HETATM   14  O   UNL     1     -10.743  17.573  68.702  1.00  0.00    -0.318 OA 
HETATM   15  H   UNL     1     -11.931  10.445  68.870  1.00  0.00     0.000 HD 
HETATM   16  C   UNL     1      -9.758  18.695  70.505  1.00  0.00     2.261 C  
HETATM   17  C   UNL     1     -10.360  12.428  69.215  1.00  0.00     0.301 C  
HETATM   18  O   UNL     1     -11.437  12.447  68.625  1.00  0.00    -0.254 OA 
HETATM   19  C   UNL     1      -9.826  13.691  69.849  1.00  0.00     1.620 C  
HETATM   20  C   UNL     1      -7.816  14.936  70.596  1.00  0.00     1.376 C  
HETATM   21  H   UNL     1      -6.664  19.418  70.045  1.00  0.00     0.000 HD 
HETATM   22  C   UNL     1     -10.533  14.846  69.851  1.00  0.00    -0.084 C  
HETATM   23  C   UNL     1     -10.088  16.126  70.593  1.00  0.00     0.943 C  
HETATM   24  C   UNL     1      -8.665  16.054  71.212  1.00  0.00     5.002 C  
HETATM   25  O   UNL     1     -11.822  14.916  69.332  1.00  0.00    -0.298 OA 
HETATM   26  H   UNL     1     -12.318  15.727  69.333  1.00  0.00     0.000 HD 
HETATM   27  C   UNL     1     -10.266  17.461  69.831  1.00  0.00     0.425 C  
HETATM   28  O   UNL     1     -11.056  16.240  71.666  1.00  0.00    -0.014 OA 
HETATM   29  O   UNL     1      -7.604  19.467  69.922  1.00  0.00     0.040 OA 
ENDROOT
BRANCH   7  30
HETATM   30  N   UNL     1      -9.675   7.540  68.519  1.00  0.00    -0.154 N  
HETATM   31  O   UNL     1     -11.437   7.307  70.028  1.00  0.00    -0.214 OA 
HETATM   32  C   UNL     1     -10.687   6.850  69.169  1.00  0.00    -0.234 C  
HETATM   33  H   UNL     1      -9.270   7.091  67.698  1.00  0.00     0.000 HD 
BRANCH  32  34
HETATM   34  C   UNL     1     -10.858   5.414  68.676  1.00  0.00     0.090 C  
BRANCH  34  35
HETATM   35  N   UNL     1     -10.790   5.329  67.202  1.00  0.00    -0.056 NA 
HETATM   36  C   UNL     1      -9.403   5.262  66.712  1.00  0.00    -0.134 C  
HETATM   37  C   UNL     1      -9.602   4.764  65.295  1.00  0.00    -0.126 C  
HETATM   38  C   UNL     1     -11.432   4.095  66.725  1.00  0.00     4.959 C  
HETATM   39  C   UNL     1     -10.702   3.725  65.438  1.00  0.00     0.496 C  
ENDBRANCH  34  35
ENDBRANCH  32  34
ENDBRANCH   7  30
BRANCH  16  40
HETATM   40  C   UNL     1     -10.394  19.298  71.716  1.00  0.00     3.379 C  
HETATM   41  N   UNL     1     -11.583  19.934  71.545  1.00  0.00     7.242 N  
HETATM   42  H2  UNL     1     -12.023  19.997  70.628  1.00  0.00     0.000 HD 
HETATM   43  H1  UNL     1     -12.017  20.345  72.372  1.00  0.00     0.000 HD 
HETATM   44  O   UNL     1      -9.880  19.298  72.829  1.00  0.00     3.082 OA 
ENDBRANCH  16  40
BRANCH  13  45
HETATM   45  N   UNL     1      -6.847  17.377  72.239  1.00  0.00     6.173 NA 
HETATM   46  C   UNL     1      -7.188  16.393  73.263  1.00  0.00    11.254 C  
HETATM   47  C   UNL     1      -5.422  17.278  71.911  1.00  0.00     0.816 C  
ENDBRANCH  13  45
TORSDOF 5
ENDMDL
MODEL       79
REMARK 921   NORMALIZED FREE ENERGY PREDICTED BY IDOCK:   54.94 KCAL/MOL
REMARK 922        TOTAL FREE ENERGY PREDICTED BY IDOCK:   71.09 KCAL/MOL
REMARK 923 INTER-LIGAND FREE ENERGY PREDICTED BY IDOCK:   67.46 KCAL/MOL
REMARK 924 INTRA-LIGAND FREE ENERGY PREDICTED BY IDOCK:    3.63 KCAL/MOL
REMARK 927      BINDING AFFINITY PREDICTED BY RF-SCORE:    0.00 PKD
ROOT
HETATM    1  C   UNL     1     -10.056   9.313  65.099  1.00  0.00     0.603 C  
HETATM    2  C   UNL     1      -9.073  10.377  64.625  1.00  0.00    -0.255 C  
HETATM    3  C   UNL     1      -9.492  11.748  65.024  1.00  0.00    -0.080 A  
HETATM    4  C   UNL     1      -9.070  12.817  64.236  1.00  0.00     1.543 A  
HETATM    5  C   UNL     1      -9.371  14.124  64.569  1.00  0.00     2.295 A  
HETATM    6  F   UNL     1      -8.329  12.586  63.143  1.00  0.00     1.551 F  
HETATM    7  C   UNL     1     -10.134  14.392  65.701  1.00  0.00    -0.353 A  
HETATM    8  C   UNL     1      -9.184   4.420  65.945  1.00  0.00    -0.140 C  
HETATM    9  C   UNL     1     -10.556  13.319  66.515  1.00  0.00    -0.286 A  
HETATM   10  H   UNL     1     -12.080   5.643  66.499  1.00  0.00     0.000 HD 
HETATM   11  O   UNL     1     -11.374  13.605  67.576  1.00  0.00    -0.283 OA 
HETATM   12  C   UNL     1     -10.215  11.989  66.199  1.00  0.00    -0.255 A  
HETATM   13  C   UNL     1      -9.263   5.546  64.940  1.00  0.00     0.231 C  
HETATM   14  O   UNL     1      -9.453   6.025  68.724  1.00  0.00    -0.124 OA 
HETATM   15  H   UNL     1     -11.658  12.883  68.124  1.00  0.00     0.000 HD 
HETATM   16  C   UNL     1      -9.918   4.437  67.068  1.00  0.00    -0.197 C  
HETATM   17  C   UNL     1     -10.516  10.836  67.110  1.00  0.00    -0.237 C  
HETATM   18  O   UNL     1     -10.788  11.004  68.296  1.00  0.00    -0.185 OA 
HETATM   19  C   UNL     1     -10.397   9.435  66.556  1.00  0.00    -0.268 C  
HETATM   20  C   UNL     1      -9.395   7.981  64.816  1.00  0.00     1.123 C  
HETATM   21  H   UNL     1      -7.417   3.776  65.168  1.00  0.00     0.000 HD 
HETATM   22  C   UNL     1     -10.652   8.341  67.312  1.00  0.00    -0.265 C  
HETATM   23  C   UNL     1     -10.669   6.899  66.762  1.00  0.00    -0.226 C  
HETATM   24  C   UNL     1     -10.199   6.764  65.286  1.00  0.00     2.515 C  
HETATM   25  O   UNL     1     -11.108   8.448  68.623  1.00  0.00    -0.422 OA 
HETATM   26  H   UNL     1     -11.287   7.680  69.154  1.00  0.00     0.000 HD 
HETATM   27  C   UNL     1      -9.985   5.819  67.635  1.00  0.00    -0.140 C  
HETATM   28  O   UNL     1     -12.069   6.530  66.838  1.00  0.00     1.495 OA 
HETATM   29  O   UNL     1      -7.936   3.788  65.963  1.00  0.00    -0.089 OA 
ENDROOT
BRANCH   7  30
HETATM   30  N   UNL     1     -10.449  15.712  66.078  1.00  0.00    -0.315 N  
HETATM   31  O   UNL     1     -11.018  15.453  68.324  1.00  0.00    -0.265 OA 
HETATM   32  C   UNL     1     -10.959  16.127  67.299  1.00  0.00    -0.175 C  
HETATM   33  H   UNL     1     -10.287  16.438  65.381  1.00  0.00     0.000 HD 
BRANCH  32  34
HETATM   34  C   UNL     1     -11.417  17.585  67.303  1.00  0.00     0.906 C  
BRANCH  34  35
HETATM   35  N   UNL     1     -12.283  17.884  68.464  1.00  0.00     3.052 NA 
HETATM   36  C   UNL     1     -12.025  16.980  69.597  1.00  0.00     2.036 C  
HETATM   37  C   UNL     1     -12.682  17.728  70.740  1.00  0.00    11.800 C  
HETATM   38  C   UNL     1     -12.016  19.236  68.974  1.00  0.00     5.952 C  
HETATM   39  C   UNL     1     -12.320  19.178  70.467  1.00  0.00    15.771 C  
ENDBRANCH  34  35
ENDBRANCH  32  34
ENDBRANCH   7  30
BRANCH  16  40
HETATM   40  C   UNL     1     -11.112   3.552  66.905  1.00  0.00     4.777 C  
HETATM   41  N   UNL     1     -11.427   3.156  65.644  1.00  0.00     3.368 N  
HETATM   42  H2  UNL     1     -10.872   3.451  64.841  1.00  0.00     0.000 HD 
HETATM   43  H1  UNL     1     -12.242   2.552  65.532  1.00  0.00     0.000 HD 
HETATM   44  O   UNL     1     -11.844   3.215  67.830  1.00  0.00    11.155 OA 
ENDBRANCH  16  40
BRANCH  13  45
HETATM   45  N   UNL     1      -9.514   5.165  63.530  1.00  0.00     0.379 NA 
HETATM   46  C   UNL     1      -8.655   4.075  63.072  1.00  0.00    -0.094 C  
HETATM   47  C   UNL     1     -10.913   4.856  63.221  1.00  0.00     1.564 C  
ENDBRANCH  13  45
TORSDOF 5
ENDMDL
MODEL       80
REMARK 921   NORMALIZED FREE ENERGY PREDICTED BY IDOCK:   90.02 KCAL/MOL
REMARK 922        TOTAL FREE ENERGY PREDICTED BY IDOCK:  116.43 KCAL/MOL
REMARK 923 INTER-LIGAND FREE ENERGY PREDICTED BY IDOCK:  115.93 KCAL/MOL
REMARK 924 INTRA-LIGAND FREE ENERGY PREDICTED BY IDOCK:    0.50 KCAL/MOL
REMARK 927      BINDING AFFINITY PREDICTED BY RF-SCORE:    0.00 PKD
ROOT
HETATM    1  C   UNL     1      -7.435  13.306  67.244  1.00  0.00    -0.069 C  
HETATM    2  C   UNL     1      -6.370  12.711  68.157  1.00  0.00    -0.080 C  
HETATM    3  C   UNL     1      -6.417  11.223  68.179  1.00  0.00    -0.056 A  
HETATM    4  C   UNL     1      -5.950  10.571  69.319  1.00  0.00    -0.038 A  
HETATM    5  C   UNL     1      -5.910   9.192  69.397  1.00  0.00    -0.034 A  
HETATM    6  F   UNL     1      -5.501  11.288  70.358  1.00  0.00    -0.073 F  
HETATM    7  C   UNL     1      -6.365   8.424  68.330  1.00  0.00    -0.055 A  
HETATM    8  C   UNL     1      -7.422  17.800  64.958  1.00  0.00     2.409 C  
HETATM    9  C   UNL     1      -6.827   9.072  67.165  1.00  0.00    -0.074 A  
HETATM   10  H   UNL     1      -9.844  15.777  64.483  1.00  0.00     0.000 HD 
HETATM   11  O   UNL     1      -7.347   8.294  66.164  1.00  0.00    -0.075 OA 
HETATM   12  C   UNL     1      -6.831  10.478  67.068  1.00  0.00    -0.087 A  
HETATM   13  C   UNL     1      -7.467  17.031  66.258  1.00  0.00    -0.283 C  
HETATM   14  O   UNL     1      -6.810  15.447  62.845  1.00  0.00    20.287 OA 
HETATM   15  H   UNL     1      -7.657   8.731  65.380  1.00  0.00     0.000 HD 
HETATM   16  C   UNL     1      -7.903  17.274  63.821  1.00  0.00    14.428 C  
HETATM   17  C   UNL     1      -7.174  11.203  65.801  1.00  0.00     0.193 C  
HETATM   18  O   UNL     1      -7.169  10.636  64.711  1.00  0.00    -0.008 OA 
HETATM   19  C   UNL     1      -7.452  12.686  65.877  1.00  0.00     2.514 C  
HETATM   20  C   UNL     1      -7.126  14.785  67.154  1.00  0.00     0.113 C  
HETATM   21  H   UNL     1      -6.009  19.067  65.692  1.00  0.00     0.000 HD 
HETATM   22  C   UNL     1      -7.770  13.413  64.779  1.00  0.00     9.565 C  
HETATM   23  C   UNL     1      -8.186  14.899  64.821  1.00  0.00     7.886 C  
HETATM   24  C   UNL     1      -8.051  15.569  66.217  1.00  0.00     0.258 C  
HETATM   25  O   UNL     1      -7.928  12.820  63.529  1.00  0.00     3.997 OA 
HETATM   26  H   UNL     1      -8.151  13.330  62.759  1.00  0.00     0.000 HD 
HETATM   27  C   UNL     1      -7.576  15.817  63.734  1.00  0.00    19.869 C  
HETATM   28  O   UNL     1      -9.589  14.862  64.457  1.00  0.00     0.464 OA 
HETATM   29  O   UNL     1      -6.349  18.695  64.887  1.00  0.00    -0.457 OA 
ENDROOT
BRANCH   7  30
HETATM   30  N   UNL     1      -6.327   7.016  68.370  1.00  0.00    -0.034 N  
HETATM   31  O   UNL     1      -8.559   6.481  68.779  1.00  0.00    -0.121 OA 
HETATM   32  C   UNL     1      -7.375   6.166  68.689  1.00  0.00    -0.086 C  
HETATM   33  H   UNL     1      -5.436   6.576  68.140  1.00  0.00     0.000 HD 
BRANCH  32  34
HETATM   34  C   UNL     1      -6.944   4.712  68.876  1.00  0.00    -0.052 C  
BRANCH  34  35
HETATM   35  N   UNL     1      -7.267   4.215  70.230  1.00  0.00    -0.041 NA 
HETATM   36  C   UNL     1      -6.602   4.999  71.283  1.00  0.00    -0.038 C  
HETATM   37  C   UNL     1      -7.394   4.597  72.511  1.00  0.00    -0.083 C  
HETATM   38  C   UNL     1      -8.707   4.343  70.498  1.00  0.00    -0.082 C  
HETATM   39  C   UNL     1      -8.826   4.545  72.005  1.00  0.00    -0.134 C  
ENDBRANCH  34  35
ENDBRANCH  32  34
ENDBRANCH   7  30
BRANCH  16  40
HETATM   40  C   UNL     1      -9.259  17.835  63.538  1.00  0.00    17.241 C  
HETATM   41  N   UNL     1     -10.286  16.954  63.415  1.00  0.00     6.663 N  
HETATM   42  H2  UNL     1     -10.138  15.950  63.512  1.00  0.00     0.000 HD 
HETATM   43  H1  UNL     1     -11.212  17.338  63.222  1.00  0.00     0.000 HD 
HETATM   44  O   UNL     1      -9.480  19.028  63.359  1.00  0.00    12.806 OA 
ENDBRANCH  16  40
BRANCH  13  45
HETATM   45  N   UNL     1      -8.062  17.727  67.424  1.00  0.00    -0.208 NA 
HETATM   46  C   UNL     1      -9.439  17.316  67.691  1.00  0.00    -0.246 C  
HETATM   47  C   UNL     1      -7.272  17.640  68.655  1.00  0.00    -0.255 C  
ENDBRANCH  13  45
TORSDOF 5
ENDMDL
