MODEL        1
REMARK 921   NORMALIZED FREE ENERGY PREDICTED BY IDOCK:   -7.65 KCAL/MOL
REMARK 922        TOTAL FREE ENERGY PREDICTED BY IDOCK:  -12.84 KCAL/MOL
REMARK 923 INTER-LIGAND FREE ENERGY PREDICTED BY IDOCK:  -11.67 KCAL/MOL
REMARK 924 INTRA-LIGAND FREE ENERGY PREDICTED BY IDOCK:   -1.17 KCAL/MOL
REMARK 927      BINDING AFFINITY PREDICTED BY RF-SCORE:    0.00 PKD
ROOT
HETATM    1  C   UNL     1     -12.276  12.139  63.414  1.00  0.00    -0.530 C  
HETATM    2  O   UNL     1     -12.940  12.454  64.645  1.00  0.00    -0.793 OA 
ENDROOT
BRANCH   2   3
HETATM    3  C   UNL     1     -12.287  13.394  65.407  1.00  0.00    -0.477 A  
HETATM    4  C   UNL     1     -12.407  13.274  66.810  1.00  0.00    -0.239 A  
HETATM    5  C   UNL     1     -11.683  14.087  67.705  1.00  0.00    -0.377 A  
HETATM    6  C   UNL     1     -10.934  15.096  67.072  1.00  0.00    -0.322 A  
HETATM    7  C   UNL     1     -11.550  14.433  64.849  1.00  0.00    -0.395 A  
HETATM    8  C   UNL     1     -10.875  15.296  65.687  1.00  0.00    -0.363 A  
BRANCH   5   9
HETATM    9  N   UNL     1     -11.677  13.926  69.131  1.00  0.00    -0.313 NA 
BRANCH   9  10
HETATM   10  C   UNL     1     -11.011  14.962  69.985  1.00  0.00    -0.206 C  
BRANCH  10  11
HETATM   11  C   UNL     1     -11.894  16.087  70.584  1.00  0.00    -0.315 C  
BRANCH  11  12
HETATM   12  N   UNL     1     -11.673  16.450  71.984  1.00  0.00    -0.583 NA 
HETATM   13  H   UNL     1     -11.915  17.430  72.131  1.00  0.00     0.000 HD 
BRANCH  12  14
HETATM   14  C   UNL     1     -12.354  15.614  72.971  1.00  0.00    -0.463 C  
HETATM   15  C   UNL     1     -12.255  16.157  74.399  1.00  0.00    -0.583 C  
HETATM   16  C   UNL     1     -13.829  15.535  72.562  1.00  0.00    -0.669 C  
ENDBRANCH  12  14
ENDBRANCH  11  12
ENDBRANCH  10  11
ENDBRANCH   9  10
BRANCH   9  17
HETATM   17  C   UNL     1     -11.792  12.655  69.817  1.00  0.00    -0.309 A  
HETATM   18  C   UNL     1     -10.969   7.937  70.074  1.00  0.00    -0.207 A  
HETATM   19  C   UNL     1     -12.551  12.506  70.981  1.00  0.00    -0.350 A  
HETATM   20  C   UNL     1     -11.880   7.844  71.114  1.00  0.00    -0.287 A  
HETATM   21  N   UNL     1     -10.702   9.131  69.483  1.00  0.00    -0.229 NA 
HETATM   22  C   UNL     1     -11.351  10.219  69.956  1.00  0.00    -0.301 A  
HETATM   23  C   UNL     1     -12.823  11.252  71.542  1.00  0.00    -0.519 A  
HETATM   24  C   UNL     1     -12.244  10.106  71.042  1.00  0.00    -0.374 A  
HETATM   25  C   UNL     1     -11.161  11.475  69.361  1.00  0.00    -0.324 A  
HETATM   26  N   UNL     1     -12.524   8.922  71.619  1.00  0.00    -0.326 NA 
BRANCH  18  27
HETATM   27  C   UNL     1     -10.241   6.792  69.561  1.00  0.00    -0.202 A  
HETATM   28  N   UNL     1      -9.414   4.776  69.267  1.00  0.00    -0.139 NA 
HETATM   29  C   UNL     1     -10.252   5.505  70.063  1.00  0.00    -0.266 A  
HETATM   30  C   UNL     1      -9.092   3.376  69.394  1.00  0.00    -0.133 C  
HETATM   31  N   UNL     1      -8.850   5.496  68.280  1.00  0.00    -0.105 NA 
HETATM   32  C   UNL     1      -9.354   6.721  68.462  1.00  0.00    -0.126 A  
ENDBRANCH  18  27
ENDBRANCH   9  17
ENDBRANCH   5   9
BRANCH   8  33
HETATM   33  O   UNL     1     -10.104  16.359  65.304  1.00  0.00    -0.545 OA 
HETATM   34  C   UNL     1     -10.215  17.548  66.072  1.00  0.00    -0.299 C  
ENDBRANCH   8  33
ENDBRANCH   2   3
TORSDOF 9
ENDMDL
MODEL        2
REMARK 921   NORMALIZED FREE ENERGY PREDICTED BY IDOCK:   -7.62 KCAL/MOL
REMARK 922        TOTAL FREE ENERGY PREDICTED BY IDOCK:  -12.80 KCAL/MOL
REMARK 923 INTER-LIGAND FREE ENERGY PREDICTED BY IDOCK:  -11.69 KCAL/MOL
REMARK 924 INTRA-LIGAND FREE ENERGY PREDICTED BY IDOCK:   -1.11 KCAL/MOL
REMARK 927      BINDING AFFINITY PREDICTED BY RF-SCORE:    0.00 PKD
ROOT
HETATM    1  C   UNL     1     -10.267  17.727  66.093  1.00  0.00    -0.339 C  
HETATM    2  O   UNL     1     -10.428  16.701  65.106  1.00  0.00    -0.647 OA 
ENDROOT
BRANCH   2   3
HETATM    3  C   UNL     1     -11.060  15.572  65.572  1.00  0.00    -0.262 A  
HETATM    4  C   UNL     1     -10.966  15.314  66.959  1.00  0.00    -0.324 A  
HETATM    5  C   UNL     1     -11.676  14.270  67.585  1.00  0.00    -0.389 A  
HETATM    6  C   UNL     1     -12.380  13.447  66.686  1.00  0.00    -0.324 A  
HETATM    7  C   UNL     1     -11.752  14.700  64.738  1.00  0.00    -0.429 A  
HETATM    8  C   UNL     1     -12.410  13.625  65.298  1.00  0.00    -0.465 A  
BRANCH   5   9
HETATM    9  N   UNL     1     -11.710  14.041  69.001  1.00  0.00    -0.307 NA 
BRANCH   9  10
HETATM   10  C   UNL     1     -11.148  15.078  69.926  1.00  0.00    -0.274 C  
BRANCH  10  11
HETATM   11  C   UNL     1     -12.140  16.030  70.641  1.00  0.00    -0.228 C  
BRANCH  11  12
HETATM   12  N   UNL     1     -11.864  16.377  72.035  1.00  0.00    -0.639 NA 
HETATM   13  H   UNL     1     -11.666  17.375  72.112  1.00  0.00     0.000 HD 
BRANCH  12  14
HETATM   14  C   UNL     1     -12.894  15.997  72.999  1.00  0.00    -0.488 C  
HETATM   15  C   UNL     1     -14.072  15.251  72.367  1.00  0.00    -0.622 C  
HETATM   16  C   UNL     1     -12.230  15.096  74.046  1.00  0.00    -0.701 C  
ENDBRANCH  12  14
ENDBRANCH  11  12
ENDBRANCH  10  11
ENDBRANCH   9  10
BRANCH   9  17
HETATM   17  C   UNL     1     -11.763  12.735  69.624  1.00  0.00    -0.302 A  
HETATM   18  C   UNL     1     -10.686   8.061  69.666  1.00  0.00    -0.207 A  
HETATM   19  C   UNL     1     -12.525  12.489  70.770  1.00  0.00    -0.357 A  
HETATM   20  C   UNL     1     -11.601   7.869  70.688  1.00  0.00    -0.204 A  
HETATM   21  N   UNL     1     -10.479   9.295  69.136  1.00  0.00    -0.215 NA 
HETATM   22  C   UNL     1     -11.191  10.322  69.652  1.00  0.00    -0.269 A  
HETATM   23  C   UNL     1     -12.733  11.196  71.267  1.00  0.00    -0.531 A  
HETATM   24  C   UNL     1     -12.088  10.109  70.720  1.00  0.00    -0.343 A  
HETATM   25  C   UNL     1     -11.064  11.614  69.120  1.00  0.00    -0.302 A  
HETATM   26  N   UNL     1     -12.308   8.885  71.236  1.00  0.00    -0.305 NA 
BRANCH  18  27
HETATM   27  C   UNL     1      -9.893   6.984  69.108  1.00  0.00    -0.158 A  
HETATM   28  N   UNL     1      -9.225   5.225  67.969  1.00  0.00    -0.111 NA 
HETATM   29  C   UNL     1     -10.302   6.037  68.189  1.00  0.00    -0.205 A  
HETATM   30  C   UNL     1      -9.160   4.084  67.090  1.00  0.00    -0.150 C  
HETATM   31  N   UNL     1      -8.138   5.570  68.683  1.00  0.00    -0.101 NA 
HETATM   32  C   UNL     1      -8.547   6.639  69.375  1.00  0.00    -0.135 A  
ENDBRANCH  18  27
ENDBRANCH   9  17
ENDBRANCH   5   9
BRANCH   8  33
HETATM   33  O   UNL     1     -13.138  12.682  64.624  1.00  0.00    -0.821 OA 
HETATM   34  C   UNL     1     -12.484  11.992  63.570  1.00  0.00    -0.540 C  
ENDBRANCH   8  33
ENDBRANCH   2   3
TORSDOF 9
ENDMDL
MODEL        3
REMARK 921   NORMALIZED FREE ENERGY PREDICTED BY IDOCK:   -7.47 KCAL/MOL
REMARK 922        TOTAL FREE ENERGY PREDICTED BY IDOCK:  -12.57 KCAL/MOL
REMARK 923 INTER-LIGAND FREE ENERGY PREDICTED BY IDOCK:  -11.29 KCAL/MOL
REMARK 924 INTRA-LIGAND FREE ENERGY PREDICTED BY IDOCK:   -1.28 KCAL/MOL
REMARK 927      BINDING AFFINITY PREDICTED BY RF-SCORE:    0.00 PKD
ROOT
HETATM    1  C   UNL     1     -10.408  20.052  65.786  1.00  0.00    -0.369 C  
HETATM    2  O   UNL     1     -10.504  19.925  67.210  1.00  0.00    -0.432 OA 
ENDROOT
BRANCH   2   3
HETATM    3  C   UNL     1      -9.891  18.801  67.713  1.00  0.00    -0.333 A  
HETATM    4  C   UNL     1     -10.632  17.597  67.672  1.00  0.00    -0.364 A  
HETATM    5  C   UNL     1     -10.075  16.354  68.030  1.00  0.00    -0.248 A  
HETATM    6  C   UNL     1      -8.768  16.446  68.541  1.00  0.00    -0.223 A  
HETATM    7  C   UNL     1      -8.612  18.823  68.256  1.00  0.00    -0.357 A  
HETATM    8  C   UNL     1      -8.048  17.639  68.680  1.00  0.00    -0.269 A  
BRANCH   5   9
HETATM    9  N   UNL     1     -10.744  15.091  67.892  1.00  0.00    -0.262 NA 
BRANCH   9  10
HETATM   10  C   UNL     1     -11.378  14.735  66.582  1.00  0.00    -0.347 C  
BRANCH  10  11
HETATM   11  C   UNL     1     -10.510  14.838  65.301  1.00  0.00    -0.404 C  
BRANCH  11  12
HETATM   12  N   UNL     1     -10.277  13.612  64.538  1.00  0.00    -0.647 NA 
HETATM   13  H   UNL     1      -9.327  13.278  64.699  1.00  0.00     0.000 HD 
BRANCH  12  14
HETATM   14  C   UNL     1     -11.232  12.530  64.770  1.00  0.00    -0.306 C  
HETATM   15  C   UNL     1     -12.265  12.382  63.650  1.00  0.00    -0.653 C  
HETATM   16  C   UNL     1     -10.430  11.231  64.892  1.00  0.00    -0.375 C  
ENDBRANCH  12  14
ENDBRANCH  11  12
ENDBRANCH  10  11
ENDBRANCH   9  10
BRANCH   9  17
HETATM   17  C   UNL     1     -11.313  14.336  68.989  1.00  0.00    -0.272 A  
HETATM   18  C   UNL     1     -12.285  10.169  71.156  1.00  0.00    -0.389 A  
HETATM   19  C   UNL     1     -12.062  14.946  70.000  1.00  0.00    -0.387 A  
HETATM   20  C   UNL     1     -13.155  10.827  72.011  1.00  0.00    -0.371 A  
HETATM   21  N   UNL     1     -11.603  10.846  70.196  1.00  0.00    -0.314 NA 
HETATM   22  C   UNL     1     -11.800  12.182  70.116  1.00  0.00    -0.287 A  
HETATM   23  C   UNL     1     -12.771  14.207  70.956  1.00  0.00    -0.433 A  
HETATM   24  C   UNL     1     -12.660  12.835  71.023  1.00  0.00    -0.271 A  
HETATM   25  C   UNL     1     -11.166  12.936  69.118  1.00  0.00    -0.293 A  
HETATM   26  N   UNL     1     -13.351  12.165  71.965  1.00  0.00    -0.467 NA 
BRANCH  18  27
HETATM   27  C   UNL     1     -12.036   8.743  71.233  1.00  0.00    -0.353 A  
HETATM   28  N   UNL     1     -11.214   6.725  70.936  1.00  0.00    -0.274 NA 
HETATM   29  C   UNL     1     -11.060   8.030  70.564  1.00  0.00    -0.251 A  
HETATM   30  C   UNL     1     -10.431   5.596  70.497  1.00  0.00    -0.277 C  
HETATM   31  N   UNL     1     -12.227   6.530  71.799  1.00  0.00    -0.349 NA 
HETATM   32  C   UNL     1     -12.725   7.758  71.977  1.00  0.00    -0.258 A  
ENDBRANCH  18  27
ENDBRANCH   9  17
ENDBRANCH   5   9
BRANCH   8  33
HETATM   33  O   UNL     1      -6.804  17.485  69.229  1.00  0.00    -0.248 OA 
HETATM   34  C   UNL     1      -6.162  18.654  69.715  1.00  0.00    -0.209 C  
ENDBRANCH   8  33
ENDBRANCH   2   3
TORSDOF 9
ENDMDL
MODEL        4
REMARK 921   NORMALIZED FREE ENERGY PREDICTED BY IDOCK:   -7.43 KCAL/MOL
REMARK 922        TOTAL FREE ENERGY PREDICTED BY IDOCK:  -12.51 KCAL/MOL
REMARK 923 INTER-LIGAND FREE ENERGY PREDICTED BY IDOCK:  -10.98 KCAL/MOL
REMARK 924 INTRA-LIGAND FREE ENERGY PREDICTED BY IDOCK:   -1.52 KCAL/MOL
REMARK 927      BINDING AFFINITY PREDICTED BY RF-SCORE:    0.00 PKD
ROOT
HETATM    1  C   UNL     1      -5.825  14.709  67.835  1.00  0.00    -0.130 C  
HETATM    2  O   UNL     1      -5.857  15.918  67.068  1.00  0.00    -0.329 OA 
ENDROOT
BRANCH   2   3
HETATM    3  C   UNL     1      -7.125  16.372  66.792  1.00  0.00    -0.198 A  
HETATM    4  C   UNL     1      -8.170  15.422  66.849  1.00  0.00    -0.281 A  
HETATM    5  C   UNL     1      -9.527  15.780  66.720  1.00  0.00    -0.240 A  
HETATM    6  C   UNL     1      -9.726  17.138  66.411  1.00  0.00    -0.307 A  
HETATM    7  C   UNL     1      -7.392  17.695  66.455  1.00  0.00    -0.323 A  
HETATM    8  C   UNL     1      -8.701  18.080  66.255  1.00  0.00    -0.168 A  
BRANCH   5   9
HETATM    9  N   UNL     1     -10.628  14.875  66.890  1.00  0.00    -0.294 NA 
BRANCH   9  10
HETATM   10  C   UNL     1     -11.628  14.720  65.785  1.00  0.00    -0.290 C  
BRANCH  10  11
HETATM   11  C   UNL     1     -11.171  14.011  64.484  1.00  0.00    -0.350 C  
BRANCH  11  12
HETATM   12  N   UNL     1      -9.984  13.160  64.556  1.00  0.00    -0.622 NA 
HETATM   13  H   UNL     1      -9.304  13.565  65.199  1.00  0.00     0.000 HD 
BRANCH  12  14
HETATM   14  C   UNL     1     -10.227  11.761  64.902  1.00  0.00    -0.273 C  
HETATM   15  C   UNL     1     -10.101  10.810  63.709  1.00  0.00    -0.391 C  
HETATM   16  C   UNL     1      -9.201  11.370  65.970  1.00  0.00    -0.229 C  
ENDBRANCH  12  14
ENDBRANCH  11  12
ENDBRANCH  10  11
ENDBRANCH   9  10
BRANCH   9  17
HETATM   17  C   UNL     1     -11.171  14.471  68.171  1.00  0.00    -0.284 A  
HETATM   18  C   UNL     1     -12.684  11.076  71.202  1.00  0.00    -0.419 A  
HETATM   19  C   UNL     1     -11.602  15.401  69.122  1.00  0.00    -0.354 A  
HETATM   20  C   UNL     1     -13.246  12.056  72.005  1.00  0.00    -0.375 A  
HETATM   21  N   UNL     1     -12.028  11.401  70.058  1.00  0.00    -0.338 NA 
HETATM   22  C   UNL     1     -11.938  12.713  69.742  1.00  0.00    -0.295 A  
HETATM   23  C   UNL     1     -12.299  15.022  70.276  1.00  0.00    -0.392 A  
HETATM   24  C   UNL     1     -12.483  13.695  70.596  1.00  0.00    -0.347 A  
HETATM   25  C   UNL     1     -11.317  13.117  68.551  1.00  0.00    -0.321 A  
HETATM   26  N   UNL     1     -13.149  13.376  71.722  1.00  0.00    -0.389 NA 
BRANCH  18  27
HETATM   27  C   UNL     1     -12.746   9.664  71.525  1.00  0.00    -0.480 A  
HETATM   28  N   UNL     1     -12.219   7.586  72.018  1.00  0.00    -0.291 NA 
HETATM   29  C   UNL     1     -11.681   8.818  71.768  1.00  0.00    -0.346 A  
HETATM   30  C   UNL     1     -11.506   6.370  72.320  1.00  0.00    -0.298 C  
HETATM   31  N   UNL     1     -13.562   7.564  71.951  1.00  0.00    -0.282 NA 
HETATM   32  C   UNL     1     -13.879   8.828  71.651  1.00  0.00    -0.397 A  
ENDBRANCH  18  27
ENDBRANCH   9  17
ENDBRANCH   5   9
BRANCH   8  33
HETATM   33  O   UNL     1      -9.135  19.335  65.926  1.00  0.00    -0.429 OA 
HETATM   34  C   UNL     1     -10.481  19.658  66.241  1.00  0.00    -0.519 C  
ENDBRANCH   8  33
ENDBRANCH   2   3
TORSDOF 9
ENDMDL
MODEL        5
REMARK 921   NORMALIZED FREE ENERGY PREDICTED BY IDOCK:   -7.21 KCAL/MOL
REMARK 922        TOTAL FREE ENERGY PREDICTED BY IDOCK:  -12.18 KCAL/MOL
REMARK 923 INTER-LIGAND FREE ENERGY PREDICTED BY IDOCK:  -11.11 KCAL/MOL
REMARK 924 INTRA-LIGAND FREE ENERGY PREDICTED BY IDOCK:   -1.07 KCAL/MOL
REMARK 927      BINDING AFFINITY PREDICTED BY RF-SCORE:    0.00 PKD
ROOT
HETATM    1  C   UNL     1     -12.404  11.988  63.576  1.00  0.00    -0.551 C  
HETATM    2  O   UNL     1     -12.768  13.359  63.784  1.00  0.00    -0.685 OA 
ENDROOT
BRANCH   2   3
HETATM    3  C   UNL     1     -12.078  13.971  64.804  1.00  0.00    -0.437 A  
HETATM    4  C   UNL     1     -12.354  13.528  66.118  1.00  0.00    -0.463 A  
HETATM    5  C   UNL     1     -11.623  13.976  67.237  1.00  0.00    -0.369 A  
HETATM    6  C   UNL     1     -10.689  14.984  66.935  1.00  0.00    -0.308 A  
HETATM    7  C   UNL     1     -11.159  14.991  64.582  1.00  0.00    -0.335 A  
HETATM    8  C   UNL     1     -10.465  15.508  65.656  1.00  0.00    -0.374 A  
BRANCH   5   9
HETATM    9  N   UNL     1     -11.782  13.469  68.570  1.00  0.00    -0.336 NA 
BRANCH   9  10
HETATM   10  C   UNL     1     -11.693  14.413  69.731  1.00  0.00    -0.305 C  
BRANCH  10  11
HETATM   11  C   UNL     1     -13.008  15.040  70.260  1.00  0.00    -0.167 C  
BRANCH  11  12
HETATM   12  N   UNL     1     -12.923  15.901  71.439  1.00  0.00    -0.518 NA 
HETATM   13  H   UNL     1     -13.290  16.828  71.221  1.00  0.00     0.000 HD 
BRANCH  12  14
HETATM   14  C   UNL     1     -13.563  15.384  72.648  1.00  0.00    -0.542 C  
HETATM   15  C   UNL     1     -14.035  13.934  72.513  1.00  0.00    -0.565 C  
HETATM   16  C   UNL     1     -12.537  15.477  73.783  1.00  0.00    -0.750 C  
ENDBRANCH  12  14
ENDBRANCH  11  12
ENDBRANCH  10  11
ENDBRANCH   9  10
BRANCH   9  17
HETATM   17  C   UNL     1     -11.522  12.100  68.967  1.00  0.00    -0.297 A  
HETATM   18  C   UNL     1     -10.442   7.553  67.891  1.00  0.00    -0.204 A  
HETATM   19  C   UNL     1     -11.684  11.666  70.286  1.00  0.00    -0.355 A  
HETATM   20  C   UNL     1     -10.797   7.174  69.175  1.00  0.00    -0.162 A  
HETATM   21  N   UNL     1     -10.521   8.851  67.498  1.00  0.00    -0.268 NA 
HETATM   22  C   UNL     1     -10.948   9.753  68.410  1.00  0.00    -0.152 A  
HETATM   23  C   UNL     1     -11.620  10.313  70.642  1.00  0.00    -0.435 A  
HETATM   24  C   UNL     1     -11.265   9.350  69.724  1.00  0.00    -0.114 A  
HETATM   25  C   UNL     1     -11.100  11.103  68.059  1.00  0.00    -0.334 A  
HETATM   26  N   UNL     1     -11.205   8.062  70.112  1.00  0.00    -0.200 NA 
BRANCH  18  27
HETATM   27  C   UNL     1      -9.960   6.612  66.899  1.00  0.00    -0.238 A  
HETATM   28  N   UNL     1      -8.772   5.607  65.345  1.00  0.00    -0.153 NA 
HETATM   29  C   UNL     1      -8.805   6.712  66.147  1.00  0.00    -0.149 A  
HETATM   30  C   UNL     1      -7.761   5.264  64.376  1.00  0.00    -0.090 C  
HETATM   31  N   UNL     1      -9.827   4.790  65.514  1.00  0.00    -0.167 NA 
HETATM   32  C   UNL     1     -10.548   5.403  66.458  1.00  0.00    -0.289 A  
ENDBRANCH  18  27
ENDBRANCH   9  17
ENDBRANCH   5   9
BRANCH   8  33
HETATM   33  O   UNL     1      -9.528  16.503  65.611  1.00  0.00    -0.497 OA 
HETATM   34  C   UNL     1      -9.702  17.597  66.499  1.00  0.00    -0.304 C  
ENDBRANCH   8  33
ENDBRANCH   2   3
TORSDOF 9
ENDMDL
MODEL        6
REMARK 921   NORMALIZED FREE ENERGY PREDICTED BY IDOCK:   -7.17 KCAL/MOL
REMARK 922        TOTAL FREE ENERGY PREDICTED BY IDOCK:  -12.11 KCAL/MOL
REMARK 923 INTER-LIGAND FREE ENERGY PREDICTED BY IDOCK:  -11.00 KCAL/MOL
REMARK 924 INTRA-LIGAND FREE ENERGY PREDICTED BY IDOCK:   -1.11 KCAL/MOL
REMARK 927      BINDING AFFINITY PREDICTED BY RF-SCORE:    0.00 PKD
ROOT
HETATM    1  C   UNL     1     -11.534   9.855  71.285  1.00  0.00    -0.361 C  
HETATM    2  O   UNL     1     -12.845  10.436  71.285  1.00  0.00    -0.365 OA 
ENDROOT
BRANCH   2   3
HETATM    3  C   UNL     1     -12.846  11.810  71.231  1.00  0.00    -0.308 A  
HETATM    4  C   UNL     1     -12.226  12.405  70.109  1.00  0.00    -0.303 A  
HETATM    5  C   UNL     1     -12.275  13.792  69.864  1.00  0.00    -0.321 A  
HETATM    6  C   UNL     1     -12.886  14.527  70.896  1.00  0.00    -0.425 A  
HETATM    7  C   UNL     1     -13.409  12.600  72.227  1.00  0.00    -0.527 A  
HETATM    8  C   UNL     1     -13.423  13.969  72.063  1.00  0.00    -0.439 A  
BRANCH   5   9
HETATM    9  N   UNL     1     -11.768  14.430  68.682  1.00  0.00    -0.316 NA 
BRANCH   9  10
HETATM   10  C   UNL     1     -11.706  15.926  68.624  1.00  0.00    -0.322 C  
BRANCH  10  11
HETATM   11  C   UNL     1     -10.409  16.580  68.081  1.00  0.00    -0.296 C  
BRANCH  11  12
HETATM   12  N   UNL     1     -10.530  17.473  66.929  1.00  0.00    -0.315 NA 
HETATM   13  H   UNL     1     -11.249  17.127  66.294  1.00  0.00     0.000 HD 
BRANCH  12  14
HETATM   14  C   UNL     1     -10.776  18.880  67.241  1.00  0.00    -0.449 C  
HETATM   15  C   UNL     1      -9.901  19.411  68.379  1.00  0.00    -0.513 C  
HETATM   16  C   UNL     1     -10.495  19.686  65.969  1.00  0.00    -0.622 C  
ENDBRANCH  12  14
ENDBRANCH  11  12
ENDBRANCH  10  11
ENDBRANCH   9  10
BRANCH   9  17
HETATM   17  C   UNL     1     -11.775  13.839  67.360  1.00  0.00    -0.382 A  
HETATM   18  C   UNL     1      -9.920  10.868  64.084  1.00  0.00    -0.344 A  
HETATM   19  C   UNL     1     -12.650  14.269  66.359  1.00  0.00    -0.159 A  
HETATM   20  C   UNL     1     -10.695  11.474  63.108  1.00  0.00    -0.207 A  
HETATM   21  N   UNL     1      -9.977  11.278  65.377  1.00  0.00    -0.237 NA 
HETATM   22  C   UNL     1     -10.824  12.290  65.673  1.00  0.00    -0.285 A  
HETATM   23  C   UNL     1     -12.538  13.839  65.031  1.00  0.00    -0.427 A  
HETATM   24  C   UNL     1     -11.633  12.865  64.670  1.00  0.00    -0.346 A  
HETATM   25  C   UNL     1     -10.899  12.797  66.979  1.00  0.00    -0.282 A  
HETATM   26  N   UNL     1     -11.566  12.473  63.384  1.00  0.00    -0.486 NA 
BRANCH  18  27
HETATM   27  C   UNL     1      -9.020   9.767  63.801  1.00  0.00    -0.272 A  
HETATM   28  N   UNL     1      -7.588   8.109  63.992  1.00  0.00    -0.121 NA 
HETATM   29  C   UNL     1      -8.300   9.023  64.716  1.00  0.00    -0.173 A  
HETATM   30  C   UNL     1      -6.681   7.110  64.501  1.00  0.00    -0.046 C  
HETATM   31  N   UNL     1      -7.787   8.203  62.665  1.00  0.00    -0.131 NA 
HETATM   32  C   UNL     1      -8.657   9.212  62.552  1.00  0.00    -0.220 A  
ENDBRANCH  18  27
ENDBRANCH   9  17
ENDBRANCH   5   9
BRANCH   8  33
HETATM   33  O   UNL     1     -13.940  14.884  72.939  1.00  0.00    -0.469 OA 
HETATM   34  C   UNL     1     -13.015  15.692  73.652  1.00  0.00    -0.526 C  
ENDBRANCH   8  33
ENDBRANCH   2   3
TORSDOF 9
ENDMDL
MODEL        7
REMARK 921   NORMALIZED FREE ENERGY PREDICTED BY IDOCK:   -7.15 KCAL/MOL
REMARK 922        TOTAL FREE ENERGY PREDICTED BY IDOCK:  -12.09 KCAL/MOL
REMARK 923 INTER-LIGAND FREE ENERGY PREDICTED BY IDOCK:  -10.97 KCAL/MOL
REMARK 924 INTRA-LIGAND FREE ENERGY PREDICTED BY IDOCK:   -1.12 KCAL/MOL
REMARK 927      BINDING AFFINITY PREDICTED BY RF-SCORE:    0.00 PKD
ROOT
HETATM    1  C   UNL     1     -12.683   9.301  71.901  1.00  0.00    -0.394 C  
HETATM    2  O   UNL     1     -13.503  10.416  72.273  1.00  0.00    -0.363 OA 
ENDROOT
BRANCH   2   3
HETATM    3  C   UNL     1     -13.121  11.606  71.697  1.00  0.00    -0.351 A  
HETATM    4  C   UNL     1     -12.228  11.529  70.605  1.00  0.00    -0.473 A  
HETATM    5  C   UNL     1     -11.865  12.658  69.843  1.00  0.00    -0.294 A  
HETATM    6  C   UNL     1     -12.375  13.868  70.348  1.00  0.00    -0.433 A  
HETATM    7  C   UNL     1     -13.566  12.840  72.160  1.00  0.00    -0.547 A  
HETATM    8  C   UNL     1     -13.184  13.980  71.485  1.00  0.00    -0.359 A  
BRANCH   5   9
HETATM    9  N   UNL     1     -11.060  12.615  68.655  1.00  0.00    -0.252 NA 
BRANCH   9  10
HETATM   10  C   UNL     1     -10.065  11.509  68.481  1.00  0.00    -0.207 C  
BRANCH  10  11
HETATM   11  C   UNL     1     -10.393  10.388  67.461  1.00  0.00    -0.224 C  
BRANCH  11  12
HETATM   12  N   UNL     1     -11.118   9.216  67.950  1.00  0.00    -0.489 NA 
HETATM   13  H   UNL     1     -11.911   9.018  67.339  1.00  0.00     0.000 HD 
BRANCH  12  14
HETATM   14  C   UNL     1     -10.317   8.008  68.137  1.00  0.00    -0.200 C  
HETATM   15  C   UNL     1     -10.358   7.468  69.569  1.00  0.00    -0.216 C  
HETATM   16  C   UNL     1     -10.866   6.944  67.180  1.00  0.00    -0.447 C  
ENDBRANCH  12  14
ENDBRANCH  11  12
ENDBRANCH  10  11
ENDBRANCH   9  10
BRANCH   9  17
HETATM   17  C   UNL     1     -10.735  13.767  67.839  1.00  0.00    -0.247 A  
HETATM   18  C   UNL     1      -8.669  18.058  67.272  1.00  0.00    -0.243 A  
HETATM   19  C   UNL     1     -11.249  13.932  66.550  1.00  0.00    -0.327 A  
HETATM   20  C   UNL     1      -9.360  18.224  66.083  1.00  0.00    -0.133 A  
HETATM   21  N   UNL     1      -8.816  16.930  68.015  1.00  0.00    -0.211 NA 
HETATM   22  C   UNL     1      -9.652  15.978  67.543  1.00  0.00    -0.222 A  
HETATM   23  C   UNL     1     -11.096  15.124  65.830  1.00  0.00    -0.330 A  
HETATM   24  C   UNL     1     -10.315  16.152  66.310  1.00  0.00    -0.328 A  
HETATM   25  C   UNL     1      -9.889  14.809  68.282  1.00  0.00    -0.222 A  
HETATM   26  N   UNL     1     -10.185  17.276  65.580  1.00  0.00    -0.620 NA 
BRANCH  18  27
HETATM   27  C   UNL     1      -7.749  19.051  67.792  1.00  0.00    -0.273 A  
HETATM   28  N   UNL     1      -6.360  20.176  69.073  1.00  0.00    -0.319 NA 
HETATM   29  C   UNL     1      -7.118  19.040  69.020  1.00  0.00    -0.326 A  
HETATM   30  C   UNL     1      -5.521  20.613  70.161  1.00  0.00    -0.323 C  
HETATM   31  N   UNL     1      -6.454  20.935  67.966  1.00  0.00    -0.325 NA 
HETATM   32  C   UNL     1      -7.299  20.249  67.189  1.00  0.00    -0.288 A  
ENDBRANCH  18  27
ENDBRANCH   9  17
ENDBRANCH   5   9
BRANCH   8  33
HETATM   33  O   UNL     1     -13.535  15.264  71.802  1.00  0.00    -0.390 OA 
HETATM   34  C   UNL     1     -13.217  15.718  73.109  1.00  0.00    -0.591 C  
ENDBRANCH   8  33
ENDBRANCH   2   3
TORSDOF 9
ENDMDL
MODEL        8
REMARK 921   NORMALIZED FREE ENERGY PREDICTED BY IDOCK:   -7.14 KCAL/MOL
REMARK 922        TOTAL FREE ENERGY PREDICTED BY IDOCK:  -12.06 KCAL/MOL
REMARK 923 INTER-LIGAND FREE ENERGY PREDICTED BY IDOCK:  -11.45 KCAL/MOL
REMARK 924 INTRA-LIGAND FREE ENERGY PREDICTED BY IDOCK:   -0.62 KCAL/MOL
REMARK 927      BINDING AFFINITY PREDICTED BY RF-SCORE:    0.00 PKD
ROOT
HETATM    1  C   UNL     1     -11.677  15.948  64.213  1.00  0.00    -0.132 C  
HETATM    2  O   UNL     1     -12.525  14.798  64.316  1.00  0.00    -0.661 OA 
ENDROOT
BRANCH   2   3
HETATM    3  C   UNL     1     -12.028  13.808  65.131  1.00  0.00    -0.379 A  
HETATM    4  C   UNL     1     -12.052  14.055  66.523  1.00  0.00    -0.488 A  
HETATM    5  C   UNL     1     -11.698  13.075  67.472  1.00  0.00    -0.370 A  
HETATM    6  C   UNL     1     -11.209  11.886  66.901  1.00  0.00    -0.382 A  
HETATM    7  C   UNL     1     -11.506  12.619  64.635  1.00  0.00    -0.376 A  
HETATM    8  C   UNL     1     -11.086  11.653  65.525  1.00  0.00    -0.237 A  
BRANCH   5   9
HETATM    9  N   UNL     1     -11.821  13.235  68.893  1.00  0.00    -0.319 NA 
BRANCH   9  10
HETATM   10  C   UNL     1     -11.224  14.442  69.550  1.00  0.00    -0.254 C  
BRANCH  10  11
HETATM   11  C   UNL     1     -12.187  15.470  70.196  1.00  0.00    -0.376 C  
BRANCH  11  12
HETATM   12  N   UNL     1     -11.880  15.932  71.549  1.00  0.00    -0.430 NA 
HETATM   13  H   UNL     1     -11.469  16.865  71.514  1.00  0.00     0.000 HD 
BRANCH  12  14
HETATM   14  C   UNL     1     -12.996  15.914  72.494  1.00  0.00    -0.452 C  
HETATM   15  C   UNL     1     -14.261  15.264  71.927  1.00  0.00    -0.681 C  
HETATM   16  C   UNL     1     -12.536  15.133  73.729  1.00  0.00    -0.712 C  
ENDBRANCH  12  14
ENDBRANCH  11  12
ENDBRANCH  10  11
ENDBRANCH   9  10
BRANCH   9  17
HETATM   17  C   UNL     1     -12.009  12.147  69.831  1.00  0.00    -0.309 A  
HETATM   18  C   UNL     1     -11.503   7.542  71.071  1.00  0.00    -0.278 A  
HETATM   19  C   UNL     1     -12.755  12.299  71.003  1.00  0.00    -0.319 A  
HETATM   20  C   UNL     1     -12.398   7.732  72.111  1.00  0.00    -0.265 A  
HETATM   21  N   UNL     1     -11.167   8.563  70.241  1.00  0.00    -0.223 NA 
HETATM   22  C   UNL     1     -11.732   9.770  70.477  1.00  0.00    -0.268 A  
HETATM   23  C   UNL     1     -13.100  11.212  71.817  1.00  0.00    -0.536 A  
HETATM   24  C   UNL     1     -12.610   9.949  71.566  1.00  0.00    -0.416 A  
HETATM   25  C   UNL     1     -11.469  10.856  69.631  1.00  0.00    -0.377 A  
HETATM   26  N   UNL     1     -12.958   8.935  72.380  1.00  0.00    -0.419 NA 
BRANCH  18  27
HETATM   27  C   UNL     1     -10.865   6.267  70.807  1.00  0.00    -0.339 A  
HETATM   28  N   UNL     1      -9.838   4.334  71.027  1.00  0.00    -0.188 NA 
HETATM   29  C   UNL     1     -10.341   5.389  71.736  1.00  0.00    -0.212 A  
HETATM   30  C   UNL     1      -9.182   3.164  71.555  1.00  0.00    -0.118 C  
HETATM   31  N   UNL     1      -9.991   4.461  69.697  1.00  0.00    -0.204 NA 
HETATM   32  C   UNL     1     -10.614   5.637  69.566  1.00  0.00    -0.314 A  
ENDBRANCH  18  27
ENDBRANCH   9  17
ENDBRANCH   5   9
BRANCH   8  33
HETATM   33  O   UNL     1     -10.556  10.432  65.206  1.00  0.00    -0.191 OA 
HETATM   34  C   UNL     1     -10.190   9.584  66.284  1.00  0.00    -0.220 C  
ENDBRANCH   8  33
ENDBRANCH   2   3
TORSDOF 9
ENDMDL
MODEL        9
REMARK 921   NORMALIZED FREE ENERGY PREDICTED BY IDOCK:   -7.11 KCAL/MOL
REMARK 922        TOTAL FREE ENERGY PREDICTED BY IDOCK:  -12.03 KCAL/MOL
REMARK 923 INTER-LIGAND FREE ENERGY PREDICTED BY IDOCK:  -10.94 KCAL/MOL
REMARK 924 INTRA-LIGAND FREE ENERGY PREDICTED BY IDOCK:   -1.09 KCAL/MOL
REMARK 927      BINDING AFFINITY PREDICTED BY RF-SCORE:    0.00 PKD
ROOT
HETATM    1  C   UNL     1     -13.207  15.901  73.380  1.00  0.00    -0.562 C  
HETATM    2  O   UNL     1     -14.088  14.922  72.815  1.00  0.00    -0.444 OA 
ENDROOT
BRANCH   2   3
HETATM    3  C   UNL     1     -13.481  14.076  71.917  1.00  0.00    -0.421 A  
HETATM    4  C   UNL     1     -13.025  14.649  70.707  1.00  0.00    -0.405 A  
HETATM    5  C   UNL     1     -12.270  13.924  69.764  1.00  0.00    -0.332 A  
HETATM    6  C   UNL     1     -12.123  12.562  70.083  1.00  0.00    -0.368 A  
HETATM    7  C   UNL     1     -13.324  12.715  72.155  1.00  0.00    -0.570 A  
HETATM    8  C   UNL     1     -12.648  11.950  71.228  1.00  0.00    -0.277 A  
BRANCH   5   9
HETATM    9  N   UNL     1     -11.683  14.490  68.582  1.00  0.00    -0.317 NA 
BRANCH   9  10
HETATM   10  C   UNL     1     -11.619  15.980  68.434  1.00  0.00    -0.279 C  
BRANCH  10  11
HETATM   11  C   UNL     1     -10.280  16.607  67.969  1.00  0.00    -0.280 C  
BRANCH  11  12
HETATM   12  N   UNL     1     -10.322  17.541  66.844  1.00  0.00    -0.323 NA 
HETATM   13  H   UNL     1     -10.965  17.198  66.131  1.00  0.00     0.000 HD 
BRANCH  12  14
HETATM   14  C   UNL     1     -10.646  18.926  67.182  1.00  0.00    -0.458 C  
HETATM   15  C   UNL     1     -10.103  19.361  68.546  1.00  0.00    -0.527 C  
HETATM   16  C   UNL     1     -10.042  19.816  66.091  1.00  0.00    -0.600 C  
ENDBRANCH  12  14
ENDBRANCH  11  12
ENDBRANCH  10  11
ENDBRANCH   9  10
BRANCH   9  17
HETATM   17  C   UNL     1     -11.597  13.816  67.303  1.00  0.00    -0.361 A  
HETATM   18  C   UNL     1      -9.311  10.936  64.223  1.00  0.00    -0.228 A  
HETATM   19  C   UNL     1     -12.521  14.046  66.279  1.00  0.00    -0.439 A  
HETATM   20  C   UNL     1     -10.161  11.356  63.213  1.00  0.00    -0.385 A  
HETATM   21  N   UNL     1      -9.434  11.420  65.487  1.00  0.00    -0.227 NA 
HETATM   22  C   UNL     1     -10.422  12.314  65.718  1.00  0.00    -0.255 A  
HETATM   23  C   UNL     1     -12.340  13.549  64.982  1.00  0.00    -0.468 A  
HETATM   24  C   UNL     1     -11.300  12.696  64.683  1.00  0.00    -0.318 A  
HETATM   25  C   UNL     1     -10.576  12.891  66.987  1.00  0.00    -0.261 A  
HETATM   26  N   UNL     1     -11.171  12.233  63.426  1.00  0.00    -0.440 NA 
BRANCH  18  27
HETATM   27  C   UNL     1      -8.258   9.962  64.010  1.00  0.00    -0.159 A  
HETATM   28  N   UNL     1      -7.120   8.089  63.835  1.00  0.00    -0.080 NA 
HETATM   29  C   UNL     1      -8.362   8.588  64.110  1.00  0.00    -0.095 A  
HETATM   30  C   UNL     1      -6.722   6.703  63.820  1.00  0.00    -0.048 C  
HETATM   31  N   UNL     1      -6.207   9.040  63.567  1.00  0.00    -0.088 NA 
HETATM   32  C   UNL     1      -6.901  10.177  63.674  1.00  0.00    -0.112 A  
ENDBRANCH  18  27
ENDBRANCH   9  17
ENDBRANCH   5   9
BRANCH   8  33
HETATM   33  O   UNL     1     -12.402  10.607  71.312  1.00  0.00    -0.360 OA 
HETATM   34  C   UNL     1     -13.378   9.810  71.967  1.00  0.00    -0.451 C  
ENDBRANCH   8  33
ENDBRANCH   2   3
TORSDOF 9
ENDMDL
MODEL       10
REMARK 921   NORMALIZED FREE ENERGY PREDICTED BY IDOCK:   -7.07 KCAL/MOL
REMARK 922        TOTAL FREE ENERGY PREDICTED BY IDOCK:  -11.96 KCAL/MOL
REMARK 923 INTER-LIGAND FREE ENERGY PREDICTED BY IDOCK:  -10.72 KCAL/MOL
REMARK 924 INTRA-LIGAND FREE ENERGY PREDICTED BY IDOCK:   -1.24 KCAL/MOL
REMARK 927      BINDING AFFINITY PREDICTED BY RF-SCORE:    0.00 PKD
ROOT
HETATM    1  C   UNL     1      -8.084   6.587  70.758  1.00  0.00    -0.120 C  
HETATM    2  O   UNL     1      -8.363   7.938  71.147  1.00  0.00    -0.106 OA 
ENDROOT
BRANCH   2   3
HETATM    3  C   UNL     1      -9.702   8.250  71.163  1.00  0.00    -0.165 A  
HETATM    4  C   UNL     1     -10.051   9.583  70.847  1.00  0.00    -0.330 A  
HETATM    5  C   UNL     1     -11.388  10.000  70.696  1.00  0.00    -0.348 A  
HETATM    6  C   UNL     1     -12.330   9.002  71.008  1.00  0.00    -0.244 A  
HETATM    7  C   UNL     1     -10.685   7.322  71.486  1.00  0.00    -0.241 A  
HETATM    8  C   UNL     1     -12.009   7.702  71.416  1.00  0.00    -0.310 A  
BRANCH   5   9
HETATM    9  N   UNL     1     -11.791  11.307  70.259  1.00  0.00    -0.341 NA 
BRANCH   9  10
HETATM   10  C   UNL     1     -13.029  11.925  70.835  1.00  0.00    -0.010 C  
BRANCH  10  11
HETATM   11  C   UNL     1     -12.870  12.876  72.049  1.00  0.00    -0.174 C  
BRANCH  11  12
HETATM   12  N   UNL     1     -14.038  13.655  72.458  1.00  0.00    -0.754 NA 
HETATM   13  H   UNL     1     -14.411  13.290  73.334  1.00  0.00     0.000 HD 
BRANCH  12  14
HETATM   14  C   UNL     1     -13.829  15.098  72.568  1.00  0.00    -0.502 C  
HETATM   15  C   UNL     1     -12.898  15.492  73.717  1.00  0.00    -0.680 C  
HETATM   16  C   UNL     1     -13.225  15.575  71.243  1.00  0.00    -0.588 C  
ENDBRANCH  12  14
ENDBRANCH  11  12
ENDBRANCH  10  11
ENDBRANCH   9  10
BRANCH   9  17
HETATM   17  C   UNL     1     -11.438  11.893  68.982  1.00  0.00    -0.297 A  
HETATM   18  C   UNL     1     -10.209  15.672  66.297  1.00  0.00    -0.299 A  
HETATM   19  C   UNL     1     -11.491  11.163  67.791  1.00  0.00    -0.349 A  
HETATM   20  C   UNL     1     -10.459  14.930  65.154  1.00  0.00    -0.417 A  
HETATM   21  N   UNL     1     -10.377  15.132  67.532  1.00  0.00    -0.240 NA 
HETATM   22  C   UNL     1     -10.787  13.844  67.599  1.00  0.00    -0.254 A  
HETATM   23  C   UNL     1     -11.337  11.767  66.536  1.00  0.00    -0.370 A  
HETATM   24  C   UNL     1     -10.997  13.097  66.421  1.00  0.00    -0.288 A  
HETATM   25  C   UNL     1     -11.028  13.238  68.840  1.00  0.00    -0.278 A  
HETATM   26  N   UNL     1     -10.847  13.634  65.195  1.00  0.00    -0.317 NA 
BRANCH  18  27
HETATM   27  C   UNL     1      -9.747  17.045  66.257  1.00  0.00    -0.302 A  
HETATM   28  N   UNL     1      -8.506  18.851  66.064  1.00  0.00    -0.479 NA 
HETATM   29  C   UNL     1      -8.469  17.488  65.975  1.00  0.00    -0.064 A  
HETATM   30  C   UNL     1      -7.411  19.766  65.860  1.00  0.00    -0.318 C  
HETATM   31  N   UNL     1      -9.718  19.334  66.390  1.00  0.00    -0.356 NA 
HETATM   32  C   UNL     1     -10.470  18.235  66.507  1.00  0.00    -0.356 A  
ENDBRANCH  18  27
ENDBRANCH   9  17
ENDBRANCH   5   9
BRANCH   8  33
HETATM   33  O   UNL     1     -13.093   6.915  71.694  1.00  0.00    -0.365 OA 
HETATM   34  C   UNL     1     -14.376   7.504  71.545  1.00  0.00    -0.458 C  
ENDBRANCH   8  33
ENDBRANCH   2   3
TORSDOF 9
ENDMDL
MODEL       11
REMARK 921   NORMALIZED FREE ENERGY PREDICTED BY IDOCK:   -7.04 KCAL/MOL
REMARK 922        TOTAL FREE ENERGY PREDICTED BY IDOCK:  -11.92 KCAL/MOL
REMARK 923 INTER-LIGAND FREE ENERGY PREDICTED BY IDOCK:  -10.19 KCAL/MOL
REMARK 924 INTRA-LIGAND FREE ENERGY PREDICTED BY IDOCK:   -1.73 KCAL/MOL
REMARK 927      BINDING AFFINITY PREDICTED BY RF-SCORE:    0.00 PKD
ROOT
HETATM    1  C   UNL     1     -13.188  13.694  71.599  1.00  0.00    -0.367 C  
HETATM    2  O   UNL     1     -13.612  12.400  72.045  1.00  0.00    -0.421 OA 
ENDROOT
BRANCH   2   3
HETATM    3  C   UNL     1     -12.887  11.360  71.511  1.00  0.00    -0.403 A  
HETATM    4  C   UNL     1     -12.072  11.657  70.395  1.00  0.00    -0.462 A  
HETATM    5  C   UNL     1     -11.181  10.719  69.837  1.00  0.00    -0.300 A  
HETATM    6  C   UNL     1     -11.272   9.440  70.415  1.00  0.00    -0.309 A  
HETATM    7  C   UNL     1     -12.948  10.066  72.015  1.00  0.00    -0.514 A  
HETATM    8  C   UNL     1     -12.141   9.096  71.459  1.00  0.00    -0.351 A  
BRANCH   5   9
HETATM    9  N   UNL     1     -10.247  11.007  68.785  1.00  0.00    -0.192 NA 
BRANCH   9  10
HETATM   10  C   UNL     1      -8.785  10.768  69.015  1.00  0.00    -0.130 C  
BRANCH  10  11
HETATM   11  C   UNL     1      -8.070   9.721  68.124  1.00  0.00    -0.108 C  
BRANCH  11  12
HETATM   12  N   UNL     1      -8.518   8.332  68.215  1.00  0.00    -0.135 NA 
HETATM   13  H   UNL     1      -9.156   8.223  69.004  1.00  0.00     0.000 HD 
BRANCH  12  14
HETATM   14  C   UNL     1      -9.125   7.781  67.004  1.00  0.00    -0.138 C  
HETATM   15  C   UNL     1     -10.630   7.535  67.137  1.00  0.00    -0.415 C  
HETATM   16  C   UNL     1      -8.875   8.783  65.872  1.00  0.00    -0.222 C  
ENDBRANCH  12  14
ENDBRANCH  11  12
ENDBRANCH  10  11
ENDBRANCH   9  10
BRANCH   9  17
HETATM   17  C   UNL     1     -10.478  11.956  67.717  1.00  0.00    -0.202 A  
HETATM   18  C   UNL     1     -10.426  16.435  66.000  1.00  0.00    -0.323 A  
HETATM   19  C   UNL     1     -11.084  11.586  66.513  1.00  0.00    -0.341 A  
HETATM   20  C   UNL     1     -11.188  16.020  64.920  1.00  0.00    -0.312 A  
HETATM   21  N   UNL     1     -10.048  15.558  66.967  1.00  0.00    -0.249 NA 
HETATM   22  C   UNL     1     -10.435  14.270  66.826  1.00  0.00    -0.273 A  
HETATM   23  C   UNL     1     -11.482  12.527  65.554  1.00  0.00    -0.389 A  
HETATM   24  C   UNL     1     -11.176  13.863  65.697  1.00  0.00    -0.306 A  
HETATM   25  C   UNL     1     -10.121  13.321  67.810  1.00  0.00    -0.229 A  
HETATM   26  N   UNL     1     -11.568  14.732  64.746  1.00  0.00    -0.409 NA 
BRANCH  18  27
HETATM   27  C   UNL     1      -9.977  17.803  66.166  1.00  0.00    -0.283 A  
HETATM   28  N   UNL     1      -8.799  19.593  66.662  1.00  0.00    -0.335 NA 
HETATM   29  C   UNL     1      -8.775  18.227  66.698  1.00  0.00    -0.277 A  
HETATM   30  C   UNL     1      -7.769  20.494  67.114  1.00  0.00    -0.322 C  
HETATM   31  N   UNL     1      -9.937  20.096  66.149  1.00  0.00    -0.451 NA 
HETATM   32  C   UNL     1     -10.651  19.006  65.849  1.00  0.00    -0.393 A  
ENDBRANCH  18  27
ENDBRANCH   9  17
ENDBRANCH   5   9
BRANCH   8  33
HETATM   33  O   UNL     1     -12.074   7.783  71.837  1.00  0.00    -0.284 OA 
HETATM   34  C   UNL     1     -12.102   6.809  70.805  1.00  0.00    -0.347 C  
ENDBRANCH   8  33
ENDBRANCH   2   3
TORSDOF 9
ENDMDL
MODEL       12
REMARK 921   NORMALIZED FREE ENERGY PREDICTED BY IDOCK:   -7.02 KCAL/MOL
REMARK 922        TOTAL FREE ENERGY PREDICTED BY IDOCK:  -11.88 KCAL/MOL
REMARK 923 INTER-LIGAND FREE ENERGY PREDICTED BY IDOCK:  -10.52 KCAL/MOL
REMARK 924 INTRA-LIGAND FREE ENERGY PREDICTED BY IDOCK:   -1.36 KCAL/MOL
REMARK 927      BINDING AFFINITY PREDICTED BY RF-SCORE:    0.00 PKD
ROOT
HETATM    1  C   UNL     1     -10.241  17.985  66.351  1.00  0.00    -0.393 C  
HETATM    2  O   UNL     1     -10.732  17.449  65.116  1.00  0.00    -0.684 OA 
ENDROOT
BRANCH   2   3
HETATM    3  C   UNL     1     -10.981  16.097  65.153  1.00  0.00    -0.316 A  
HETATM    4  C   UNL     1     -10.299  15.349  66.140  1.00  0.00    -0.325 A  
HETATM    5  C   UNL     1     -10.563  13.985  66.373  1.00  0.00    -0.280 A  
HETATM    6  C   UNL     1     -11.469  13.420  65.457  1.00  0.00    -0.324 A  
HETATM    7  C   UNL     1     -11.844  15.467  64.263  1.00  0.00    -0.179 A  
HETATM    8  C   UNL     1     -12.084  14.118  64.410  1.00  0.00    -0.463 A  
BRANCH   5   9
HETATM    9  N   UNL     1      -9.988  13.214  67.439  1.00  0.00    -0.226 NA 
BRANCH   9  10
HETATM   10  C   UNL     1      -8.761  12.395  67.174  1.00  0.00    -0.195 C  
BRANCH  10  11
HETATM   11  C   UNL     1      -8.775  11.437  65.955  1.00  0.00    -0.131 C  
BRANCH  11  12
HETATM   12  N   UNL     1      -9.826  10.421  65.901  1.00  0.00    -0.221 NA 
HETATM   13  H   UNL     1     -10.389  10.548  65.061  1.00  0.00     0.000 HD 
BRANCH  12  14
HETATM   14  C   UNL     1      -9.372   9.034  65.994  1.00  0.00    -0.242 C  
HETATM   15  C   UNL     1      -7.914   8.901  66.441  1.00  0.00    -0.103 C  
HETATM   16  C   UNL     1     -10.277   8.324  67.006  1.00  0.00    -0.380 C  
ENDBRANCH  12  14
ENDBRANCH  11  12
ENDBRANCH  10  11
ENDBRANCH   9  10
BRANCH   9  17
HETATM   17  C   UNL     1     -10.718  12.735  68.595  1.00  0.00    -0.246 A  
HETATM   18  C   UNL     1     -11.909   9.234  71.649  1.00  0.00    -0.383 A  
HETATM   19  C   UNL     1     -11.660  13.526  69.258  1.00  0.00    -0.369 A  
HETATM   20  C   UNL     1     -12.944  10.019  72.131  1.00  0.00    -0.366 A  
HETATM   21  N   UNL     1     -11.090   9.685  70.663  1.00  0.00    -0.292 NA 
HETATM   22  C   UNL     1     -11.319  10.928  70.182  1.00  0.00    -0.284 A  
HETATM   23  C   UNL     1     -12.502  13.012  70.252  1.00  0.00    -0.217 A  
HETATM   24  C   UNL     1     -12.354  11.724  70.717  1.00  0.00    -0.337 A  
HETATM   25  C   UNL     1     -10.545  11.438  69.131  1.00  0.00    -0.196 A  
HETATM   26  N   UNL     1     -13.179  11.274  71.682  1.00  0.00    -0.393 NA 
BRANCH  18  27
HETATM   27  C   UNL     1     -11.625   7.907  72.160  1.00  0.00    -0.380 A  
HETATM   28  N   UNL     1     -10.795   6.214  73.293  1.00  0.00    -0.258 NA 
HETATM   29  C   UNL     1     -10.733   7.573  73.161  1.00  0.00    -0.398 A  
HETATM   30  C   UNL     1     -10.043   5.393  74.208  1.00  0.00    -0.251 C  
HETATM   31  N   UNL     1     -11.662   5.632  72.444  1.00  0.00    -0.244 NA 
HETATM   32  C   UNL     1     -12.164   6.664  71.757  1.00  0.00    -0.353 A  
ENDBRANCH  18  27
ENDBRANCH   9  17
ENDBRANCH   5   9
BRANCH   8  33
HETATM   33  O   UNL     1     -12.906  13.351  63.629  1.00  0.00    -0.584 OA 
HETATM   34  C   UNL     1     -12.497  12.015  63.376  1.00  0.00    -0.509 C  
ENDBRANCH   8  33
ENDBRANCH   2   3
TORSDOF 9
ENDMDL
MODEL       13
REMARK 921   NORMALIZED FREE ENERGY PREDICTED BY IDOCK:   -7.01 KCAL/MOL
REMARK 922        TOTAL FREE ENERGY PREDICTED BY IDOCK:  -11.88 KCAL/MOL
REMARK 923 INTER-LIGAND FREE ENERGY PREDICTED BY IDOCK:  -10.16 KCAL/MOL
REMARK 924 INTRA-LIGAND FREE ENERGY PREDICTED BY IDOCK:   -1.72 KCAL/MOL
REMARK 927      BINDING AFFINITY PREDICTED BY RF-SCORE:    0.00 PKD
ROOT
HETATM    1  C   UNL     1     -12.722  11.763  63.209  1.00  0.00    -0.180 C  
HETATM    2  O   UNL     1     -13.292  12.393  64.364  1.00  0.00    -0.789 OA 
ENDROOT
BRANCH   2   3
HETATM    3  C   UNL     1     -12.423  13.220  65.036  1.00  0.00    -0.443 A  
HETATM    4  C   UNL     1     -11.887  12.732  66.250  1.00  0.00    -0.485 A  
HETATM    5  C   UNL     1     -10.887  13.419  66.966  1.00  0.00    -0.273 A  
HETATM    6  C   UNL     1     -10.569  14.678  66.426  1.00  0.00    -0.301 A  
HETATM    7  C   UNL     1     -12.083  14.486  64.574  1.00  0.00    -0.501 A  
HETATM    8  C   UNL     1     -11.155  15.225  65.277  1.00  0.00    -0.376 A  
BRANCH   5   9
HETATM    9  N   UNL     1     -10.226  12.910  68.134  1.00  0.00    -0.233 NA 
BRANCH   9  10
HETATM   10  C   UNL     1      -8.752  12.641  68.086  1.00  0.00    -0.190 C  
BRANCH  10  11
HETATM   11  C   UNL     1      -8.194  11.867  66.865  1.00  0.00    -0.157 C  
BRANCH  11  12
HETATM   12  N   UNL     1      -8.382  10.417  66.836  1.00  0.00    -0.123 NA 
HETATM   13  H   UNL     1      -8.369  10.045  67.786  1.00  0.00     0.000 HD 
BRANCH  12  14
HETATM   14  C   UNL     1      -9.573   9.946  66.132  1.00  0.00    -0.218 C  
HETATM   15  C   UNL     1      -9.541  10.230  64.628  1.00  0.00    -0.374 C  
HETATM   16  C   UNL     1      -9.670   8.434  66.359  1.00  0.00    -0.312 C  
ENDBRANCH  12  14
ENDBRANCH  11  12
ENDBRANCH  10  11
ENDBRANCH   9  10
BRANCH   9  17
HETATM   17  C   UNL     1     -10.878  12.160  69.188  1.00  0.00    -0.115 A  
HETATM   18  C   UNL     1     -11.578   8.086  71.620  1.00  0.00    -0.275 A  
HETATM   19  C   UNL     1     -11.909  12.704  69.958  1.00  0.00    -0.358 A  
HETATM   20  C   UNL     1     -12.702   8.641  72.209  1.00  0.00    -0.391 A  
HETATM   21  N   UNL     1     -10.833   8.793  70.731  1.00  0.00    -0.224 NA 
HETATM   22  C   UNL     1     -11.226  10.057  70.455  1.00  0.00    -0.323 A  
HETATM   23  C   UNL     1     -12.670  11.931  70.845  1.00  0.00    -0.301 A  
HETATM   24  C   UNL     1     -12.351  10.615  71.097  1.00  0.00    -0.400 A  
HETATM   25  C   UNL     1     -10.533  10.827  69.510  1.00  0.00    -0.205 A  
HETATM   26  N   UNL     1     -13.102   9.911  71.966  1.00  0.00    -0.443 NA 
BRANCH  18  27
HETATM   27  C   UNL     1     -11.119   6.742  71.914  1.00  0.00    -0.279 A  
HETATM   28  N   UNL     1     -10.008   4.844  71.915  1.00  0.00    -0.183 NA 
HETATM   29  C   UNL     1     -10.054   6.080  71.334  1.00  0.00    -0.193 A  
HETATM   30  C   UNL     1      -9.071   3.785  71.635  1.00  0.00    -0.113 C  
HETATM   31  N   UNL     1     -10.973   4.646  72.831  1.00  0.00    -0.224 NA 
HETATM   32  C   UNL     1     -11.646   5.801  72.828  1.00  0.00    -0.214 A  
ENDBRANCH  18  27
ENDBRANCH   9  17
ENDBRANCH   5   9
BRANCH   8  33
HETATM   33  O   UNL     1     -10.707  16.478  64.959  1.00  0.00    -0.662 OA 
HETATM   34  C   UNL     1     -10.382  17.343  66.037  1.00  0.00    -0.304 C  
ENDBRANCH   8  33
ENDBRANCH   2   3
TORSDOF 9
ENDMDL
MODEL       14
REMARK 921   NORMALIZED FREE ENERGY PREDICTED BY IDOCK:   -7.01 KCAL/MOL
REMARK 922        TOTAL FREE ENERGY PREDICTED BY IDOCK:  -11.87 KCAL/MOL
REMARK 923 INTER-LIGAND FREE ENERGY PREDICTED BY IDOCK:  -10.50 KCAL/MOL
REMARK 924 INTRA-LIGAND FREE ENERGY PREDICTED BY IDOCK:   -1.36 KCAL/MOL
REMARK 927      BINDING AFFINITY PREDICTED BY RF-SCORE:    0.00 PKD
ROOT
HETATM    1  C   UNL     1      -7.932  19.834  66.564  1.00  0.00    -0.319 C  
HETATM    2  O   UNL     1      -7.609  18.722  65.719  1.00  0.00    -0.468 OA 
ENDROOT
BRANCH   2   3
HETATM    3  C   UNL     1      -7.717  17.499  66.339  1.00  0.00    -0.297 A  
HETATM    4  C   UNL     1      -9.024  17.002  66.547  1.00  0.00    -0.298 A  
HETATM    5  C   UNL     1      -9.271  15.709  67.048  1.00  0.00    -0.222 A  
HETATM    6  C   UNL     1      -8.107  15.018  67.429  1.00  0.00    -0.216 A  
HETATM    7  C   UNL     1      -6.611  16.773  66.766  1.00  0.00    -0.247 A  
HETATM    8  C   UNL     1      -6.806  15.527  67.322  1.00  0.00    -0.133 A  
BRANCH   5   9
HETATM    9  N   UNL     1     -10.573  15.114  67.163  1.00  0.00    -0.289 NA 
BRANCH   9  10
HETATM   10  C   UNL     1     -11.606  15.398  66.115  1.00  0.00     0.110 C  
BRANCH  10  11
HETATM   11  C   UNL     1     -12.195  14.199  65.329  1.00  0.00    -0.434 C  
BRANCH  11  12
HETATM   12  N   UNL     1     -11.431  13.693  64.189  1.00  0.00    -0.543 NA 
HETATM   13  H   UNL     1     -10.525  14.159  64.143  1.00  0.00     0.000 HD 
BRANCH  12  14
HETATM   14  C   UNL     1     -11.249  12.243  64.141  1.00  0.00    -0.369 C  
HETATM   15  C   UNL     1     -10.106  11.805  63.223  1.00  0.00    -0.448 C  
HETATM   16  C   UNL     1     -10.959  11.772  65.570  1.00  0.00    -0.344 C  
ENDBRANCH  12  14
ENDBRANCH  11  12
ENDBRANCH  10  11
ENDBRANCH   9  10
BRANCH   9  17
HETATM   17  C   UNL     1     -11.172  14.680  68.408  1.00  0.00    -0.274 A  
HETATM   18  C   UNL     1     -12.732  11.208  71.326  1.00  0.00    -0.426 A  
HETATM   19  C   UNL     1     -11.688  15.586  69.340  1.00  0.00    -0.382 A  
HETATM   20  C   UNL     1     -13.372  12.160  72.103  1.00  0.00    -0.333 A  
HETATM   21  N   UNL     1     -12.025  11.565  70.223  1.00  0.00    -0.355 NA 
HETATM   22  C   UNL     1     -11.963  12.882  69.922  1.00  0.00    -0.307 A  
HETATM   23  C   UNL     1     -12.435  15.173  70.450  1.00  0.00    -0.416 A  
HETATM   24  C   UNL     1     -12.589  13.837  70.750  1.00  0.00    -0.340 A  
HETATM   25  C   UNL     1     -11.292  13.319  68.771  1.00  0.00    -0.331 A  
HETATM   26  N   UNL     1     -13.306  13.485  71.835  1.00  0.00    -0.419 NA 
BRANCH  18  27
HETATM   27  C   UNL     1     -12.762   9.792  71.636  1.00  0.00    -0.517 A  
HETATM   28  N   UNL     1     -12.192   7.704  72.028  1.00  0.00    -0.299 NA 
HETATM   29  C   UNL     1     -11.682   8.936  71.726  1.00  0.00    -0.362 A  
HETATM   30  C   UNL     1     -11.455   6.480  72.218  1.00  0.00    -0.289 C  
HETATM   31  N   UNL     1     -13.532   7.691  72.137  1.00  0.00    -0.123 NA 
HETATM   32  C   UNL     1     -13.876   8.961  71.898  1.00  0.00    -0.440 A  
ENDBRANCH  18  27
ENDBRANCH   9  17
ENDBRANCH   5   9
BRANCH   8  33
HETATM   33  O   UNL     1      -5.832  14.685  67.785  1.00  0.00    -0.221 OA 
HETATM   34  C   UNL     1      -6.137  13.298  67.817  1.00  0.00    -0.153 C  
ENDBRANCH   8  33
ENDBRANCH   2   3
TORSDOF 9
ENDMDL
MODEL       15
REMARK 921   NORMALIZED FREE ENERGY PREDICTED BY IDOCK:   -6.99 KCAL/MOL
REMARK 922        TOTAL FREE ENERGY PREDICTED BY IDOCK:  -11.84 KCAL/MOL
REMARK 923 INTER-LIGAND FREE ENERGY PREDICTED BY IDOCK:  -10.08 KCAL/MOL
REMARK 924 INTRA-LIGAND FREE ENERGY PREDICTED BY IDOCK:   -1.75 KCAL/MOL
REMARK 927      BINDING AFFINITY PREDICTED BY RF-SCORE:    0.00 PKD
ROOT
HETATM    1  C   UNL     1     -11.925   6.784  71.356  1.00  0.00    -0.355 C  
HETATM    2  O   UNL     1     -12.964   7.695  71.733  1.00  0.00    -0.330 OA 
ENDROOT
BRANCH   2   3
HETATM    3  C   UNL     1     -12.687   9.010  71.440  1.00  0.00    -0.304 A  
HETATM    4  C   UNL     1     -11.659   9.252  70.500  1.00  0.00    -0.266 A  
HETATM    5  C   UNL     1     -11.367  10.542  70.013  1.00  0.00    -0.318 A  
HETATM    6  C   UNL     1     -12.107  11.563  70.637  1.00  0.00    -0.450 A  
HETATM    7  C   UNL     1     -13.360  10.070  72.037  1.00  0.00    -0.513 A  
HETATM    8  C   UNL     1     -13.063  11.357  71.639  1.00  0.00    -0.393 A  
BRANCH   5   9
HETATM    9  N   UNL     1     -10.419  10.825  68.973  1.00  0.00    -0.204 NA 
BRANCH   9  10
HETATM   10  C   UNL     1      -8.961  10.583  69.222  1.00  0.00    -0.134 C  
BRANCH  10  11
HETATM   11  C   UNL     1      -8.189   9.691  68.216  1.00  0.00    -0.106 C  
BRANCH  11  12
HETATM   12  N   UNL     1      -8.501   8.262  68.197  1.00  0.00    -0.131 NA 
HETATM   13  H   UNL     1      -9.053   8.015  69.019  1.00  0.00     0.000 HD 
BRANCH  12  14
HETATM   14  C   UNL     1      -9.160   7.773  66.987  1.00  0.00    -0.138 C  
HETATM   15  C   UNL     1     -10.682   7.672  67.124  1.00  0.00    -0.361 C  
HETATM   16  C   UNL     1      -8.819   8.748  65.856  1.00  0.00    -0.222 C  
ENDBRANCH  12  14
ENDBRANCH  11  12
ENDBRANCH  10  11
ENDBRANCH   9  10
BRANCH   9  17
HETATM   17  C   UNL     1     -10.633  11.773  67.899  1.00  0.00    -0.201 A  
HETATM   18  C   UNL     1     -10.516  16.244  66.167  1.00  0.00    -0.322 A  
HETATM   19  C   UNL     1     -11.239  11.407  66.694  1.00  0.00    -0.298 A  
HETATM   20  C   UNL     1     -11.279  15.835  65.085  1.00  0.00    -0.248 A  
HETATM   21  N   UNL     1     -10.153  15.366  67.138  1.00  0.00    -0.242 NA 
HETATM   22  C   UNL     1     -10.556  14.083  67.000  1.00  0.00    -0.279 A  
HETATM   23  C   UNL     1     -11.620  12.349  65.731  1.00  0.00    -0.449 A  
HETATM   24  C   UNL     1     -11.298  13.682  65.870  1.00  0.00    -0.309 A  
HETATM   25  C   UNL     1     -10.259  13.134  67.989  1.00  0.00    -0.233 A  
HETATM   26  N   UNL     1     -11.674  14.552  64.914  1.00  0.00    -0.384 NA 
BRANCH  18  27
HETATM   27  C   UNL     1     -10.050  17.607  66.330  1.00  0.00    -0.356 A  
HETATM   28  N   UNL     1      -8.885  19.388  66.886  1.00  0.00    -0.293 NA 
HETATM   29  C   UNL     1      -8.902  18.024  66.976  1.00  0.00    -0.254 A  
HETATM   30  C   UNL     1      -7.886  20.282  67.415  1.00  0.00    -0.326 C  
HETATM   31  N   UNL     1      -9.944  19.896  66.231  1.00  0.00    -0.453 NA 
HETATM   32  C   UNL     1     -10.651  18.811  65.895  1.00  0.00    -0.352 A  
ENDBRANCH  18  27
ENDBRANCH   9  17
ENDBRANCH   5   9
BRANCH   8  33
HETATM   33  O   UNL     1     -13.633  12.505  72.118  1.00  0.00    -0.500 OA 
HETATM   34  C   UNL     1     -13.032  13.733  71.737  1.00  0.00    -0.355 C  
ENDBRANCH   8  33
ENDBRANCH   2   3
TORSDOF 9
ENDMDL
MODEL       16
REMARK 921   NORMALIZED FREE ENERGY PREDICTED BY IDOCK:   -6.99 KCAL/MOL
REMARK 922        TOTAL FREE ENERGY PREDICTED BY IDOCK:  -11.83 KCAL/MOL
REMARK 923 INTER-LIGAND FREE ENERGY PREDICTED BY IDOCK:  -10.54 KCAL/MOL
REMARK 924 INTRA-LIGAND FREE ENERGY PREDICTED BY IDOCK:   -1.29 KCAL/MOL
REMARK 927      BINDING AFFINITY PREDICTED BY RF-SCORE:    0.00 PKD
ROOT
HETATM    1  C   UNL     1     -12.519  11.780  63.251  1.00  0.00    -0.290 C  
HETATM    2  O   UNL     1     -13.218  12.370  64.354  1.00  0.00    -0.816 OA 
ENDROOT
BRANCH   2   3
HETATM    3  C   UNL     1     -12.550  13.418  64.943  1.00  0.00    -0.360 A  
HETATM    4  C   UNL     1     -12.114  13.230  66.275  1.00  0.00    -0.472 A  
HETATM    5  C   UNL     1     -11.305  14.168  66.946  1.00  0.00    -0.331 A  
HETATM    6  C   UNL     1     -11.081  15.348  66.214  1.00  0.00    -0.226 A  
HETATM    7  C   UNL     1     -12.316  14.623  64.288  1.00  0.00    -0.375 A  
HETATM    8  C   UNL     1     -11.583  15.598  64.931  1.00  0.00    -0.156 A  
BRANCH   5   9
HETATM    9  N   UNL     1     -10.737  13.970  68.249  1.00  0.00    -0.247 NA 
BRANCH   9  10
HETATM   10  C   UNL     1      -9.270  14.197  68.454  1.00  0.00    -0.203 C  
BRANCH  10  11
HETATM   11  C   UNL     1      -8.835  15.394  69.338  1.00  0.00    -0.251 C  
BRANCH  11  12
HETATM   12  N   UNL     1      -9.084  16.742  68.827  1.00  0.00    -0.259 NA 
HETATM   13  H   UNL     1      -9.617  17.280  69.510  1.00  0.00     0.000 HD 
BRANCH  12  14
HETATM   14  C   UNL     1      -7.899  17.492  68.414  1.00  0.00    -0.263 C  
HETATM   15  C   UNL     1      -7.966  18.979  68.773  1.00  0.00    -0.368 C  
HETATM   16  C   UNL     1      -6.691  16.858  69.111  1.00  0.00    -0.232 C  
ENDBRANCH  12  14
ENDBRANCH  11  12
ENDBRANCH  10  11
ENDBRANCH   9  10
BRANCH   9  17
HETATM   17  C   UNL     1     -11.296  13.106  69.269  1.00  0.00    -0.253 A  
HETATM   18  C   UNL     1     -11.865   8.775  71.249  1.00  0.00    -0.303 A  
HETATM   19  C   UNL     1     -12.222  13.570  70.208  1.00  0.00    -0.417 A  
HETATM   20  C   UNL     1     -12.901   9.274  72.021  1.00  0.00    -0.415 A  
HETATM   21  N   UNL     1     -11.196   9.573  70.376  1.00  0.00    -0.257 NA 
HETATM   22  C   UNL     1     -11.576  10.869  70.300  1.00  0.00    -0.334 A  
HETATM   23  C   UNL     1     -12.908  12.707  71.072  1.00  0.00    -0.254 A  
HETATM   24  C   UNL     1     -12.607  11.364  71.125  1.00  0.00    -0.386 A  
HETATM   25  C   UNL     1     -10.962  11.738  69.386  1.00  0.00    -0.185 A  
HETATM   26  N   UNL     1     -13.283  10.572  71.979  1.00  0.00    -0.449 NA 
BRANCH  18  27
HETATM   27  C   UNL     1     -11.421   7.397  71.324  1.00  0.00    -0.297 A  
HETATM   28  N   UNL     1     -10.456   5.464  70.910  1.00  0.00    -0.246 NA 
HETATM   29  C   UNL     1     -10.582   6.742  70.443  1.00  0.00    -0.227 A  
HETATM   30  C   UNL     1      -9.684   4.396  70.326  1.00  0.00    -0.211 C  
HETATM   31  N   UNL     1     -11.159   5.232  72.034  1.00  0.00    -0.141 NA 
HETATM   32  C   UNL     1     -11.745   6.408  72.282  1.00  0.00    -0.290 A  
ENDBRANCH  18  27
ENDBRANCH   9  17
ENDBRANCH   5   9
BRANCH   8  33
HETATM   33  O   UNL     1     -11.260  16.829  64.429  1.00  0.00    -1.112 OA 
HETATM   34  C   UNL     1     -10.688  17.766  65.331  1.00  0.00     0.086 C  
ENDBRANCH   8  33
ENDBRANCH   2   3
TORSDOF 9
ENDMDL
MODEL       17
REMARK 921   NORMALIZED FREE ENERGY PREDICTED BY IDOCK:   -6.96 KCAL/MOL
REMARK 922        TOTAL FREE ENERGY PREDICTED BY IDOCK:  -11.79 KCAL/MOL
REMARK 923 INTER-LIGAND FREE ENERGY PREDICTED BY IDOCK:  -10.38 KCAL/MOL
REMARK 924 INTRA-LIGAND FREE ENERGY PREDICTED BY IDOCK:   -1.41 KCAL/MOL
REMARK 927      BINDING AFFINITY PREDICTED BY RF-SCORE:    0.00 PKD
ROOT
HETATM    1  C   UNL     1     -10.447  18.294  65.852  1.00  0.00    -0.307 C  
HETATM    2  O   UNL     1     -11.190  17.675  64.794  1.00  0.00    -0.834 OA 
ENDROOT
BRANCH   2   3
HETATM    3  C   UNL     1     -11.252  16.304  64.882  1.00  0.00    -0.236 A  
HETATM    4  C   UNL     1     -10.515  15.698  65.925  1.00  0.00    -0.358 A  
HETATM    5  C   UNL     1     -10.598  14.320  66.209  1.00  0.00    -0.291 A  
HETATM    6  C   UNL     1     -11.382  13.600  65.289  1.00  0.00    -0.306 A  
HETATM    7  C   UNL     1     -11.985  15.527  63.993  1.00  0.00     0.040 A  
HETATM    8  C   UNL     1     -12.045  14.164  64.192  1.00  0.00    -0.406 A  
BRANCH   5   9
HETATM    9  N   UNL     1      -9.967  13.678  67.327  1.00  0.00    -0.237 NA 
BRANCH   9  10
HETATM   10  C   UNL     1      -8.640  13.008  67.135  1.00  0.00    -0.195 C  
BRANCH  10  11
HETATM   11  C   UNL     1      -7.397  13.649  67.805  1.00  0.00    -0.166 C  
BRANCH  11  12
HETATM   12  N   UNL     1      -6.733  14.743  67.098  1.00  0.00    -0.341 NA 
HETATM   13  H   UNL     1      -7.221  14.940  66.225  1.00  0.00     0.000 HD 
BRANCH  12  14
HETATM   14  C   UNL     1      -6.557  15.977  67.862  1.00  0.00    -0.144 C  
HETATM   15  C   UNL     1      -7.366  17.153  67.310  1.00  0.00    -0.182 C  
HETATM   16  C   UNL     1      -6.999  15.690  69.301  1.00  0.00    -0.179 C  
ENDBRANCH  12  14
ENDBRANCH  11  12
ENDBRANCH  10  11
ENDBRANCH   9  10
BRANCH   9  17
HETATM   17  C   UNL     1     -10.667  13.167  68.486  1.00  0.00    -0.259 A  
HETATM   18  C   UNL     1     -11.934   9.543  71.362  1.00  0.00    -0.386 A  
HETATM   19  C   UNL     1     -11.519  13.968  69.252  1.00  0.00    -0.344 A  
HETATM   20  C   UNL     1     -12.889  10.357  71.952  1.00  0.00    -0.415 A  
HETATM   21  N   UNL     1     -11.138  10.009  70.364  1.00  0.00    -0.305 NA 
HETATM   22  C   UNL     1     -11.308  11.295  69.981  1.00  0.00    -0.208 A  
HETATM   23  C   UNL     1     -12.343  13.441  70.255  1.00  0.00    -0.354 A  
HETATM   24  C   UNL     1     -12.258  12.116  70.623  1.00  0.00    -0.300 A  
HETATM   25  C   UNL     1     -10.554  11.828  68.925  1.00  0.00    -0.211 A  
HETATM   26  N   UNL     1     -13.061  11.653  71.600  1.00  0.00    -0.424 NA 
BRANCH  18  27
HETATM   27  C   UNL     1     -11.715   8.169  71.767  1.00  0.00    -0.343 A  
HETATM   28  N   UNL     1     -11.135   6.363  72.881  1.00  0.00    -0.247 NA 
HETATM   29  C   UNL     1     -11.142   7.728  72.945  1.00  0.00    -0.398 A  
HETATM   30  C   UNL     1     -10.631   5.448  73.875  1.00  0.00    -0.285 C  
HETATM   31  N   UNL     1     -11.658   5.877  71.741  1.00  0.00    -0.215 NA 
HETATM   32  C   UNL     1     -12.009   6.976  71.066  1.00  0.00    -0.361 A  
ENDBRANCH  18  27
ENDBRANCH   9  17
ENDBRANCH   5   9
BRANCH   8  33
HETATM   33  O   UNL     1     -12.722  13.261  63.418  1.00  0.00    -0.695 OA 
HETATM   34  C   UNL     1     -12.305  11.906  63.489  1.00  0.00    -0.490 C  
ENDBRANCH   8  33
ENDBRANCH   2   3
TORSDOF 9
ENDMDL
MODEL       18
REMARK 921   NORMALIZED FREE ENERGY PREDICTED BY IDOCK:   -6.96 KCAL/MOL
REMARK 922        TOTAL FREE ENERGY PREDICTED BY IDOCK:  -11.79 KCAL/MOL
REMARK 923 INTER-LIGAND FREE ENERGY PREDICTED BY IDOCK:  -10.50 KCAL/MOL
REMARK 924 INTRA-LIGAND FREE ENERGY PREDICTED BY IDOCK:   -1.29 KCAL/MOL
REMARK 927      BINDING AFFINITY PREDICTED BY RF-SCORE:    0.00 PKD
ROOT
HETATM    1  C   UNL     1     -10.507  19.929  65.758  1.00  0.00    -0.414 C  
HETATM    2  O   UNL     1     -10.135  20.128  67.128  1.00  0.00    -0.422 OA 
ENDROOT
BRANCH   2   3
HETATM    3  C   UNL     1      -9.462  19.066  67.684  1.00  0.00    -0.306 A  
HETATM    4  C   UNL     1     -10.230  17.925  68.012  1.00  0.00    -0.381 A  
HETATM    5  C   UNL     1      -9.647  16.724  68.462  1.00  0.00    -0.245 A  
HETATM    6  C   UNL     1      -8.258  16.812  68.667  1.00  0.00    -0.252 A  
HETATM    7  C   UNL     1      -8.095  19.092  67.938  1.00  0.00    -0.323 A  
HETATM    8  C   UNL     1      -7.489  17.960  68.440  1.00  0.00    -0.272 A  
BRANCH   5   9
HETATM    9  N   UNL     1     -10.367  15.504  68.692  1.00  0.00    -0.214 NA 
BRANCH   9  10
HETATM   10  C   UNL     1     -10.700  15.100  70.097  1.00  0.00    -0.221 C  
BRANCH  10  11
HETATM   11  C   UNL     1     -11.934  15.754  70.768  1.00  0.00    -0.407 C  
BRANCH  11  12
HETATM   12  N   UNL     1     -13.242  15.147  70.523  1.00  0.00    -0.676 NA 
HETATM   13  H   UNL     1     -13.137  14.318  69.938  1.00  0.00     0.000 HD 
BRANCH  12  14
HETATM   14  C   UNL     1     -14.023  14.821  71.715  1.00  0.00    -0.477 C  
HETATM   15  C   UNL     1     -13.774  13.403  72.236  1.00  0.00    -0.705 C  
HETATM   16  C   UNL     1     -13.641  15.832  72.802  1.00  0.00    -0.662 C  
ENDBRANCH  12  14
ENDBRANCH  11  12
ENDBRANCH  10  11
ENDBRANCH   9  10
BRANCH   9  17
HETATM   17  C   UNL     1     -10.379  14.372  67.788  1.00  0.00    -0.238 A  
HETATM   18  C   UNL     1     -10.359   9.643  66.987  1.00  0.00    -0.248 A  
HETATM   19  C   UNL     1     -10.282  14.527  66.402  1.00  0.00    -0.293 A  
HETATM   20  C   UNL     1     -10.081   9.880  65.650  1.00  0.00    -0.237 A  
HETATM   21  N   UNL     1     -10.509  10.671  67.862  1.00  0.00    -0.194 NA 
HETATM   22  C   UNL     1     -10.386  11.927  67.376  1.00  0.00    -0.207 A  
HETATM   23  C   UNL     1     -10.102  13.440  65.538  1.00  0.00    -0.279 A  
HETATM   24  C   UNL     1     -10.142  12.144  66.004  1.00  0.00    -0.235 A  
HETATM   25  C   UNL     1     -10.479  13.034  68.233  1.00  0.00    -0.258 A  
HETATM   26  N   UNL     1      -9.976  11.128  65.136  1.00  0.00    -0.255 NA 
BRANCH  18  27
HETATM   27  C   UNL     1     -10.519   8.309  67.532  1.00  0.00    -0.325 A  
HETATM   28  N   UNL     1     -10.694   6.594  68.897  1.00  0.00    -0.242 NA 
HETATM   29  C   UNL     1     -10.526   7.950  68.866  1.00  0.00    -0.190 A  
HETATM   30  C   UNL     1     -10.760   5.752  70.066  1.00  0.00    -0.330 C  
HETATM   31  N   UNL     1     -10.792   6.037  67.676  1.00  0.00    -0.302 NA 
HETATM   32  C   UNL     1     -10.685   7.082  66.849  1.00  0.00    -0.306 A  
ENDBRANCH  18  27
ENDBRANCH   9  17
ENDBRANCH   5   9
BRANCH   8  33
HETATM   33  O   UNL     1      -6.161  17.817  68.738  1.00  0.00    -0.188 OA 
HETATM   34  C   UNL     1      -5.797  16.721  69.563  1.00  0.00    -0.194 C  
ENDBRANCH   8  33
ENDBRANCH   2   3
TORSDOF 9
ENDMDL
MODEL       19
REMARK 921   NORMALIZED FREE ENERGY PREDICTED BY IDOCK:   -6.95 KCAL/MOL
REMARK 922        TOTAL FREE ENERGY PREDICTED BY IDOCK:  -11.78 KCAL/MOL
REMARK 923 INTER-LIGAND FREE ENERGY PREDICTED BY IDOCK:  -10.66 KCAL/MOL
REMARK 924 INTRA-LIGAND FREE ENERGY PREDICTED BY IDOCK:   -1.13 KCAL/MOL
REMARK 927      BINDING AFFINITY PREDICTED BY RF-SCORE:    0.00 PKD
ROOT
HETATM    1  C   UNL     1     -10.721   6.614  73.256  1.00  0.00    -0.287 C  
HETATM    2  O   UNL     1     -11.382   7.853  72.968  1.00  0.00    -0.408 OA 
ENDROOT
BRANCH   2   3
HETATM    3  C   UNL     1     -10.869   8.519  71.880  1.00  0.00    -0.322 A  
HETATM    4  C   UNL     1     -11.575   9.663  71.440  1.00  0.00    -0.472 A  
HETATM    5  C   UNL     1     -11.087  10.509  70.425  1.00  0.00    -0.244 A  
HETATM    6  C   UNL     1      -9.907  10.042  69.817  1.00  0.00    -0.270 A  
HETATM    7  C   UNL     1      -9.722   8.100  71.215  1.00  0.00    -0.207 A  
HETATM    8  C   UNL     1      -9.241   8.862  70.171  1.00  0.00    -0.180 A  
BRANCH   5   9
HETATM    9  N   UNL     1     -11.703  11.744  70.027  1.00  0.00    -0.323 NA 
BRANCH   9  10
HETATM   10  C   UNL     1     -13.033  12.121  70.606  1.00  0.00     0.200 C  
BRANCH  10  11
HETATM   11  C   UNL     1     -13.048  13.005  71.879  1.00  0.00    -0.384 C  
BRANCH  11  12
HETATM   12  N   UNL     1     -13.948  14.158  71.895  1.00  0.00    -0.449 NA 
HETATM   13  H   UNL     1     -14.797  13.930  72.412  1.00  0.00     0.000 HD 
BRANCH  12  14
HETATM   14  C   UNL     1     -13.373  15.403  72.403  1.00  0.00    -0.458 C  
HETATM   15  C   UNL     1     -12.645  15.235  73.739  1.00  0.00    -0.736 C  
HETATM   16  C   UNL     1     -12.384  15.912  71.349  1.00  0.00    -0.485 C  
ENDBRANCH  12  14
ENDBRANCH  11  12
ENDBRANCH  10  11
ENDBRANCH   9  10
BRANCH   9  17
HETATM   17  C   UNL     1     -11.445  12.427  68.776  1.00  0.00    -0.304 A  
HETATM   18  C   UNL     1     -10.268  16.372  66.317  1.00  0.00    -0.330 A  
HETATM   19  C   UNL     1     -11.657  11.814  67.538  1.00  0.00    -0.361 A  
HETATM   20  C   UNL     1     -10.673  15.753  65.146  1.00  0.00    -0.435 A  
HETATM   21  N   UNL     1     -10.345  15.730  67.511  1.00  0.00    -0.274 NA 
HETATM   22  C   UNL     1     -10.820  14.463  67.508  1.00  0.00    -0.282 A  
HETATM   23  C   UNL     1     -11.594  12.522  66.332  1.00  0.00    -0.449 A  
HETATM   24  C   UNL     1     -11.189  13.839  66.298  1.00  0.00    -0.306 A  
HETATM   25  C   UNL     1     -10.973  13.758  68.710  1.00  0.00    -0.289 A  
HETATM   26  N   UNL     1     -11.131  14.479  65.114  1.00  0.00    -0.348 NA 
BRANCH  18  27
HETATM   27  C   UNL     1      -9.734  17.720  66.348  1.00  0.00    -0.315 A  
HETATM   28  N   UNL     1      -8.385  19.454  66.459  1.00  0.00    -0.312 NA 
HETATM   29  C   UNL     1      -8.407  18.088  66.463  1.00  0.00    -0.268 A  
HETATM   30  C   UNL     1      -7.227  20.307  66.563  1.00  0.00    -0.266 C  
HETATM   31  N   UNL     1      -9.606  20.009  66.355  1.00  0.00    -0.415 NA 
HETATM   32  C   UNL     1     -10.424  18.953  66.289  1.00  0.00    -0.445 A  
ENDBRANCH  18  27
ENDBRANCH   9  17
ENDBRANCH   5   9
BRANCH   8  33
HETATM   33  O   UNL     1      -8.129   8.597  69.420  1.00  0.00    -0.106 OA 
HETATM   34  C   UNL     1      -8.064   7.329  68.785  1.00  0.00    -0.124 C  
ENDBRANCH   8  33
ENDBRANCH   2   3
TORSDOF 9
ENDMDL
MODEL       20
REMARK 921   NORMALIZED FREE ENERGY PREDICTED BY IDOCK:   -6.94 KCAL/MOL
REMARK 922        TOTAL FREE ENERGY PREDICTED BY IDOCK:  -11.77 KCAL/MOL
REMARK 923 INTER-LIGAND FREE ENERGY PREDICTED BY IDOCK:  -10.78 KCAL/MOL
REMARK 924 INTRA-LIGAND FREE ENERGY PREDICTED BY IDOCK:   -0.99 KCAL/MOL
REMARK 927      BINDING AFFINITY PREDICTED BY RF-SCORE:    0.00 PKD
ROOT
HETATM    1  C   UNL     1     -12.733   8.142  71.803  1.00  0.00    -0.330 C  
HETATM    2  O   UNL     1     -13.360   9.309  72.349  1.00  0.00    -0.445 OA 
ENDROOT
BRANCH   2   3
HETATM    3  C   UNL     1     -13.003  10.480  71.722  1.00  0.00    -0.476 A  
HETATM    4  C   UNL     1     -12.178  10.367  70.580  1.00  0.00    -0.441 A  
HETATM    5  C   UNL     1     -11.851  11.474  69.771  1.00  0.00    -0.357 A  
HETATM    6  C   UNL     1     -12.318  12.701  70.275  1.00  0.00    -0.269 A  
HETATM    7  C   UNL     1     -13.407  11.730  72.180  1.00  0.00    -0.334 A  
HETATM    8  C   UNL     1     -13.056  12.849  71.456  1.00  0.00    -0.298 A  
BRANCH   5   9
HETATM    9  N   UNL     1     -11.120  11.394  68.538  1.00  0.00    -0.214 NA 
BRANCH   9  10
HETATM   10  C   UNL     1      -9.887  10.545  68.469  1.00  0.00    -0.168 C  
BRANCH  10  11
HETATM   11  C   UNL     1      -9.892   9.331  67.504  1.00  0.00    -0.175 C  
BRANCH  11  12
HETATM   12  N   UNL     1     -10.709   8.176  67.871  1.00  0.00    -0.456 NA 
HETATM   13  H   UNL     1     -10.899   7.607  67.046  1.00  0.00     0.000 HD 
BRANCH  12  14
HETATM   14  C   UNL     1     -10.175   7.337  68.943  1.00  0.00    -0.193 C  
HETATM   15  C   UNL     1     -10.941   6.024  69.125  1.00  0.00    -0.429 C  
HETATM   16  C   UNL     1      -8.716   7.026  68.596  1.00  0.00    -0.123 C  
ENDBRANCH  12  14
ENDBRANCH  11  12
ENDBRANCH  10  11
ENDBRANCH   9  10
BRANCH   9  17
HETATM   17  C   UNL     1     -11.136  12.408  67.504  1.00  0.00    -0.266 A  
HETATM   18  C   UNL     1     -10.516  16.941  66.064  1.00  0.00    -0.290 A  
HETATM   19  C   UNL     1     -11.607  12.146  66.214  1.00  0.00    -0.424 A  
HETATM   20  C   UNL     1     -11.161  16.642  64.875  1.00  0.00    -0.129 A  
HETATM   21  N   UNL     1     -10.335  15.992  67.019  1.00  0.00    -0.288 NA 
HETATM   22  C   UNL     1     -10.799  14.748  66.758  1.00  0.00    -0.316 A  
HETATM   23  C   UNL     1     -11.803  13.160  65.269  1.00  0.00    -0.400 A  
HETATM   24  C   UNL     1     -11.417  14.458  65.524  1.00  0.00    -0.340 A  
HETATM   25  C   UNL     1     -10.690  13.732  67.718  1.00  0.00    -0.254 A  
HETATM   26  N   UNL     1     -11.613  15.400  64.582  1.00  0.00    -0.369 NA 
BRANCH  18  27
HETATM   27  C   UNL     1      -9.988  18.258  66.362  1.00  0.00    -0.385 A  
HETATM   28  N   UNL     1      -8.664  19.929  66.900  1.00  0.00    -0.326 NA 
HETATM   29  C   UNL     1      -8.687  18.577  66.700  1.00  0.00    -0.287 A  
HETATM   30  C   UNL     1      -7.528  20.734  67.277  1.00  0.00    -0.328 C  
HETATM   31  N   UNL     1      -9.860  20.518  66.723  1.00  0.00    -0.396 NA 
HETATM   32  C   UNL     1     -10.663  19.500  66.396  1.00  0.00    -0.427 A  
ENDBRANCH  18  27
ENDBRANCH   9  17
ENDBRANCH   5   9
BRANCH   8  33
HETATM   33  O   UNL     1     -13.375  14.144  71.762  1.00  0.00    -0.336 OA 
HETATM   34  C   UNL     1     -12.965  14.630  73.031  1.00  0.00    -0.510 C  
ENDBRANCH   8  33
ENDBRANCH   2   3
TORSDOF 9
ENDMDL
MODEL       21
REMARK 921   NORMALIZED FREE ENERGY PREDICTED BY IDOCK:   -6.89 KCAL/MOL
REMARK 922        TOTAL FREE ENERGY PREDICTED BY IDOCK:  -11.69 KCAL/MOL
REMARK 923 INTER-LIGAND FREE ENERGY PREDICTED BY IDOCK:  -10.49 KCAL/MOL
REMARK 924 INTRA-LIGAND FREE ENERGY PREDICTED BY IDOCK:   -1.20 KCAL/MOL
REMARK 927      BINDING AFFINITY PREDICTED BY RF-SCORE:    0.00 PKD
ROOT
HETATM    1  C   UNL     1      -6.081  17.542  69.202  1.00  0.00    -0.218 C  
HETATM    2  O   UNL     1      -6.958  16.428  69.410  1.00  0.00    -0.218 OA 
ENDROOT
BRANCH   2   3
HETATM    3  C   UNL     1      -8.202  16.583  68.844  1.00  0.00    -0.241 A  
HETATM    4  C   UNL     1      -8.941  15.404  68.596  1.00  0.00    -0.191 A  
HETATM    5  C   UNL     1     -10.276  15.429  68.145  1.00  0.00    -0.230 A  
HETATM    6  C   UNL     1     -10.751  16.721  67.854  1.00  0.00    -0.347 A  
HETATM    7  C   UNL     1      -8.724  17.827  68.507  1.00  0.00    -0.284 A  
HETATM    8  C   UNL     1     -10.005  17.897  68.001  1.00  0.00    -0.333 A  
BRANCH   5   9
HETATM    9  N   UNL     1     -11.108  14.269  67.994  1.00  0.00    -0.261 NA 
BRANCH   9  10
HETATM   10  C   UNL     1     -12.030  14.174  66.817  1.00  0.00    -0.447 C  
BRANCH  10  11
HETATM   11  C   UNL     1     -11.418  14.311  65.399  1.00  0.00    -0.332 C  
BRANCH  11  12
HETATM   12  N   UNL     1     -11.460  13.140  64.525  1.00  0.00    -0.337 NA 
HETATM   13  H   UNL     1     -11.610  13.431  63.559  1.00  0.00     0.000 HD 
BRANCH  12  14
HETATM   14  C   UNL     1     -10.303  12.249  64.603  1.00  0.00    -0.301 C  
HETATM   15  C   UNL     1     -10.480  11.111  65.612  1.00  0.00    -0.308 C  
HETATM   16  C   UNL     1     -10.088  11.656  63.207  1.00  0.00    -0.454 C  
ENDBRANCH  12  14
ENDBRANCH  11  12
ENDBRANCH  10  11
ENDBRANCH   9  10
BRANCH   9  17
HETATM   17  C   UNL     1     -11.532  13.412  69.082  1.00  0.00    -0.300 A  
HETATM   18  C   UNL     1     -11.911   9.083  71.112  1.00  0.00    -0.301 A  
HETATM   19  C   UNL     1     -12.297  13.892  70.150  1.00  0.00    -0.400 A  
HETATM   20  C   UNL     1     -12.809   9.602  72.030  1.00  0.00    -0.410 A  
HETATM   21  N   UNL     1     -11.358   9.870  70.152  1.00  0.00    -0.266 NA 
HETATM   22  C   UNL     1     -11.712  11.176  70.137  1.00  0.00    -0.353 A  
HETATM   23  C   UNL     1     -12.869  13.041  71.103  1.00  0.00    -0.331 A  
HETATM   24  C   UNL     1     -12.598  11.690  71.107  1.00  0.00    -0.335 A  
HETATM   25  C   UNL     1     -11.219  12.036  69.145  1.00  0.00    -0.305 A  
HETATM   26  N   UNL     1     -13.160  10.909  72.049  1.00  0.00    -0.462 NA 
BRANCH  18  27
HETATM   27  C   UNL     1     -11.495   7.694  71.117  1.00  0.00    -0.296 A  
HETATM   28  N   UNL     1     -10.862   5.682  71.740  1.00  0.00    -0.249 NA 
HETATM   29  C   UNL     1     -11.223   6.910  72.221  1.00  0.00    -0.263 A  
HETATM   30  C   UNL     1     -10.480   4.524  72.509  1.00  0.00    -0.186 C  
HETATM   31  N   UNL     1     -10.873   5.608  70.397  1.00  0.00    -0.285 NA 
HETATM   32  C   UNL     1     -11.258   6.832  70.021  1.00  0.00    -0.328 A  
ENDBRANCH  18  27
ENDBRANCH   9  17
ENDBRANCH   5   9
BRANCH   8  33
HETATM   33  O   UNL     1     -10.666  19.035  67.627  1.00  0.00    -0.443 OA 
HETATM   34  C   UNL     1     -10.565  19.425  66.266  1.00  0.00    -0.475 C  
ENDBRANCH   8  33
ENDBRANCH   2   3
TORSDOF 9
ENDMDL
MODEL       22
REMARK 921   NORMALIZED FREE ENERGY PREDICTED BY IDOCK:   -6.86 KCAL/MOL
REMARK 922        TOTAL FREE ENERGY PREDICTED BY IDOCK:  -11.64 KCAL/MOL
REMARK 923 INTER-LIGAND FREE ENERGY PREDICTED BY IDOCK:  -10.41 KCAL/MOL
REMARK 924 INTRA-LIGAND FREE ENERGY PREDICTED BY IDOCK:   -1.23 KCAL/MOL
REMARK 927      BINDING AFFINITY PREDICTED BY RF-SCORE:    0.00 PKD
ROOT
HETATM    1  C   UNL     1     -10.381  19.853  66.652  1.00  0.00    -0.485 C  
HETATM    2  O   UNL     1      -9.617  19.018  65.774  1.00  0.00    -0.417 OA 
ENDROOT
BRANCH   2   3
HETATM    3  C   UNL     1      -9.219  17.829  66.340  1.00  0.00    -0.240 A  
HETATM    4  C   UNL     1     -10.227  17.034  66.931  1.00  0.00    -0.305 A  
HETATM    5  C   UNL     1      -9.977  15.738  67.424  1.00  0.00    -0.237 A  
HETATM    6  C   UNL     1      -8.619  15.370  67.383  1.00  0.00    -0.197 A  
HETATM    7  C   UNL     1      -7.892  17.414  66.358  1.00  0.00    -0.337 A  
HETATM    8  C   UNL     1      -7.588  16.179  66.890  1.00  0.00    -0.240 A  
BRANCH   5   9
HETATM    9  N   UNL     1     -10.985  14.846  67.921  1.00  0.00    -0.277 NA 
BRANCH   9  10
HETATM   10  C   UNL     1     -11.859  15.285  69.057  1.00  0.00    -0.318 C  
BRANCH  10  11
HETATM   11  C   UNL     1     -11.173  15.843  70.330  1.00  0.00    -0.380 C  
BRANCH  11  12
HETATM   12  N   UNL     1     -11.401  15.136  71.590  1.00  0.00    -0.528 NA 
HETATM   13  H   UNL     1     -10.515  14.997  72.076  1.00  0.00     0.000 HD 
BRANCH  12  14
HETATM   14  C   UNL     1     -12.374  15.748  72.492  1.00  0.00    -0.455 C  
HETATM   15  C   UNL     1     -13.827  15.495  72.081  1.00  0.00    -0.621 C  
HETATM   16  C   UNL     1     -12.135  15.161  73.888  1.00  0.00    -0.626 C  
ENDBRANCH  12  14
ENDBRANCH  11  12
ENDBRANCH  10  11
ENDBRANCH   9  10
BRANCH   9  17
HETATM   17  C   UNL     1     -10.940  13.403  67.802  1.00  0.00    -0.262 A  
HETATM   18  C   UNL     1     -10.721   9.035  69.770  1.00  0.00    -0.225 A  
HETATM   19  C   UNL     1     -10.831  12.764  66.563  1.00  0.00    -0.280 A  
HETATM   20  C   UNL     1     -10.435   8.498  68.525  1.00  0.00    -0.167 A  
HETATM   21  N   UNL     1     -10.923  10.369  69.927  1.00  0.00    -0.286 NA 
HETATM   22  C   UNL     1     -10.844  11.145  68.822  1.00  0.00    -0.213 A  
HETATM   23  C   UNL     1     -10.597  11.388  66.449  1.00  0.00    -0.311 A  
HETATM   24  C   UNL     1     -10.591  10.571  67.558  1.00  0.00    -0.259 A  
HETATM   25  C   UNL     1     -10.992  12.537  68.917  1.00  0.00    -0.272 A  
HETATM   26  N   UNL     1     -10.373   9.251  67.402  1.00  0.00    -0.246 NA 
BRANCH  18  27
HETATM   27  C   UNL     1     -10.835   8.226  70.968  1.00  0.00    -0.269 A  
HETATM   28  N   UNL     1     -11.016   6.537  72.365  1.00  0.00    -0.236 NA 
HETATM   29  C   UNL     1     -10.909   6.849  71.039  1.00  0.00    -0.241 A  
HETATM   30  C   UNL     1     -11.128   5.222  72.945  1.00  0.00    -0.305 C  
HETATM   31  N   UNL     1     -11.022   7.616  73.170  1.00  0.00    -0.398 NA 
HETATM   32  C   UNL     1     -10.912   8.640  72.318  1.00  0.00    -0.322 A  
ENDBRANCH  18  27
ENDBRANCH   9  17
ENDBRANCH   5   9
BRANCH   8  33
HETATM   33  O   UNL     1      -6.342  15.620  66.979  1.00  0.00    -0.298 OA 
HETATM   34  C   UNL     1      -6.153  14.614  67.963  1.00  0.00    -0.156 C  
ENDBRANCH   8  33
ENDBRANCH   2   3
TORSDOF 9
ENDMDL
MODEL       23
REMARK 921   NORMALIZED FREE ENERGY PREDICTED BY IDOCK:   -6.85 KCAL/MOL
REMARK 922        TOTAL FREE ENERGY PREDICTED BY IDOCK:  -11.63 KCAL/MOL
REMARK 923 INTER-LIGAND FREE ENERGY PREDICTED BY IDOCK:  -10.55 KCAL/MOL
REMARK 924 INTRA-LIGAND FREE ENERGY PREDICTED BY IDOCK:   -1.08 KCAL/MOL
REMARK 927      BINDING AFFINITY PREDICTED BY RF-SCORE:    0.00 PKD
ROOT
HETATM    1  C   UNL     1      -6.000  17.823  69.425  1.00  0.00    -0.238 C  
HETATM    2  O   UNL     1      -6.908  16.715  69.373  1.00  0.00    -0.230 OA 
ENDROOT
BRANCH   2   3
HETATM    3  C   UNL     1      -8.163  17.042  68.916  1.00  0.00    -0.204 A  
HETATM    4  C   UNL     1      -9.019  15.970  68.577  1.00  0.00    -0.200 A  
HETATM    5  C   UNL     1     -10.370  16.161  68.225  1.00  0.00    -0.266 A  
HETATM    6  C   UNL     1     -10.742  17.515  68.126  1.00  0.00    -0.330 A  
HETATM    7  C   UNL     1      -8.589  18.358  68.769  1.00  0.00    -0.248 A  
HETATM    8  C   UNL     1      -9.885  18.597  68.363  1.00  0.00    -0.384 A  
BRANCH   5   9
HETATM    9  N   UNL     1     -11.310  15.102  67.991  1.00  0.00    -0.326 NA 
BRANCH   9  10
HETATM   10  C   UNL     1     -12.003  14.464  69.157  1.00  0.00    -0.322 C  
BRANCH  10  11
HETATM   11  C   UNL     1     -12.316  15.349  70.391  1.00  0.00    -0.402 C  
BRANCH  11  12
HETATM   12  N   UNL     1     -13.720  15.539  70.752  1.00  0.00    -0.859 NA 
HETATM   13  H   UNL     1     -14.320  15.063  70.078  1.00  0.00     0.000 HD 
BRANCH  12  14
HETATM   14  C   UNL     1     -14.084  15.144  72.111  1.00  0.00    -0.554 C  
HETATM   15  C   UNL     1     -14.000  13.633  72.347  1.00  0.00    -0.651 C  
HETATM   16  C   UNL     1     -13.123  15.858  73.067  1.00  0.00    -0.639 C  
ENDBRANCH  12  14
ENDBRANCH  11  12
ENDBRANCH  10  11
ENDBRANCH   9  10
BRANCH   9  17
HETATM   17  C   UNL     1     -11.305  14.239  66.828  1.00  0.00    -0.348 A  
HETATM   18  C   UNL     1      -9.602  10.460  64.415  1.00  0.00    -0.316 A  
HETATM   19  C   UNL     1     -12.067  14.521  65.691  1.00  0.00    -0.295 A  
HETATM   20  C   UNL     1     -10.247  10.909  63.274  1.00  0.00    -0.257 A  
HETATM   21  N   UNL     1      -9.689  11.147  65.584  1.00  0.00    -0.215 NA 
HETATM   22  C   UNL     1     -10.435  12.275  65.590  1.00  0.00    -0.261 A  
HETATM   23  C   UNL     1     -11.926  13.802  64.497  1.00  0.00    -0.458 A  
HETATM   24  C   UNL     1     -11.115  12.691  64.426  1.00  0.00    -0.345 A  
HETATM   25  C   UNL     1     -10.528  13.060  66.748  1.00  0.00    -0.264 A  
HETATM   26  N   UNL     1     -11.017  12.022  63.261  1.00  0.00    -0.369 NA 
BRANCH  18  27
HETATM   27  C   UNL     1      -8.814   9.243  64.446  1.00  0.00    -0.197 A  
HETATM   28  N   UNL     1      -7.702   7.464  65.106  1.00  0.00    -0.104 NA 
HETATM   29  C   UNL     1      -8.440   8.520  65.562  1.00  0.00    -0.167 A  
HETATM   30  C   UNL     1      -7.084   6.428  65.896  1.00  0.00    -0.066 C  
HETATM   31  N   UNL     1      -7.562   7.445  63.768  1.00  0.00    -0.111 NA 
HETATM   32  C   UNL     1      -8.239   8.528  63.370  1.00  0.00    -0.136 A  
ENDBRANCH  18  27
ENDBRANCH   9  17
ENDBRANCH   5   9
BRANCH   8  33
HETATM   33  O   UNL     1     -10.462  19.823  68.176  1.00  0.00    -0.435 OA 
HETATM   34  C   UNL     1      -9.872  20.674  67.205  1.00  0.00    -0.357 C  
ENDBRANCH   8  33
ENDBRANCH   2   3
TORSDOF 9
ENDMDL
MODEL       24
REMARK 921   NORMALIZED FREE ENERGY PREDICTED BY IDOCK:   -6.84 KCAL/MOL
REMARK 922        TOTAL FREE ENERGY PREDICTED BY IDOCK:  -11.61 KCAL/MOL
REMARK 923 INTER-LIGAND FREE ENERGY PREDICTED BY IDOCK:  -10.30 KCAL/MOL
REMARK 924 INTRA-LIGAND FREE ENERGY PREDICTED BY IDOCK:   -1.31 KCAL/MOL
REMARK 927      BINDING AFFINITY PREDICTED BY RF-SCORE:    0.00 PKD
ROOT
HETATM    1  C   UNL     1     -13.718  15.303  71.199  1.00  0.00    -0.443 C  
HETATM    2  O   UNL     1     -13.505  14.172  72.053  1.00  0.00    -0.360 OA 
ENDROOT
BRANCH   2   3
HETATM    3  C   UNL     1     -12.966  13.081  71.412  1.00  0.00    -0.283 A  
HETATM    4  C   UNL     1     -12.213  13.335  70.243  1.00  0.00    -0.391 A  
HETATM    5  C   UNL     1     -11.498  12.325  69.568  1.00  0.00    -0.249 A  
HETATM    6  C   UNL     1     -11.706  11.037  70.095  1.00  0.00    -0.442 A  
HETATM    7  C   UNL     1     -13.152  11.778  71.861  1.00  0.00    -0.482 A  
HETATM    8  C   UNL     1     -12.524  10.747  71.194  1.00  0.00    -0.414 A  
BRANCH   5   9
HETATM    9  N   UNL     1     -10.624  12.552  68.452  1.00  0.00    -0.236 NA 
BRANCH   9  10
HETATM   10  C   UNL     1      -9.379  11.729  68.316  1.00  0.00    -0.193 C  
BRANCH  10  11
HETATM   11  C   UNL     1      -8.879  11.397  66.886  1.00  0.00    -0.173 C  
BRANCH  11  12
HETATM   12  N   UNL     1      -9.863  10.916  65.917  1.00  0.00    -0.225 NA 
HETATM   13  H   UNL     1     -10.800  11.205  66.199  1.00  0.00     0.000 HD 
BRANCH  12  14
HETATM   14  C   UNL     1      -9.621  11.295  64.526  1.00  0.00    -0.227 C  
HETATM   15  C   UNL     1      -9.028  10.164  63.683  1.00  0.00    -0.269 C  
HETATM   16  C   UNL     1     -10.967  11.719  63.928  1.00  0.00    -0.476 C  
ENDBRANCH  12  14
ENDBRANCH  11  12
ENDBRANCH  10  11
ENDBRANCH   9  10
BRANCH   9  17
HETATM   17  C   UNL     1     -10.531  13.797  67.719  1.00  0.00    -0.240 A  
HETATM   18  C   UNL     1      -8.803  18.241  67.199  1.00  0.00    -0.260 A  
HETATM   19  C   UNL     1     -11.324  14.059  66.597  1.00  0.00    -0.345 A  
HETATM   20  C   UNL     1      -9.747  18.483  66.214  1.00  0.00    -0.305 A  
HETATM   21  N   UNL     1      -8.740  17.037  67.826  1.00  0.00    -0.219 NA 
HETATM   22  C   UNL     1      -9.624  16.088  67.443  1.00  0.00    -0.225 A  
HETATM   23  C   UNL     1     -11.378  15.324  65.998  1.00  0.00    -0.162 A  
HETATM   24  C   UNL     1     -10.549  16.345  66.410  1.00  0.00    -0.236 A  
HETATM   25  C   UNL     1      -9.648  14.839  68.081  1.00  0.00    -0.209 A  
HETATM   26  N   UNL     1     -10.626  17.542  65.798  1.00  0.00    -0.491 NA 
BRANCH  18  27
HETATM   27  C   UNL     1      -7.829  19.231  67.614  1.00  0.00    -0.295 A  
HETATM   28  N   UNL     1      -6.300  20.348  68.733  1.00  0.00    -0.315 NA 
HETATM   29  C   UNL     1      -7.059  19.212  68.761  1.00  0.00    -0.331 A  
HETATM   30  C   UNL     1      -5.340  20.779  69.718  1.00  0.00    -0.378 C  
HETATM   31  N   UNL     1      -6.522  21.114  67.649  1.00  0.00    -0.375 NA 
HETATM   32  C   UNL     1      -7.452  20.433  66.972  1.00  0.00    -0.310 A  
ENDBRANCH  18  27
ENDBRANCH   9  17
ENDBRANCH   5   9
BRANCH   8  33
HETATM   33  O   UNL     1     -12.597   9.418  71.507  1.00  0.00    -0.321 OA 
HETATM   34  C   UNL     1     -13.885   8.885  71.777  1.00  0.00    -0.417 C  
ENDBRANCH   8  33
ENDBRANCH   2   3
TORSDOF 9
ENDMDL
MODEL       25
REMARK 921   NORMALIZED FREE ENERGY PREDICTED BY IDOCK:   -6.80 KCAL/MOL
REMARK 922        TOTAL FREE ENERGY PREDICTED BY IDOCK:  -11.55 KCAL/MOL
REMARK 923 INTER-LIGAND FREE ENERGY PREDICTED BY IDOCK:   -9.82 KCAL/MOL
REMARK 924 INTRA-LIGAND FREE ENERGY PREDICTED BY IDOCK:   -1.73 KCAL/MOL
REMARK 927      BINDING AFFINITY PREDICTED BY RF-SCORE:    0.00 PKD
ROOT
HETATM    1  C   UNL     1     -12.527  14.566  64.477  1.00  0.00    -0.324 C  
HETATM    2  O   UNL     1     -12.465  13.264  63.881  1.00  0.00    -0.641 OA 
ENDROOT
BRANCH   2   3
HETATM    3  C   UNL     1     -11.468  12.464  64.388  1.00  0.00    -0.347 A  
HETATM    4  C   UNL     1     -11.044  12.733  65.709  1.00  0.00    -0.316 A  
HETATM    5  C   UNL     1     -10.129  11.908  66.393  1.00  0.00    -0.214 A  
HETATM    6  C   UNL     1      -9.594  10.877  65.599  1.00  0.00    -0.268 A  
HETATM    7  C   UNL     1     -10.876  11.444  63.651  1.00  0.00    -0.459 A  
HETATM    8  C   UNL     1      -9.927  10.649  64.258  1.00  0.00    -0.349 A  
BRANCH   5   9
HETATM    9  N   UNL     1      -9.759  12.067  67.771  1.00  0.00    -0.187 NA 
BRANCH   9  10
HETATM   10  C   UNL     1      -8.314  12.244  68.128  1.00  0.00    -0.174 C  
BRANCH  10  11
HETATM   11  C   UNL     1      -7.817  13.674  68.461  1.00  0.00    -0.131 C  
BRANCH  11  12
HETATM   12  N   UNL     1      -8.781  14.613  69.034  1.00  0.00    -0.330 NA 
HETATM   13  H   UNL     1      -8.418  14.994  69.908  1.00  0.00     0.000 HD 
BRANCH  12  14
HETATM   14  C   UNL     1      -9.208  15.700  68.154  1.00  0.00    -0.185 C  
HETATM   15  C   UNL     1      -8.618  15.607  66.745  1.00  0.00    -0.309 C  
HETATM   16  C   UNL     1     -10.736  15.643  68.067  1.00  0.00    -0.287 C  
ENDBRANCH  12  14
ENDBRANCH  11  12
ENDBRANCH  10  11
ENDBRANCH   9  10
BRANCH   9  17
HETATM   17  C   UNL     1     -10.538  11.585  68.893  1.00  0.00    -0.204 A  
HETATM   18  C   UNL     1     -11.576   8.209  72.137  1.00  0.00    -0.357 A  
HETATM   19  C   UNL     1     -11.640  12.288  69.388  1.00  0.00    -0.378 A  
HETATM   20  C   UNL     1     -12.750   8.878  72.444  1.00  0.00    -0.368 A  
HETATM   21  N   UNL     1     -10.724   8.689  71.194  1.00  0.00    -0.226 NA 
HETATM   22  C   UNL     1     -11.062   9.845  70.580  1.00  0.00    -0.332 A  
HETATM   23  C   UNL     1     -12.508  11.743  70.343  1.00  0.00    -0.280 A  
HETATM   24  C   UNL     1     -12.243  10.529  70.938  1.00  0.00    -0.388 A  
HETATM   25  C   UNL     1     -10.254  10.373  69.562  1.00  0.00    -0.258 A  
HETATM   26  N   UNL     1     -13.098  10.048  71.860  1.00  0.00    -0.442 NA 
BRANCH  18  27
HETATM   27  C   UNL     1     -11.177   6.980  72.794  1.00  0.00    -0.294 A  
HETATM   28  N   UNL     1     -10.948   4.867  73.361  1.00  0.00    -0.299 NA 
HETATM   29  C   UNL     1     -11.562   5.695  72.464  1.00  0.00    -0.246 A  
HETATM   30  C   UNL     1     -11.045   3.430  73.429  1.00  0.00    -0.186 C  
HETATM   31  N   UNL     1     -10.190   5.520  74.261  1.00  0.00    -0.254 NA 
HETATM   32  C   UNL     1     -10.332   6.804  73.914  1.00  0.00    -0.368 A  
ENDBRANCH  18  27
ENDBRANCH   9  17
ENDBRANCH   5   9
BRANCH   8  33
HETATM   33  O   UNL     1      -9.257   9.605  63.681  1.00  0.00    -0.247 OA 
HETATM   34  C   UNL     1      -8.317   8.913  64.489  1.00  0.00    -0.170 C  
ENDBRANCH   8  33
ENDBRANCH   2   3
TORSDOF 9
ENDMDL
MODEL       26
REMARK 921   NORMALIZED FREE ENERGY PREDICTED BY IDOCK:   -6.78 KCAL/MOL
REMARK 922        TOTAL FREE ENERGY PREDICTED BY IDOCK:  -11.52 KCAL/MOL
REMARK 923 INTER-LIGAND FREE ENERGY PREDICTED BY IDOCK:  -10.22 KCAL/MOL
REMARK 924 INTRA-LIGAND FREE ENERGY PREDICTED BY IDOCK:   -1.30 KCAL/MOL
REMARK 927      BINDING AFFINITY PREDICTED BY RF-SCORE:    0.00 PKD
ROOT
HETATM    1  C   UNL     1      -9.711  16.850  66.805  1.00  0.00    -0.266 C  
HETATM    2  O   UNL     1      -9.626  16.153  65.556  1.00  0.00    -0.447 OA 
ENDROOT
BRANCH   2   3
HETATM    3  C   UNL     1     -10.224  14.914  65.566  1.00  0.00    -0.374 A  
HETATM    4  C   UNL     1      -9.663  13.941  66.424  1.00  0.00    -0.309 A  
HETATM    5  C   UNL     1     -10.257  12.680  66.628  1.00  0.00    -0.236 A  
HETATM    6  C   UNL     1     -11.379  12.444  65.813  1.00  0.00    -0.393 A  
HETATM    7  C   UNL     1     -11.320  14.603  64.767  1.00  0.00    -0.398 A  
HETATM    8  C   UNL     1     -11.897  13.357  64.885  1.00  0.00    -0.372 A  
BRANCH   5   9
HETATM    9  N   UNL     1      -9.796  11.706  67.577  1.00  0.00    -0.186 NA 
BRANCH   9  10
HETATM   10  C   UNL     1      -8.812  10.663  67.140  1.00  0.00    -0.137 C  
BRANCH  10  11
HETATM   11  C   UNL     1      -8.884  10.165  65.674  1.00  0.00    -0.165 C  
BRANCH  11  12
HETATM   12  N   UNL     1      -9.514   8.868  65.427  1.00  0.00    -0.454 NA 
HETATM   13  H   UNL     1      -9.165   8.471  64.555  1.00  0.00     0.000 HD 
BRANCH  12  14
HETATM   14  C   UNL     1      -9.391   7.889  66.505  1.00  0.00    -0.200 C  
HETATM   15  C   UNL     1     -10.735   7.309  66.956  1.00  0.00    -0.406 C  
HETATM   16  C   UNL     1      -8.499   6.754  65.992  1.00  0.00    -0.143 C  
ENDBRANCH  12  14
ENDBRANCH  11  12
ENDBRANCH  10  11
ENDBRANCH   9  10
BRANCH   9  17
HETATM   17  C   UNL     1     -10.528  11.296  68.758  1.00  0.00    -0.208 A  
HETATM   18  C   UNL     1     -11.516   8.078  72.174  1.00  0.00    -0.335 A  
HETATM   19  C   UNL     1     -11.569  12.063  69.290  1.00  0.00    -0.380 A  
HETATM   20  C   UNL     1     -12.641   8.807  72.523  1.00  0.00    -0.306 A  
HETATM   21  N   UNL     1     -10.701   8.488  71.167  1.00  0.00    -0.223 NA 
HETATM   22  C   UNL     1     -11.025   9.638  70.533  1.00  0.00    -0.313 A  
HETATM   23  C   UNL     1     -12.402  11.589  70.311  1.00  0.00    -0.355 A  
HETATM   24  C   UNL     1     -12.153  10.384  70.933  1.00  0.00    -0.374 A  
HETATM   25  C   UNL     1     -10.257  10.095  69.453  1.00  0.00    -0.246 A  
HETATM   26  N   UNL     1     -12.973   9.972  71.918  1.00  0.00    -0.436 NA 
BRANCH  18  27
HETATM   27  C   UNL     1     -11.131   6.855  72.851  1.00  0.00    -0.297 A  
HETATM   28  N   UNL     1     -10.871   4.744  73.411  1.00  0.00    -0.262 NA 
HETATM   29  C   UNL     1     -11.432   5.561  72.470  1.00  0.00    -0.244 A  
HETATM   30  C   UNL     1     -10.918   3.303  73.452  1.00  0.00    -0.201 C  
HETATM   31  N   UNL     1     -10.227   5.411  74.386  1.00  0.00    -0.262 NA 
HETATM   32  C   UNL     1     -10.387   6.694  74.043  1.00  0.00    -0.351 A  
ENDBRANCH  18  27
ENDBRANCH   9  17
ENDBRANCH   5   9
BRANCH   8  33
HETATM   33  O   UNL     1     -12.977  12.895  64.184  1.00  0.00    -0.673 OA 
HETATM   34  C   UNL     1     -12.735  11.888  63.212  1.00  0.00    -0.271 C  
ENDBRANCH   8  33
ENDBRANCH   2   3
TORSDOF 9
ENDMDL
MODEL       27
REMARK 921   NORMALIZED FREE ENERGY PREDICTED BY IDOCK:   -6.77 KCAL/MOL
REMARK 922        TOTAL FREE ENERGY PREDICTED BY IDOCK:  -11.51 KCAL/MOL
REMARK 923 INTER-LIGAND FREE ENERGY PREDICTED BY IDOCK:  -10.38 KCAL/MOL
REMARK 924 INTRA-LIGAND FREE ENERGY PREDICTED BY IDOCK:   -1.13 KCAL/MOL
REMARK 927      BINDING AFFINITY PREDICTED BY RF-SCORE:    0.00 PKD
ROOT
HETATM    1  C   UNL     1     -12.433   9.408  71.778  1.00  0.00    -0.391 C  
HETATM    2  O   UNL     1     -12.060  10.045  70.549  1.00  0.00    -0.274 OA 
ENDROOT
BRANCH   2   3
HETATM    3  C   UNL     1     -12.207  11.412  70.562  1.00  0.00    -0.386 A  
HETATM    4  C   UNL     1     -11.619  12.128  69.494  1.00  0.00    -0.382 A  
HETATM    5  C   UNL     1     -11.809  13.512  69.315  1.00  0.00    -0.341 A  
HETATM    6  C   UNL     1     -12.528  14.124  70.358  1.00  0.00    -0.424 A  
HETATM    7  C   UNL     1     -12.883  12.085  71.574  1.00  0.00    -0.403 A  
HETATM    8  C   UNL     1     -13.038  13.452  71.476  1.00  0.00    -0.342 A  
BRANCH   5   9
HETATM    9  N   UNL     1     -11.336  14.261  68.185  1.00  0.00    -0.273 NA 
BRANCH   9  10
HETATM   10  C   UNL     1     -12.042  14.129  66.870  1.00  0.00    -0.432 C  
BRANCH  10  11
HETATM   11  C   UNL     1     -11.730  12.885  65.998  1.00  0.00    -0.404 C  
BRANCH  11  12
HETATM   12  N   UNL     1     -10.657  12.998  65.012  1.00  0.00    -0.306 NA 
HETATM   13  H   UNL     1      -9.798  12.594  65.385  1.00  0.00     0.000 HD 
BRANCH  12  14
HETATM   14  C   UNL     1     -10.944  12.432  63.695  1.00  0.00    -0.470 C  
HETATM   15  C   UNL     1     -10.048  11.244  63.336  1.00  0.00    -0.445 C  
HETATM   16  C   UNL     1     -12.407  11.977  63.703  1.00  0.00    -0.648 C  
ENDBRANCH  12  14
ENDBRANCH  11  12
ENDBRANCH  10  11
ENDBRANCH   9  10
BRANCH   9  17
HETATM   17  C   UNL     1      -9.979  14.740  68.024  1.00  0.00    -0.218 A  
HETATM   18  C   UNL     1      -6.783  17.692  66.004  1.00  0.00    -0.261 A  
HETATM   19  C   UNL     1      -8.891  14.105  68.630  1.00  0.00    -0.132 A  
HETATM   20  C   UNL     1      -5.756  16.901  66.494  1.00  0.00    -0.017 A  
HETATM   21  N   UNL     1      -8.083  17.379  66.247  1.00  0.00    -0.395 NA 
HETATM   22  C   UNL     1      -8.331  16.277  66.991  1.00  0.00    -0.205 A  
HETATM   23  C   UNL     1      -7.565  14.442  68.330  1.00  0.00    -0.122 A  
HETATM   24  C   UNL     1      -7.268  15.510  67.513  1.00  0.00    -0.194 A  
HETATM   25  C   UNL     1      -9.649  15.868  67.240  1.00  0.00    -0.220 A  
HETATM   26  N   UNL     1      -5.979  15.807  67.260  1.00  0.00    -0.333 NA 
BRANCH  18  27
HETATM   27  C   UNL     1      -6.548  18.890  65.224  1.00  0.00    -0.256 A  
HETATM   28  N   UNL     1      -5.833  20.318  63.711  1.00  0.00    -0.261 NA 
HETATM   29  C   UNL     1      -5.762  19.008  64.093  1.00  0.00    -0.242 A  
HETATM   30  C   UNL     1      -5.175  20.933  62.585  1.00  0.00    -0.190 C  
HETATM   31  N   UNL     1      -6.607  21.070  64.514  1.00  0.00    -0.184 NA 
HETATM   32  C   UNL     1      -7.039  20.200  65.433  1.00  0.00    -0.261 A  
ENDBRANCH  18  27
ENDBRANCH   9  17
ENDBRANCH   5   9
BRANCH   8  33
HETATM   33  O   UNL     1     -13.678  14.260  72.376  1.00  0.00    -0.438 OA 
HETATM   34  C   UNL     1     -12.863  15.048  73.231  1.00  0.00    -0.531 C  
ENDBRANCH   8  33
ENDBRANCH   2   3
TORSDOF 9
ENDMDL
MODEL       28
REMARK 921   NORMALIZED FREE ENERGY PREDICTED BY IDOCK:   -6.77 KCAL/MOL
REMARK 922        TOTAL FREE ENERGY PREDICTED BY IDOCK:  -11.50 KCAL/MOL
REMARK 923 INTER-LIGAND FREE ENERGY PREDICTED BY IDOCK:  -10.26 KCAL/MOL
REMARK 924 INTRA-LIGAND FREE ENERGY PREDICTED BY IDOCK:   -1.24 KCAL/MOL
REMARK 927      BINDING AFFINITY PREDICTED BY RF-SCORE:    0.00 PKD
ROOT
HETATM    1  C   UNL     1      -6.591  15.515  69.879  1.00  0.00    -0.131 C  
HETATM    2  O   UNL     1      -6.719  16.893  69.509  1.00  0.00    -0.236 OA 
ENDROOT
BRANCH   2   3
HETATM    3  C   UNL     1      -7.928  17.208  68.935  1.00  0.00    -0.208 A  
HETATM    4  C   UNL     1      -8.854  16.151  68.776  1.00  0.00    -0.233 A  
HETATM    5  C   UNL     1     -10.173  16.361  68.328  1.00  0.00    -0.255 A  
HETATM    6  C   UNL     1     -10.435  17.689  67.943  1.00  0.00    -0.392 A  
HETATM    7  C   UNL     1      -8.245  18.493  68.508  1.00  0.00    -0.360 A  
HETATM    8  C   UNL     1      -9.505  18.734  68.001  1.00  0.00    -0.312 A  
BRANCH   5   9
HETATM    9  N   UNL     1     -11.184  15.344  68.265  1.00  0.00    -0.308 NA 
BRANCH   9  10
HETATM   10  C   UNL     1     -12.202  15.251  69.361  1.00  0.00    -0.213 C  
BRANCH  10  11
HETATM   11  C   UNL     1     -11.694  15.247  70.826  1.00  0.00    -0.337 C  
BRANCH  11  12
HETATM   12  N   UNL     1     -12.321  16.177  71.764  1.00  0.00    -0.587 NA 
HETATM   13  H   UNL     1     -12.866  16.872  71.254  1.00  0.00     0.000 HD 
BRANCH  12  14
HETATM   14  C   UNL     1     -13.143  15.567  72.808  1.00  0.00    -0.480 C  
HETATM   15  C   UNL     1     -13.240  14.044  72.691  1.00  0.00    -0.606 C  
HETATM   16  C   UNL     1     -12.512  15.931  74.156  1.00  0.00    -0.776 C  
ENDBRANCH  12  14
ENDBRANCH  11  12
ENDBRANCH  10  11
ENDBRANCH   9  10
BRANCH   9  17
HETATM   17  C   UNL     1     -11.052  14.095  67.543  1.00  0.00    -0.291 A  
HETATM   18  C   UNL     1     -10.579   9.323  67.469  1.00  0.00    -0.262 A  
HETATM   19  C   UNL     1     -10.899  14.053  66.154  1.00  0.00    -0.291 A  
HETATM   20  C   UNL     1     -10.256   9.385  66.123  1.00  0.00    -0.194 A  
HETATM   21  N   UNL     1     -10.861  10.450  68.173  1.00  0.00    -0.243 NA 
HETATM   22  C   UNL     1     -10.824  11.626  67.507  1.00  0.00    -0.237 A  
HETATM   23  C   UNL     1     -10.582  12.871  65.472  1.00  0.00    -0.298 A  
HETATM   24  C   UNL     1     -10.532  11.660  66.127  1.00  0.00    -0.247 A  
HETATM   25  C   UNL     1     -11.056  12.834  68.181  1.00  0.00    -0.288 A  
HETATM   26  N   UNL     1     -10.234  10.547  65.430  1.00  0.00    -0.286 NA 
BRANCH  18  27
HETATM   27  C   UNL     1     -10.649   8.075  68.204  1.00  0.00    -0.174 A  
HETATM   28  N   UNL     1     -10.541   6.545  69.780  1.00  0.00    -0.215 NA 
HETATM   29  C   UNL     1     -10.333   7.873  69.534  1.00  0.00    -0.217 A  
HETATM   30  C   UNL     1     -10.343   5.849  71.027  1.00  0.00    -0.223 C  
HETATM   31  N   UNL     1     -10.967   5.860  68.703  1.00  0.00    -0.272 NA 
HETATM   32  C   UNL     1     -11.031   6.793  67.747  1.00  0.00    -0.241 A  
ENDBRANCH  18  27
ENDBRANCH   9  17
ENDBRANCH   5   9
BRANCH   8  33
HETATM   33  O   UNL     1      -9.977  19.934  67.545  1.00  0.00    -0.366 OA 
HETATM   34  C   UNL     1     -10.236  20.042  66.153  1.00  0.00    -0.475 C  
ENDBRANCH   8  33
ENDBRANCH   2   3
TORSDOF 9
ENDMDL
MODEL       29
REMARK 921   NORMALIZED FREE ENERGY PREDICTED BY IDOCK:   -6.64 KCAL/MOL
REMARK 922        TOTAL FREE ENERGY PREDICTED BY IDOCK:  -11.31 KCAL/MOL
REMARK 923 INTER-LIGAND FREE ENERGY PREDICTED BY IDOCK:   -9.96 KCAL/MOL
REMARK 924 INTRA-LIGAND FREE ENERGY PREDICTED BY IDOCK:   -1.35 KCAL/MOL
REMARK 927      BINDING AFFINITY PREDICTED BY RF-SCORE:    0.00 PKD
ROOT
HETATM    1  C   UNL     1      -6.698  14.866  70.045  1.00  0.00    -0.154 C  
HETATM    2  O   UNL     1      -6.626  16.052  69.243  1.00  0.00    -0.152 OA 
ENDROOT
BRANCH   2   3
HETATM    3  C   UNL     1      -7.796  16.354  68.586  1.00  0.00    -0.211 A  
HETATM    4  C   UNL     1      -8.835  15.398  68.660  1.00  0.00    -0.186 A  
HETATM    5  C   UNL     1     -10.125  15.640  68.147  1.00  0.00    -0.222 A  
HETATM    6  C   UNL     1     -10.238  16.861  67.456  1.00  0.00    -0.295 A  
HETATM    7  C   UNL     1      -7.970  17.529  67.863  1.00  0.00    -0.227 A  
HETATM    8  C   UNL     1      -9.197  17.782  67.288  1.00  0.00    -0.253 A  
BRANCH   5   9
HETATM    9  N   UNL     1     -11.243  14.754  68.302  1.00  0.00    -0.273 NA 
BRANCH   9  10
HETATM   10  C   UNL     1     -12.400  15.175  69.158  1.00  0.00    -0.052 C  
BRANCH  10  11
HETATM   11  C   UNL     1     -12.103  15.633  70.609  1.00  0.00    -0.405 C  
BRANCH  11  12
HETATM   12  N   UNL     1     -13.234  16.061  71.431  1.00  0.00    -0.459 NA 
HETATM   13  H   UNL     1     -14.072  16.142  70.855  1.00  0.00     0.000 HD 
BRANCH  12  14
HETATM   14  C   UNL     1     -13.513  15.235  72.604  1.00  0.00    -0.507 C  
HETATM   15  C   UNL     1     -13.512  13.733  72.304  1.00  0.00    -0.638 C  
HETATM   16  C   UNL     1     -12.432  15.542  73.646  1.00  0.00    -0.713 C  
ENDBRANCH  12  14
ENDBRANCH  11  12
ENDBRANCH  10  11
ENDBRANCH   9  10
BRANCH   9  17
HETATM   17  C   UNL     1     -11.183  13.316  68.146  1.00  0.00    -0.270 A  
HETATM   18  C   UNL     1     -10.791   8.908  69.996  1.00  0.00    -0.227 A  
HETATM   19  C   UNL     1     -11.130  12.707  66.889  1.00  0.00    -0.315 A  
HETATM   20  C   UNL     1     -10.564   8.404  68.725  1.00  0.00    -0.125 A  
HETATM   21  N   UNL     1     -11.005  10.235  70.194  1.00  0.00    -0.298 NA 
HETATM   22  C   UNL     1     -10.997  11.037  69.106  1.00  0.00    -0.237 A  
HETATM   23  C   UNL     1     -10.881  11.338  66.730  1.00  0.00    -0.334 A  
HETATM   24  C   UNL     1     -10.803  10.496  67.817  1.00  0.00    -0.294 A  
HETATM   25  C   UNL     1     -11.161  12.423  69.242  1.00  0.00    -0.264 A  
HETATM   26  N   UNL     1     -10.574   9.184  67.618  1.00  0.00    -0.260 NA 
BRANCH  18  27
HETATM   27  C   UNL     1     -10.828   8.070  71.178  1.00  0.00    -0.267 A  
HETATM   28  N   UNL     1     -11.078   6.375  72.557  1.00  0.00    -0.252 NA 
HETATM   29  C   UNL     1     -11.181   6.736  71.243  1.00  0.00    -0.276 A  
HETATM   30  C   UNL     1     -11.348   5.079  73.128  1.00  0.00    -0.321 C  
HETATM   31  N   UNL     1     -10.687   7.381  73.360  1.00  0.00    -0.389 NA 
HETATM   32  C   UNL     1     -10.537   8.410  72.519  1.00  0.00    -0.298 A  
ENDBRANCH  18  27
ENDBRANCH   9  17
ENDBRANCH   5   9
BRANCH   8  33
HETATM   33  O   UNL     1      -9.535  18.886  66.554  1.00  0.00    -0.319 OA 
HETATM   34  C   UNL     1     -10.731  19.561  66.914  1.00  0.00    -0.464 C  
ENDBRANCH   8  33
ENDBRANCH   2   3
TORSDOF 9
ENDMDL
MODEL       30
REMARK 921   NORMALIZED FREE ENERGY PREDICTED BY IDOCK:   -6.57 KCAL/MOL
REMARK 922        TOTAL FREE ENERGY PREDICTED BY IDOCK:  -11.19 KCAL/MOL
REMARK 923 INTER-LIGAND FREE ENERGY PREDICTED BY IDOCK:  -10.26 KCAL/MOL
REMARK 924 INTRA-LIGAND FREE ENERGY PREDICTED BY IDOCK:   -0.93 KCAL/MOL
REMARK 927      BINDING AFFINITY PREDICTED BY RF-SCORE:    0.00 PKD
ROOT
HETATM    1  C   UNL     1     -14.340   8.637  71.644  1.00  0.00    -0.368 C  
HETATM    2  O   UNL     1     -13.144   9.280  72.104  1.00  0.00    -0.386 OA 
ENDROOT
BRANCH   2   3
HETATM    3  C   UNL     1     -12.822  10.423  71.409  1.00  0.00    -0.452 A  
HETATM    4  C   UNL     1     -12.316  10.253  70.100  1.00  0.00    -0.213 A  
HETATM    5  C   UNL     1     -12.074  11.339  69.236  1.00  0.00    -0.303 A  
HETATM    6  C   UNL     1     -12.268  12.596  69.838  1.00  0.00    -0.238 A  
HETATM    7  C   UNL     1     -12.963  11.696  71.951  1.00  0.00    -0.442 A  
HETATM    8  C   UNL     1     -12.677  12.791  71.163  1.00  0.00    -0.263 A  
BRANCH   5   9
HETATM    9  N   UNL     1     -11.677  11.215  67.862  1.00  0.00    -0.593 NA 
BRANCH   9  10
HETATM   10  C   UNL     1     -10.834  10.048  67.444  1.00  0.00    -0.249 C  
BRANCH  10  11
HETATM   11  C   UNL     1      -9.359  10.010  67.918  1.00  0.00    -0.140 C  
BRANCH  11  12
HETATM   12  N   UNL     1      -8.460  11.054  67.428  1.00  0.00    -0.131 NA 
HETATM   13  H   UNL     1      -8.925  11.601  66.703  1.00  0.00     0.000 HD 
BRANCH  12  14
HETATM   14  C   UNL     1      -7.909  11.945  68.448  1.00  0.00    -0.141 C  
HETATM   15  C   UNL     1      -6.858  11.274  69.336  1.00  0.00    -0.121 C  
HETATM   16  C   UNL     1      -7.271  13.133  67.720  1.00  0.00    -0.147 C  
ENDBRANCH  12  14
ENDBRANCH  11  12
ENDBRANCH  10  11
ENDBRANCH   9  10
BRANCH   9  17
HETATM   17  C   UNL     1     -11.567  12.321  66.933  1.00  0.00    -0.361 A  
HETATM   18  C   UNL     1     -10.547  16.908  65.974  1.00  0.00    -0.218 A  
HETATM   19  C   UNL     1     -11.990  12.219  65.604  1.00  0.00    -0.373 A  
HETATM   20  C   UNL     1     -11.151  16.774  64.734  1.00  0.00    -0.016 A  
HETATM   21  N   UNL     1     -10.485  15.862  66.838  1.00  0.00    -0.306 NA 
HETATM   22  C   UNL     1     -11.023  14.688  66.436  1.00  0.00    -0.325 A  
HETATM   23  C   UNL     1     -12.063  13.331  64.755  1.00  0.00    -0.456 A  
HETATM   24  C   UNL     1     -11.597  14.565  65.154  1.00  0.00    -0.371 A  
HETATM   25  C   UNL     1     -11.038  13.580  67.296  1.00  0.00    -0.302 A  
HETATM   26  N   UNL     1     -11.677  15.604  64.301  1.00  0.00    -0.380 NA 
BRANCH  18  27
HETATM   27  C   UNL     1      -9.941  18.146  66.423  1.00  0.00    -0.376 A  
HETATM   28  N   UNL     1      -8.499  19.714  66.971  1.00  0.00    -0.297 NA 
HETATM   29  C   UNL     1      -8.594  18.445  66.473  1.00  0.00    -0.273 A  
HETATM   30  C   UNL     1      -7.293  20.466  67.213  1.00  0.00    -0.310 C  
HETATM   31  N   UNL     1      -9.691  20.268  67.256  1.00  0.00    -0.426 NA 
HETATM   32  C   UNL     1     -10.566  19.313  66.923  1.00  0.00    -0.459 A  
ENDBRANCH  18  27
ENDBRANCH   9  17
ENDBRANCH   5   9
BRANCH   8  33
HETATM   33  O   UNL     1     -12.768  14.103  71.537  1.00  0.00    -0.324 OA 
HETATM   34  C   UNL     1     -13.991  14.526  72.122  1.00  0.00    -0.501 C  
ENDBRANCH   8  33
ENDBRANCH   2   3
TORSDOF 9
ENDMDL
MODEL       31
REMARK 921   NORMALIZED FREE ENERGY PREDICTED BY IDOCK:   -6.52 KCAL/MOL
REMARK 922        TOTAL FREE ENERGY PREDICTED BY IDOCK:  -11.13 KCAL/MOL
REMARK 923 INTER-LIGAND FREE ENERGY PREDICTED BY IDOCK:  -10.25 KCAL/MOL
REMARK 924 INTRA-LIGAND FREE ENERGY PREDICTED BY IDOCK:   -0.88 KCAL/MOL
REMARK 927      BINDING AFFINITY PREDICTED BY RF-SCORE:    0.00 PKD
ROOT
HETATM    1  C   UNL     1     -12.109  15.931  64.085  1.00  0.00     0.182 C  
HETATM    2  O   UNL     1     -12.558  14.579  63.929  1.00  0.00    -0.827 OA 
ENDROOT
BRANCH   2   3
HETATM    3  C   UNL     1     -12.023  13.704  64.845  1.00  0.00    -0.383 A  
HETATM    4  C   UNL     1     -12.139  14.057  66.209  1.00  0.00    -0.482 A  
HETATM    5  C   UNL     1     -11.755  13.190  67.251  1.00  0.00    -0.374 A  
HETATM    6  C   UNL     1     -11.141  12.006  66.804  1.00  0.00    -0.353 A  
HETATM    7  C   UNL     1     -11.380  12.528  64.474  1.00  0.00    -0.379 A  
HETATM    8  C   UNL     1     -10.928  11.676  65.460  1.00  0.00    -0.270 A  
BRANCH   5   9
HETATM    9  N   UNL     1     -11.964  13.450  68.647  1.00  0.00    -0.351 NA 
BRANCH   9  10
HETATM   10  C   UNL     1     -11.466  14.735  69.237  1.00  0.00    -0.296 C  
BRANCH  10  11
HETATM   11  C   UNL     1      -9.980  15.113  69.009  1.00  0.00    -0.239 C  
BRANCH  11  12
HETATM   12  N   UNL     1      -9.684  16.486  68.601  1.00  0.00    -0.237 NA 
HETATM   13  H   UNL     1      -8.676  16.642  68.612  1.00  0.00     0.000 HD 
BRANCH  12  14
HETATM   14  C   UNL     1     -10.238  16.897  67.312  1.00  0.00    -0.297 C  
HETATM   15  C   UNL     1     -10.487  18.404  67.211  1.00  0.00    -0.434 C  
HETATM   16  C   UNL     1      -9.237  16.478  66.230  1.00  0.00    -0.345 C  
ENDBRANCH  12  14
ENDBRANCH  11  12
ENDBRANCH  10  11
ENDBRANCH   9  10
BRANCH   9  17
HETATM   17  C   UNL     1     -12.147  12.429  69.658  1.00  0.00    -0.206 A  
HETATM   18  C   UNL     1     -11.720   7.896  71.166  1.00  0.00    -0.285 A  
HETATM   19  C   UNL     1     -12.846  12.674  70.843  1.00  0.00    -0.178 A  
HETATM   20  C   UNL     1     -12.572   8.177  72.222  1.00  0.00    -0.273 A  
HETATM   21  N   UNL     1     -11.387   8.854  70.263  1.00  0.00    -0.210 NA 
HETATM   22  C   UNL     1     -11.910  10.089  70.442  1.00  0.00    -0.262 A  
HETATM   23  C   UNL     1     -13.191  11.650  71.734  1.00  0.00    -0.438 A  
HETATM   24  C   UNL     1     -12.744  10.360  71.547  1.00  0.00    -0.459 A  
HETATM   25  C   UNL     1     -11.649  11.113  69.521  1.00  0.00    -0.392 A  
HETATM   26  N   UNL     1     -13.090   9.409  72.435  1.00  0.00    -0.412 NA 
BRANCH  18  27
HETATM   27  C   UNL     1     -11.126   6.590  70.961  1.00  0.00    -0.339 A  
HETATM   28  N   UNL     1     -10.194   4.622  71.273  1.00  0.00    -0.172 NA 
HETATM   29  C   UNL     1     -10.682   5.714  71.933  1.00  0.00    -0.241 A  
HETATM   30  C   UNL     1      -9.613   3.439  71.857  1.00  0.00    -0.150 C  
HETATM   31  N   UNL     1     -10.281   4.722  69.934  1.00  0.00    -0.235 NA 
HETATM   32  C   UNL     1     -10.848   5.919  69.748  1.00  0.00    -0.377 A  
ENDBRANCH  18  27
ENDBRANCH   9  17
ENDBRANCH   5   9
BRANCH   8  33
HETATM   33  O   UNL     1     -10.284  10.485  65.267  1.00  0.00    -0.298 OA 
HETATM   34  C   UNL     1     -10.243   9.586  66.365  1.00  0.00    -0.232 C  
ENDBRANCH   8  33
ENDBRANCH   2   3
TORSDOF 9
ENDMDL
MODEL       32
REMARK 921   NORMALIZED FREE ENERGY PREDICTED BY IDOCK:   -6.51 KCAL/MOL
REMARK 922        TOTAL FREE ENERGY PREDICTED BY IDOCK:  -11.10 KCAL/MOL
REMARK 923 INTER-LIGAND FREE ENERGY PREDICTED BY IDOCK:   -9.72 KCAL/MOL
REMARK 924 INTRA-LIGAND FREE ENERGY PREDICTED BY IDOCK:   -1.38 KCAL/MOL
REMARK 927      BINDING AFFINITY PREDICTED BY RF-SCORE:    0.00 PKD
ROOT
HETATM    1  C   UNL     1     -11.033   4.627  73.282  1.00  0.00    -0.303 C  
HETATM    2  O   UNL     1     -11.594   5.689  72.501  1.00  0.00    -0.300 OA 
ENDROOT
BRANCH   2   3
HETATM    3  C   UNL     1     -10.706   6.697  72.209  1.00  0.00    -0.221 A  
HETATM    4  C   UNL     1     -10.942   7.434  71.026  1.00  0.00    -0.268 A  
HETATM    5  C   UNL     1     -10.189   8.574  70.681  1.00  0.00    -0.197 A  
HETATM    6  C   UNL     1      -9.117   8.829  71.555  1.00  0.00    -0.322 A  
HETATM    7  C   UNL     1      -9.610   6.989  73.014  1.00  0.00    -0.182 A  
HETATM    8  C   UNL     1      -8.804   8.057  72.681  1.00  0.00    -0.203 A  
BRANCH   5   9
HETATM    9  N   UNL     1     -10.465   9.424  69.558  1.00  0.00    -0.210 NA 
BRANCH   9  10
HETATM   10  C   UNL     1      -9.678   9.251  68.294  1.00  0.00    -0.150 C  
BRANCH  10  11
HETATM   11  C   UNL     1     -10.374   8.564  67.091  1.00  0.00    -0.307 C  
BRANCH  11  12
HETATM   12  N   UNL     1      -9.904   8.907  65.749  1.00  0.00    -0.465 NA 
HETATM   13  H   UNL     1     -10.638   8.719  65.066  1.00  0.00     0.000 HD 
BRANCH  12  14
HETATM   14  C   UNL     1      -9.402  10.270  65.582  1.00  0.00    -0.192 C  
HETATM   15  C   UNL     1      -8.008  10.330  64.952  1.00  0.00    -0.146 C  
HETATM   16  C   UNL     1     -10.395  11.015  64.683  1.00  0.00    -0.410 C  
ENDBRANCH  12  14
ENDBRANCH  11  12
ENDBRANCH  10  11
ENDBRANCH   9  10
BRANCH   9  17
HETATM   17  C   UNL     1     -11.056  10.743  69.649  1.00  0.00    -0.279 A  
HETATM   18  C   UNL     1     -11.298  15.335  68.284  1.00  0.00    -0.336 A  
HETATM   19  C   UNL     1     -12.015  11.062  70.614  1.00  0.00    -0.464 A  
HETATM   20  C   UNL     1     -12.105  15.608  69.377  1.00  0.00    -0.266 A  
HETATM   21  N   UNL     1     -10.830  14.080  68.057  1.00  0.00    -0.242 NA 
HETATM   22  C   UNL     1     -11.190  13.112  68.930  1.00  0.00    -0.277 A  
HETATM   23  C   UNL     1     -12.451  12.375  70.832  1.00  0.00    -0.367 A  
HETATM   24  C   UNL     1     -12.045  13.406  70.013  1.00  0.00    -0.334 A  
HETATM   25  C   UNL     1     -10.704  11.805  68.785  1.00  0.00    -0.255 A  
HETATM   26  N   UNL     1     -12.498  14.652  70.252  1.00  0.00    -0.348 NA 
BRANCH  18  27
HETATM   27  C   UNL     1     -10.913  16.346  67.319  1.00  0.00    -0.118 A  
HETATM   28  N   UNL     1     -10.404  18.253  66.349  1.00  0.00    -0.396 NA 
HETATM   29  C   UNL     1     -10.764  17.700  67.546  1.00  0.00    -0.290 A  
HETATM   30  C   UNL     1     -10.139  19.644  66.077  1.00  0.00    -0.461 C  
HETATM   31  N   UNL     1     -10.311  17.356  65.351  1.00  0.00    -0.632 NA 
HETATM   32  C   UNL     1     -10.622  16.198  65.943  1.00  0.00    -0.312 A  
ENDBRANCH  18  27
ENDBRANCH   9  17
ENDBRANCH   5   9
BRANCH   8  33
HETATM   33  O   UNL     1      -7.698   8.481  73.365  1.00  0.00    -0.343 OA 
HETATM   34  C   UNL     1      -7.173   7.606  74.352  1.00  0.00    -0.125 C  
ENDBRANCH   8  33
ENDBRANCH   2   3
TORSDOF 9
ENDMDL
MODEL       33
REMARK 921   NORMALIZED FREE ENERGY PREDICTED BY IDOCK:   -6.46 KCAL/MOL
REMARK 922        TOTAL FREE ENERGY PREDICTED BY IDOCK:  -11.03 KCAL/MOL
REMARK 923 INTER-LIGAND FREE ENERGY PREDICTED BY IDOCK:  -10.25 KCAL/MOL
REMARK 924 INTRA-LIGAND FREE ENERGY PREDICTED BY IDOCK:   -0.78 KCAL/MOL
REMARK 927      BINDING AFFINITY PREDICTED BY RF-SCORE:    0.00 PKD
ROOT
HETATM    1  C   UNL     1      -9.858  11.240  62.918  1.00  0.00    -0.285 C  
HETATM    2  O   UNL     1      -9.040  10.479  63.816  1.00  0.00    -0.198 OA 
ENDROOT
BRANCH   2   3
HETATM    3  C   UNL     1      -9.516  10.435  65.105  1.00  0.00    -0.249 A  
HETATM    4  C   UNL     1      -9.734  11.676  65.748  1.00  0.00    -0.262 A  
HETATM    5  C   UNL     1     -10.343  11.775  67.014  1.00  0.00    -0.214 A  
HETATM    6  C   UNL     1     -10.596  10.531  67.620  1.00  0.00    -0.295 A  
HETATM    7  C   UNL     1      -9.765   9.242  65.774  1.00  0.00    -0.339 A  
HETATM    8  C   UNL     1     -10.302   9.289  67.043  1.00  0.00    -0.255 A  
BRANCH   5   9
HETATM    9  N   UNL     1     -10.695  13.011  67.655  1.00  0.00    -0.225 NA 
BRANCH   9  10
HETATM   10  C   UNL     1     -11.775  13.018  68.693  1.00  0.00    -0.323 C  
BRANCH  10  11
HETATM   11  C   UNL     1     -12.160  14.377  69.334  1.00  0.00    -0.297 C  
BRANCH  11  12
HETATM   12  N   UNL     1     -12.955  14.349  70.560  1.00  0.00    -0.451 NA 
HETATM   13  H   UNL     1     -12.625  13.602  71.172  1.00  0.00     0.000 HD 
BRANCH  12  14
HETATM   14  C   UNL     1     -13.023  15.608  71.301  1.00  0.00    -0.492 C  
HETATM   15  C   UNL     1     -13.632  15.459  72.697  1.00  0.00    -0.641 C  
HETATM   16  C   UNL     1     -11.592  16.141  71.427  1.00  0.00    -0.495 C  
ENDBRANCH  12  14
ENDBRANCH  11  12
ENDBRANCH  10  11
ENDBRANCH   9  10
BRANCH   9  17
HETATM   17  C   UNL     1     -10.491  14.324  67.079  1.00  0.00    -0.271 A  
HETATM   18  C   UNL     1      -8.479  18.677  67.164  1.00  0.00    -0.265 A  
HETATM   19  C   UNL     1     -11.210  14.765  65.963  1.00  0.00    -0.341 A  
HETATM   20  C   UNL     1      -9.356  19.092  66.175  1.00  0.00    -0.239 A  
HETATM   21  N   UNL     1      -8.519  17.407  67.646  1.00  0.00    -0.210 NA 
HETATM   22  C   UNL     1      -9.437  16.568  67.116  1.00  0.00    -0.239 A  
HETATM   23  C   UNL     1     -11.159  16.091  65.517  1.00  0.00    -0.108 A  
HETATM   24  C   UNL     1     -10.293  17.002  66.082  1.00  0.00    -0.319 A  
HETATM   25  C   UNL     1      -9.567  15.258  67.600  1.00  0.00    -0.206 A  
HETATM   26  N   UNL     1     -10.268  18.264  65.613  1.00  0.00    -0.550 NA 
BRANCH  18  27
HETATM   27  C   UNL     1      -7.470  19.547  67.736  1.00  0.00    -0.304 A  
HETATM   28  N   UNL     1      -6.012  20.484  69.090  1.00  0.00    -0.346 NA 
HETATM   29  C   UNL     1      -6.897  19.448  68.989  1.00  0.00    -0.342 A  
HETATM   30  C   UNL     1      -5.174  20.807  70.218  1.00  0.00    -0.312 C  
HETATM   31  N   UNL     1      -5.967  21.260  67.991  1.00  0.00    -0.338 NA 
HETATM   32  C   UNL     1      -6.855  20.688  67.171  1.00  0.00    -0.307 A  
ENDBRANCH  18  27
ENDBRANCH   9  17
ENDBRANCH   5   9
BRANCH   8  33
HETATM   33  O   UNL     1     -10.610   8.215  67.832  1.00  0.00    -0.212 OA 
HETATM   34  C   UNL     1     -10.979   7.012  67.173  1.00  0.00    -0.323 C  
ENDBRANCH   8  33
ENDBRANCH   2   3
TORSDOF 9
ENDMDL
MODEL       34
REMARK 921   NORMALIZED FREE ENERGY PREDICTED BY IDOCK:   -6.45 KCAL/MOL
REMARK 922        TOTAL FREE ENERGY PREDICTED BY IDOCK:  -11.01 KCAL/MOL
REMARK 923 INTER-LIGAND FREE ENERGY PREDICTED BY IDOCK:   -9.31 KCAL/MOL
REMARK 924 INTRA-LIGAND FREE ENERGY PREDICTED BY IDOCK:   -1.70 KCAL/MOL
REMARK 927      BINDING AFFINITY PREDICTED BY RF-SCORE:    0.00 PKD
ROOT
HETATM    1  C   UNL     1     -13.865   8.908  71.787  1.00  0.00    -0.417 C  
HETATM    2  O   UNL     1     -13.227   9.903  70.978  1.00  0.00    -0.373 OA 
ENDROOT
BRANCH   2   3
HETATM    3  C   UNL     1     -11.904   9.639  70.706  1.00  0.00    -0.300 A  
HETATM    4  C   UNL     1     -11.506   9.699  69.351  1.00  0.00     0.048 A  
HETATM    5  C   UNL     1     -10.160   9.582  68.953  1.00  0.00    -0.188 A  
HETATM    6  C   UNL     1      -9.281   9.280  70.009  1.00  0.00    -0.231 A  
HETATM    7  C   UNL     1     -10.986   9.309  71.697  1.00  0.00    -0.433 A  
HETATM    8  C   UNL     1      -9.666   9.120  71.346  1.00  0.00    -0.268 A  
BRANCH   5   9
HETATM    9  N   UNL     1      -9.690   9.756  67.607  1.00  0.00    -0.152 NA 
BRANCH   9  10
HETATM   10  C   UNL     1      -8.501   8.974  67.137  1.00  0.00    -0.113 C  
BRANCH  10  11
HETATM   11  C   UNL     1      -8.717   7.492  66.735  1.00  0.00    -0.133 C  
BRANCH  11  12
HETATM   12  N   UNL     1      -8.670   6.487  67.796  1.00  0.00    -0.116 NA 
HETATM   13  H   UNL     1      -8.353   6.914  68.667  1.00  0.00     0.000 HD 
BRANCH  12  14
HETATM   14  C   UNL     1      -9.911   5.749  68.026  1.00  0.00    -0.144 C  
HETATM   15  C   UNL     1     -10.351   5.742  69.492  1.00  0.00    -0.333 C  
HETATM   16  C   UNL     1     -11.000   6.412  67.175  1.00  0.00    -0.476 C  
ENDBRANCH  12  14
ENDBRANCH  11  12
ENDBRANCH  10  11
ENDBRANCH   9  10
BRANCH   9  17
HETATM   17  C   UNL     1      -9.905  10.944  66.808  1.00  0.00    -0.195 A  
HETATM   18  C   UNL     1     -10.419  15.696  66.408  1.00  0.00    -0.305 A  
HETATM   19  C   UNL     1     -10.199  10.877  65.443  1.00  0.00    -0.339 A  
HETATM   20  C   UNL     1     -10.878  15.528  65.111  1.00  0.00    -0.436 A  
HETATM   21  N   UNL     1     -10.058  14.628  67.165  1.00  0.00    -0.243 NA 
HETATM   22  C   UNL     1     -10.154  13.402  66.601  1.00  0.00    -0.275 A  
HETATM   23  C   UNL     1     -10.594  12.001  64.706  1.00  0.00    -0.340 A  
HETATM   24  C   UNL     1     -10.586  13.260  65.266  1.00  0.00    -0.315 A  
HETATM   25  C   UNL     1      -9.845  12.252  67.341  1.00  0.00    -0.199 A  
HETATM   26  N   UNL     1     -10.961  14.315  64.517  1.00  0.00    -0.346 NA 
BRANCH  18  27
HETATM   27  C   UNL     1     -10.284  16.997  67.032  1.00  0.00    -0.303 A  
HETATM   28  N   UNL     1     -10.042  19.155  67.383  1.00  0.00    -0.356 NA 
HETATM   29  C   UNL     1     -10.145  18.216  66.396  1.00  0.00    -0.389 A  
HETATM   30  C   UNL     1      -9.876  20.578  67.218  1.00  0.00    -0.441 C  
HETATM   31  N   UNL     1     -10.100  18.637  68.623  1.00  0.00    -0.379 NA 
HETATM   32  C   UNL     1     -10.246  17.326  68.407  1.00  0.00    -0.358 A  
ENDBRANCH  18  27
ENDBRANCH   9  17
ENDBRANCH   5   9
BRANCH   8  33
HETATM   33  O   UNL     1      -8.641   8.800  72.193  1.00  0.00    -0.355 OA 
HETATM   34  C   UNL     1      -8.117   7.483  72.106  1.00  0.00    -0.102 C  
ENDBRANCH   8  33
ENDBRANCH   2   3
TORSDOF 9
ENDMDL
MODEL       35
REMARK 921   NORMALIZED FREE ENERGY PREDICTED BY IDOCK:   -6.44 KCAL/MOL
REMARK 922        TOTAL FREE ENERGY PREDICTED BY IDOCK:  -11.00 KCAL/MOL
REMARK 923 INTER-LIGAND FREE ENERGY PREDICTED BY IDOCK:   -9.73 KCAL/MOL
REMARK 924 INTRA-LIGAND FREE ENERGY PREDICTED BY IDOCK:   -1.27 KCAL/MOL
REMARK 927      BINDING AFFINITY PREDICTED BY RF-SCORE:    0.00 PKD
ROOT
HETATM    1  C   UNL     1     -11.167   4.942  73.300  1.00  0.00    -0.345 C  
HETATM    2  O   UNL     1     -11.764   5.854  72.370  1.00  0.00    -0.309 OA 
ENDROOT
BRANCH   2   3
HETATM    3  C   UNL     1     -10.914   6.841  71.931  1.00  0.00    -0.239 A  
HETATM    4  C   UNL     1     -11.344   7.609  70.825  1.00  0.00    -0.296 A  
HETATM    5  C   UNL     1     -10.631   8.733  70.361  1.00  0.00    -0.221 A  
HETATM    6  C   UNL     1      -9.406   8.937  71.021  1.00  0.00    -0.313 A  
HETATM    7  C   UNL     1      -9.676   7.082  72.518  1.00  0.00    -0.170 A  
HETATM    8  C   UNL     1      -8.913   8.133  72.055  1.00  0.00    -0.176 A  
BRANCH   5   9
HETATM    9  N   UNL     1     -11.086   9.615  69.324  1.00  0.00    -0.170 NA 
BRANCH   9  10
HETATM   10  C   UNL     1     -10.674   9.356  67.906  1.00  0.00    -0.210 C  
BRANCH  10  11
HETATM   11  C   UNL     1      -9.842   8.081  67.612  1.00  0.00    -0.167 C  
BRANCH  11  12
HETATM   12  N   UNL     1     -10.473   7.027  66.819  1.00  0.00    -0.454 NA 
HETATM   13  H   UNL     1     -10.500   7.299  65.836  1.00  0.00     0.000 HD 
BRANCH  12  14
HETATM   14  C   UNL     1      -9.884   5.695  66.952  1.00  0.00    -0.159 C  
HETATM   15  C   UNL     1      -9.972   5.131  68.372  1.00  0.00    -0.214 C  
HETATM   16  C   UNL     1     -10.633   4.766  65.991  1.00  0.00    -0.300 C  
ENDBRANCH  12  14
ENDBRANCH  11  12
ENDBRANCH  10  11
ENDBRANCH   9  10
BRANCH   9  17
HETATM   17  C   UNL     1     -11.477  10.995  69.528  1.00  0.00    -0.299 A  
HETATM   18  C   UNL     1     -11.205  15.645  68.387  1.00  0.00    -0.352 A  
HETATM   19  C   UNL     1     -12.289  11.386  70.597  1.00  0.00    -0.466 A  
HETATM   20  C   UNL     1     -11.861  15.964  69.565  1.00  0.00    -0.301 A  
HETATM   21  N   UNL     1     -10.938  14.353  68.062  1.00  0.00    -0.252 NA 
HETATM   22  C   UNL     1     -11.347  13.396  68.926  1.00  0.00    -0.287 A  
HETATM   23  C   UNL     1     -12.516  12.731  70.911  1.00  0.00    -0.373 A  
HETATM   24  C   UNL     1     -12.049  13.742  70.100  1.00  0.00    -0.359 A  
HETATM   25  C   UNL     1     -11.063  12.046  68.678  1.00  0.00    -0.298 A  
HETATM   26  N   UNL     1     -12.300  15.023  70.433  1.00  0.00    -0.327 NA 
BRANCH  18  27
HETATM   27  C   UNL     1     -10.775  16.647  67.431  1.00  0.00    -0.253 A  
HETATM   28  N   UNL     1     -10.196  18.541  66.475  1.00  0.00    -0.388 NA 
HETATM   29  C   UNL     1     -10.595  17.997  67.663  1.00  0.00    -0.399 A  
HETATM   30  C   UNL     1      -9.890  19.925  66.210  1.00  0.00    -0.461 C  
HETATM   31  N   UNL     1     -10.107  17.643  65.477  1.00  0.00    -0.514 NA 
HETATM   32  C   UNL     1     -10.460  16.493  66.061  1.00  0.00    -0.310 A  
ENDBRANCH  18  27
ENDBRANCH   9  17
ENDBRANCH   5   9
BRANCH   8  33
HETATM   33  O   UNL     1      -7.683   8.508  72.524  1.00  0.00    -0.263 OA 
HETATM   34  C   UNL     1      -6.665   8.735  71.560  1.00  0.00    -0.081 C  
ENDBRANCH   8  33
ENDBRANCH   2   3
TORSDOF 9
ENDMDL
MODEL       36
REMARK 921   NORMALIZED FREE ENERGY PREDICTED BY IDOCK:   -6.43 KCAL/MOL
REMARK 922        TOTAL FREE ENERGY PREDICTED BY IDOCK:  -10.98 KCAL/MOL
REMARK 923 INTER-LIGAND FREE ENERGY PREDICTED BY IDOCK:   -9.38 KCAL/MOL
REMARK 924 INTRA-LIGAND FREE ENERGY PREDICTED BY IDOCK:   -1.60 KCAL/MOL
REMARK 927      BINDING AFFINITY PREDICTED BY RF-SCORE:    0.00 PKD
ROOT
HETATM    1  C   UNL     1      -6.944   8.955  68.189  1.00  0.00    -0.077 C  
HETATM    2  O   UNL     1      -7.070   7.531  68.291  1.00  0.00    -0.079 OA 
ENDROOT
BRANCH   2   3
HETATM    3  C   UNL     1      -8.370   7.089  68.364  1.00  0.00    -0.124 A  
HETATM    4  C   UNL     1      -9.098   7.434  69.526  1.00  0.00    -0.143 A  
HETATM    5  C   UNL     1     -10.473   7.161  69.667  1.00  0.00    -0.229 A  
HETATM    6  C   UNL     1     -11.012   6.411  68.605  1.00  0.00    -0.404 A  
HETATM    7  C   UNL     1      -8.960   6.323  67.364  1.00  0.00    -0.109 A  
HETATM    8  C   UNL     1     -10.288   5.975  67.488  1.00  0.00    -0.210 A  
BRANCH   5   9
HETATM    9  N   UNL     1     -11.282   7.596  70.770  1.00  0.00    -0.266 NA 
BRANCH   9  10
HETATM   10  C   UNL     1     -12.044   6.582  71.567  1.00  0.00    -0.308 C  
BRANCH  10  11
HETATM   11  C   UNL     1     -11.293   5.829  72.695  1.00  0.00    -0.300 C  
BRANCH  11  12
HETATM   12  N   UNL     1     -10.851   6.605  73.852  1.00  0.00    -0.470 NA 
HETATM   13  H   UNL     1     -11.239   6.207  74.707  1.00  0.00     0.000 HD 
BRANCH  12  14
HETATM   14  C   UNL     1      -9.404   6.769  73.990  1.00  0.00    -0.209 C  
HETATM   15  C   UNL     1      -8.601   5.632  73.353  1.00  0.00    -0.115 C  
HETATM   16  C   UNL     1      -9.028   8.092  73.316  1.00  0.00    -0.338 C  
ENDBRANCH  12  14
ENDBRANCH  11  12
ENDBRANCH  10  11
ENDBRANCH   9  10
BRANCH   9  17
HETATM   17  C   UNL     1     -11.847   8.923  70.903  1.00  0.00    -0.240 A  
HETATM   18  C   UNL     1     -11.970  13.569  69.718  1.00  0.00    -0.340 A  
HETATM   19  C   UNL     1     -12.818   9.223  71.862  1.00  0.00    -0.485 A  
HETATM   20  C   UNL     1     -12.792  13.816  70.806  1.00  0.00    -0.232 A  
HETATM   21  N   UNL     1     -11.523  12.315  69.450  1.00  0.00    -0.282 NA 
HETATM   22  C   UNL     1     -11.920  11.321  70.277  1.00  0.00    -0.379 A  
HETATM   23  C   UNL     1     -13.231  10.536  72.125  1.00  0.00    -0.398 A  
HETATM   24  C   UNL     1     -12.789  11.590  71.355  1.00  0.00    -0.384 A  
HETATM   25  C   UNL     1     -11.458  10.011  70.088  1.00  0.00    -0.344 A  
HETATM   26  N   UNL     1     -13.221  12.834  71.635  1.00  0.00    -0.376 NA 
BRANCH  18  27
HETATM   27  C   UNL     1     -11.547  14.609  68.802  1.00  0.00    -0.346 A  
HETATM   28  N   UNL     1     -10.911  15.712  67.007  1.00  0.00    -0.301 NA 
HETATM   29  C   UNL     1     -11.288  14.475  67.451  1.00  0.00    -0.356 A  
HETATM   30  C   UNL     1     -10.534  16.077  65.665  1.00  0.00    -0.397 C  
HETATM   31  N   UNL     1     -10.901  16.647  67.974  1.00  0.00    -0.350 NA 
HETATM   32  C   UNL     1     -11.287  15.975  69.063  1.00  0.00    -0.363 A  
ENDBRANCH  18  27
ENDBRANCH   9  17
ENDBRANCH   5   9
BRANCH   8  33
HETATM   33  O   UNL     1     -11.018   5.235  66.598  1.00  0.00    -0.184 OA 
HETATM   34  C   UNL     1     -10.295   4.499  65.623  1.00  0.00    -0.247 C  
ENDBRANCH   8  33
ENDBRANCH   2   3
TORSDOF 9
ENDMDL
MODEL       37
REMARK 921   NORMALIZED FREE ENERGY PREDICTED BY IDOCK:   -6.42 KCAL/MOL
REMARK 922        TOTAL FREE ENERGY PREDICTED BY IDOCK:  -10.97 KCAL/MOL
REMARK 923 INTER-LIGAND FREE ENERGY PREDICTED BY IDOCK:   -9.65 KCAL/MOL
REMARK 924 INTRA-LIGAND FREE ENERGY PREDICTED BY IDOCK:   -1.32 KCAL/MOL
REMARK 927      BINDING AFFINITY PREDICTED BY RF-SCORE:    0.00 PKD
ROOT
HETATM    1  C   UNL     1     -11.702   7.330  72.138  1.00  0.00    -0.285 C  
HETATM    2  O   UNL     1     -12.877   8.152  72.158  1.00  0.00    -0.320 OA 
ENDROOT
BRANCH   2   3
HETATM    3  C   UNL     1     -12.668   9.435  71.711  1.00  0.00    -0.390 A  
HETATM    4  C   UNL     1     -11.676   9.613  70.720  1.00  0.00    -0.390 A  
HETATM    5  C   UNL     1     -11.457  10.850  70.082  1.00  0.00    -0.319 A  
HETATM    6  C   UNL     1     -12.227  11.903  70.609  1.00  0.00    -0.424 A  
HETATM    7  C   UNL     1     -13.375  10.526  72.205  1.00  0.00    -0.347 A  
HETATM    8  C   UNL     1     -13.148  11.771  71.656  1.00  0.00    -0.338 A  
BRANCH   5   9
HETATM    9  N   UNL     1     -10.549  11.054  68.989  1.00  0.00    -0.216 NA 
BRANCH   9  10
HETATM   10  C   UNL     1      -9.130  10.587  69.115  1.00  0.00    -0.166 C  
BRANCH  10  11
HETATM   11  C   UNL     1      -8.694   9.351  68.288  1.00  0.00    -0.124 C  
BRANCH  11  12
HETATM   12  N   UNL     1      -9.671   8.772  67.366  1.00  0.00    -0.164 NA 
HETATM   13  H   UNL     1     -10.572   9.236  67.477  1.00  0.00     0.000 HD 
BRANCH  12  14
HETATM   14  C   UNL     1      -9.284   8.764  65.956  1.00  0.00    -0.222 C  
HETATM   15  C   UNL     1      -9.778   9.991  65.185  1.00  0.00    -0.380 C  
HETATM   16  C   UNL     1      -7.754   8.716  65.903  1.00  0.00    -0.101 C  
ENDBRANCH  12  14
ENDBRANCH  11  12
ENDBRANCH  10  11
ENDBRANCH   9  10
BRANCH   9  17
HETATM   17  C   UNL     1     -10.689  12.087  67.983  1.00  0.00    -0.212 A  
HETATM   18  C   UNL     1      -9.663  16.451  66.279  1.00  0.00    -0.308 A  
HETATM   19  C   UNL     1     -11.590  11.970  66.920  1.00  0.00    -0.389 A  
HETATM   20  C   UNL     1     -10.700  16.330  65.368  1.00  0.00    -0.327 A  
HETATM   21  N   UNL     1      -9.382  15.452  67.156  1.00  0.00    -0.208 NA 
HETATM   22  C   UNL     1     -10.145  14.337  67.095  1.00  0.00    -0.254 A  
HETATM   23  C   UNL     1     -11.870  13.036  66.056  1.00  0.00    -0.471 A  
HETATM   24  C   UNL     1     -11.169  14.220  66.133  1.00  0.00    -0.331 A  
HETATM   25  C   UNL     1      -9.942  13.286  68.002  1.00  0.00    -0.233 A  
HETATM   26  N   UNL     1     -11.462  15.215  65.274  1.00  0.00    -0.307 NA 
BRANCH  18  27
HETATM   27  C   UNL     1      -8.814  17.624  66.352  1.00  0.00    -0.263 A  
HETATM   28  N   UNL     1      -7.079  18.974  66.404  1.00  0.00    -0.220 NA 
HETATM   29  C   UNL     1      -7.435  17.661  66.279  1.00  0.00    -0.305 A  
HETATM   30  C   UNL     1      -5.744  19.518  66.396  1.00  0.00    -0.163 C  
HETATM   31  N   UNL     1      -8.128  19.802  66.560  1.00  0.00    -0.312 NA 
HETATM   32  C   UNL     1      -9.181  18.978  66.528  1.00  0.00    -0.337 A  
ENDBRANCH  18  27
ENDBRANCH   9  17
ENDBRANCH   5   9
BRANCH   8  33
HETATM   33  O   UNL     1     -13.758  12.940  72.019  1.00  0.00    -0.433 OA 
HETATM   34  C   UNL     1     -12.921  13.994  72.470  1.00  0.00    -0.389 C  
ENDBRANCH   8  33
ENDBRANCH   2   3
TORSDOF 9
ENDMDL
MODEL       38
REMARK 921   NORMALIZED FREE ENERGY PREDICTED BY IDOCK:   -6.42 KCAL/MOL
REMARK 922        TOTAL FREE ENERGY PREDICTED BY IDOCK:  -10.97 KCAL/MOL
REMARK 923 INTER-LIGAND FREE ENERGY PREDICTED BY IDOCK:   -9.58 KCAL/MOL
REMARK 924 INTRA-LIGAND FREE ENERGY PREDICTED BY IDOCK:   -1.39 KCAL/MOL
REMARK 927      BINDING AFFINITY PREDICTED BY RF-SCORE:    0.00 PKD
ROOT
HETATM    1  C   UNL     1     -13.894   8.941  71.785  1.00  0.00    -0.417 C  
HETATM    2  O   UNL     1     -12.737   8.264  72.292  1.00  0.00    -0.333 OA 
ENDROOT
BRANCH   2   3
HETATM    3  C   UNL     1     -11.555   8.671  71.718  1.00  0.00    -0.332 A  
HETATM    4  C   UNL     1     -11.650   9.394  70.507  1.00  0.00    -0.291 A  
HETATM    5  C   UNL     1     -10.529   9.981  69.887  1.00  0.00    -0.274 A  
HETATM    6  C   UNL     1      -9.309   9.676  70.518  1.00  0.00    -0.227 A  
HETATM    7  C   UNL     1     -10.313   8.383  72.272  1.00  0.00    -0.403 A  
HETATM    8  C   UNL     1      -9.180   8.882  71.664  1.00  0.00    -0.231 A  
BRANCH   5   9
HETATM    9  N   UNL     1     -10.588  10.824  68.726  1.00  0.00    -0.187 NA 
BRANCH   9  10
HETATM   10  C   UNL     1      -9.913  10.383  67.463  1.00  0.00    -0.181 C  
BRANCH  10  11
HETATM   11  C   UNL     1     -10.783  10.225  66.190  1.00  0.00     0.028 C  
BRANCH  11  12
HETATM   12  N   UNL     1     -10.424  11.022  65.018  1.00  0.00    -0.291 NA 
HETATM   13  H   UNL     1     -10.372  10.425  64.193  1.00  0.00     0.000 HD 
BRANCH  12  14
HETATM   14  C   UNL     1     -11.284  12.173  64.747  1.00  0.00    -0.323 C  
HETATM   15  C   UNL     1     -10.509  13.480  64.561  1.00  0.00    -0.426 C  
HETATM   16  C   UNL     1     -12.069  11.865  63.467  1.00  0.00    -0.575 C  
ENDBRANCH  12  14
ENDBRANCH  11  12
ENDBRANCH  10  11
ENDBRANCH   9  10
BRANCH   9  17
HETATM   17  C   UNL     1     -10.787  12.259  68.760  1.00  0.00    -0.229 A  
HETATM   18  C   UNL     1      -9.415  16.712  67.624  1.00  0.00    -0.226 A  
HETATM   19  C   UNL     1     -11.806  12.849  69.512  1.00  0.00    -0.383 A  
HETATM   20  C   UNL     1     -10.332  17.216  68.531  1.00  0.00    -0.364 A  
HETATM   21  N   UNL     1      -9.282  15.373  67.435  1.00  0.00    -0.194 NA 
HETATM   22  C   UNL     1     -10.085  14.559  68.158  1.00  0.00    -0.227 A  
HETATM   23  C   UNL     1     -11.890  14.234  69.702  1.00  0.00    -0.370 A  
HETATM   24  C   UNL     1     -11.039  15.097  69.046  1.00  0.00    -0.255 A  
HETATM   25  C   UNL     1      -9.968  13.166  68.050  1.00  0.00    -0.233 A  
HETATM   26  N   UNL     1     -11.162  16.423  69.248  1.00  0.00    -0.302 NA 
BRANCH  18  27
HETATM   27  C   UNL     1      -8.557  17.560  66.820  1.00  0.00    -0.276 A  
HETATM   28  N   UNL     1      -6.901  18.333  65.596  1.00  0.00    -0.456 NA 
HETATM   29  C   UNL     1      -7.347  17.217  66.247  1.00  0.00    -0.307 A  
HETATM   30  C   UNL     1      -5.676  18.474  64.849  1.00  0.00    -0.193 C  
HETATM   31  N   UNL     1      -7.732  19.386  65.705  1.00  0.00    -0.441 NA 
HETATM   32  C   UNL     1      -8.736  18.913  66.450  1.00  0.00    -0.303 A  
ENDBRANCH  18  27
ENDBRANCH   9  17
ENDBRANCH   5   9
BRANCH   8  33
HETATM   33  O   UNL     1      -7.890   8.699  72.080  1.00  0.00    -0.265 OA 
HETATM   34  C   UNL     1      -6.861   8.991  71.147  1.00  0.00    -0.092 C  
ENDBRANCH   8  33
ENDBRANCH   2   3
TORSDOF 9
ENDMDL
MODEL       39
REMARK 921   NORMALIZED FREE ENERGY PREDICTED BY IDOCK:   -6.39 KCAL/MOL
REMARK 922        TOTAL FREE ENERGY PREDICTED BY IDOCK:  -10.92 KCAL/MOL
REMARK 923 INTER-LIGAND FREE ENERGY PREDICTED BY IDOCK:  -10.15 KCAL/MOL
REMARK 924 INTRA-LIGAND FREE ENERGY PREDICTED BY IDOCK:   -0.78 KCAL/MOL
REMARK 927      BINDING AFFINITY PREDICTED BY RF-SCORE:    0.00 PKD
ROOT
HETATM    1  C   UNL     1      -9.193  17.200  67.899  1.00  0.00    -0.241 C  
HETATM    2  O   UNL     1      -9.128  16.474  69.133  1.00  0.00    -0.254 OA 
ENDROOT
BRANCH   2   3
HETATM    3  C   UNL     1     -10.252  15.731  69.405  1.00  0.00    -0.262 A  
HETATM    4  C   UNL     1     -10.282  14.410  68.902  1.00  0.00    -0.215 A  
HETATM    5  C   UNL     1     -11.311  13.502  69.220  1.00  0.00    -0.262 A  
HETATM    6  C   UNL     1     -12.352  14.070  69.976  1.00  0.00    -0.397 A  
HETATM    7  C   UNL     1     -11.330  16.236  70.124  1.00  0.00    -0.292 A  
HETATM    8  C   UNL     1     -12.392  15.402  70.406  1.00  0.00    -0.402 A  
BRANCH   5   9
HETATM    9  N   UNL     1     -11.325  12.119  68.836  1.00  0.00    -0.261 NA 
BRANCH   9  10
HETATM   10  C   UNL     1     -11.617  11.756  67.411  1.00  0.00    -0.280 C  
BRANCH  10  11
HETATM   11  C   UNL     1     -10.422  11.642  66.430  1.00  0.00    -0.244 C  
BRANCH  11  12
HETATM   12  N   UNL     1     -10.661  11.978  65.027  1.00  0.00    -0.278 NA 
HETATM   13  H   UNL     1     -11.000  11.157  64.525  1.00  0.00     0.000 HD 
BRANCH  12  14
HETATM   14  C   UNL     1     -11.553  13.112  64.790  1.00  0.00    -0.333 C  
HETATM   15  C   UNL     1     -10.853  14.469  64.897  1.00  0.00    -0.436 C  
HETATM   16  C   UNL     1     -12.130  12.951  63.380  1.00  0.00    -0.610 C  
ENDBRANCH  12  14
ENDBRANCH  11  12
ENDBRANCH  10  11
ENDBRANCH   9  10
BRANCH   9  17
HETATM   17  C   UNL     1     -11.585  11.016  69.738  1.00  0.00    -0.325 A  
HETATM   18  C   UNL     1     -11.107   6.407  70.976  1.00  0.00    -0.294 A  
HETATM   19  C   UNL     1     -12.450  11.137  70.829  1.00  0.00    -0.479 A  
HETATM   20  C   UNL     1     -12.108   6.566  71.920  1.00  0.00    -0.339 A  
HETATM   21  N   UNL     1     -10.710   7.446  70.195  1.00  0.00    -0.238 NA 
HETATM   22  C   UNL     1     -11.323   8.637  70.385  1.00  0.00    -0.187 A  
HETATM   23  C   UNL     1     -12.853  10.034  71.592  1.00  0.00    -0.543 A  
HETATM   24  C   UNL     1     -12.311   8.784  71.380  1.00  0.00    -0.306 A  
HETATM   25  C   UNL     1     -10.998   9.739  69.581  1.00  0.00    -0.269 A  
HETATM   26  N   UNL     1     -12.719   7.753  72.143  1.00  0.00    -0.238 NA 
BRANCH  18  27
HETATM   27  C   UNL     1     -10.417   5.149  70.766  1.00  0.00    -0.263 A  
HETATM   28  N   UNL     1      -9.412   3.420  69.851  1.00  0.00    -0.178 NA 
HETATM   29  C   UNL     1     -10.003   4.617  69.560  1.00  0.00    -0.196 A  
HETATM   30  C   UNL     1      -8.827   2.488  68.919  1.00  0.00    -0.100 C  
HETATM   31  N   UNL     1      -9.414   3.126  71.164  1.00  0.00    -0.143 NA 
HETATM   32  C   UNL     1     -10.025   4.179  71.717  1.00  0.00    -0.176 A  
ENDBRANCH  18  27
ENDBRANCH   9  17
ENDBRANCH   5   9
BRANCH   8  33
HETATM   33  O   UNL     1     -13.521  15.736  71.103  1.00  0.00    -0.575 OA 
HETATM   34  C   UNL     1     -13.536  15.438  72.491  1.00  0.00    -0.533 C  
ENDBRANCH   8  33
ENDBRANCH   2   3
TORSDOF 9
ENDMDL
MODEL       40
REMARK 921   NORMALIZED FREE ENERGY PREDICTED BY IDOCK:   -6.38 KCAL/MOL
REMARK 922        TOTAL FREE ENERGY PREDICTED BY IDOCK:  -10.92 KCAL/MOL
REMARK 923 INTER-LIGAND FREE ENERGY PREDICTED BY IDOCK:   -9.41 KCAL/MOL
REMARK 924 INTRA-LIGAND FREE ENERGY PREDICTED BY IDOCK:   -1.50 KCAL/MOL
REMARK 927      BINDING AFFINITY PREDICTED BY RF-SCORE:    0.00 PKD
ROOT
HETATM    1  C   UNL     1     -12.969  11.392  71.691  1.00  0.00    -0.418 C  
HETATM    2  O   UNL     1     -12.233  11.971  70.606  1.00  0.00    -0.374 OA 
ENDROOT
BRANCH   2   3
HETATM    3  C   UNL     1     -11.709  11.048  69.732  1.00  0.00    -0.335 A  
HETATM    4  C   UNL     1     -11.642  11.424  68.370  1.00  0.00    -0.385 A  
HETATM    5  C   UNL     1     -11.008  10.628  67.396  1.00  0.00    -0.298 A  
HETATM    6  C   UNL     1     -10.562   9.386  67.882  1.00  0.00    -0.293 A  
HETATM    7  C   UNL     1     -11.273   9.792  70.138  1.00  0.00    -0.324 A  
HETATM    8  C   UNL     1     -10.702   8.951  69.206  1.00  0.00    -0.162 A  
BRANCH   5   9
HETATM    9  N   UNL     1     -10.808  11.019  66.029  1.00  0.00    -0.176 NA 
BRANCH   9  10
HETATM   10  C   UNL     1      -9.986  10.147  65.128  1.00  0.00    -0.309 C  
BRANCH  10  11
HETATM   11  C   UNL     1      -8.460  10.411  65.053  1.00  0.00    -0.176 C  
BRANCH  11  12
HETATM   12  N   UNL     1      -7.582   9.553  65.847  1.00  0.00    -0.099 NA 
HETATM   13  H   UNL     1      -6.974   9.013  65.231  1.00  0.00     0.000 HD 
BRANCH  12  14
HETATM   14  C   UNL     1      -6.784  10.233  66.866  1.00  0.00    -0.081 C  
HETATM   15  C   UNL     1      -7.201  11.688  67.093  1.00  0.00    -0.145 C  
HETATM   16  C   UNL     1      -6.950   9.450  68.173  1.00  0.00    -0.075 C  
ENDBRANCH  12  14
ENDBRANCH  11  12
ENDBRANCH  10  11
ENDBRANCH   9  10
BRANCH   9  17
HETATM   17  C   UNL     1     -10.878  12.381  65.543  1.00  0.00    -0.281 A  
HETATM   18  C   UNL     1      -9.956  17.063  66.031  1.00  0.00    -0.269 A  
HETATM   19  C   UNL     1     -11.600  12.724  64.396  1.00  0.00    -0.415 A  
HETATM   20  C   UNL     1     -10.834  17.335  64.994  1.00  0.00     0.167 A  
HETATM   21  N   UNL     1      -9.730  15.787  66.439  1.00  0.00    -0.262 NA 
HETATM   22  C   UNL     1     -10.386  14.799  65.789  1.00  0.00    -0.340 A  
HETATM   23  C   UNL     1     -11.831  14.055  64.026  1.00  0.00    -0.339 A  
HETATM   24  C   UNL     1     -11.245  15.097  64.711  1.00  0.00    -0.388 A  
HETATM   25  C   UNL     1     -10.238  13.463  66.190  1.00  0.00    -0.301 A  
HETATM   26  N   UNL     1     -11.485  16.362  64.314  1.00  0.00    -0.921 NA 
BRANCH  18  27
HETATM   27  C   UNL     1      -9.222  18.098  66.731  1.00  0.00    -0.281 A  
HETATM   28  N   UNL     1      -7.973  19.193  68.173  1.00  0.00    -0.292 NA 
HETATM   29  C   UNL     1      -8.464  17.952  67.877  1.00  0.00    -0.251 A  
HETATM   30  C   UNL     1      -7.129  19.553  69.285  1.00  0.00    -0.337 C  
HETATM   31  N   UNL     1      -8.362  20.144  67.305  1.00  0.00    -0.331 NA 
HETATM   32  C   UNL     1      -9.121  19.476  66.430  1.00  0.00    -0.370 A  
ENDBRANCH  18  27
ENDBRANCH   9  17
ENDBRANCH   5   9
BRANCH   8  33
HETATM   33  O   UNL     1     -10.219   7.692  69.439  1.00  0.00    -0.195 OA 
HETATM   34  C   UNL     1     -11.170   6.674  69.712  1.00  0.00    -0.356 C  
ENDBRANCH   8  33
ENDBRANCH   2   3
TORSDOF 9
ENDMDL
MODEL       41
REMARK 921   NORMALIZED FREE ENERGY PREDICTED BY IDOCK:   -6.37 KCAL/MOL
REMARK 922        TOTAL FREE ENERGY PREDICTED BY IDOCK:  -10.90 KCAL/MOL
REMARK 923 INTER-LIGAND FREE ENERGY PREDICTED BY IDOCK:   -9.40 KCAL/MOL
REMARK 924 INTRA-LIGAND FREE ENERGY PREDICTED BY IDOCK:   -1.49 KCAL/MOL
REMARK 927      BINDING AFFINITY PREDICTED BY RF-SCORE:    0.00 PKD
ROOT
HETATM    1  C   UNL     1      -7.129   8.132  71.659  1.00  0.00    -0.075 C  
HETATM    2  O   UNL     1      -7.020   8.704  70.350  1.00  0.00    -0.039 OA 
ENDROOT
BRANCH   2   3
HETATM    3  C   UNL     1      -8.196   8.696  69.637  1.00  0.00    -0.114 A  
HETATM    4  C   UNL     1      -9.011   9.847  69.739  1.00  0.00    -0.242 A  
HETATM    5  C   UNL     1     -10.172  10.023  68.960  1.00  0.00    -0.203 A  
HETATM    6  C   UNL     1     -10.500   8.904  68.173  1.00  0.00    -0.254 A  
HETATM    7  C   UNL     1      -8.596   7.615  68.860  1.00  0.00    -0.129 A  
HETATM    8  C   UNL     1      -9.760   7.716  68.128  1.00  0.00    -0.153 A  
BRANCH   5   9
HETATM    9  N   UNL     1     -10.965  11.220  68.937  1.00  0.00    -0.208 NA 
BRANCH   9  10
HETATM   10  C   UNL     1     -12.233  11.276  69.734  1.00  0.00    -0.275 C  
BRANCH  10  11
HETATM   11  C   UNL     1     -12.326  10.409  71.015  1.00  0.00    -0.387 C  
BRANCH  11  12
HETATM   12  N   UNL     1     -13.015   9.123  70.916  1.00  0.00    -0.521 NA 
HETATM   13  H   UNL     1     -13.101   8.848  69.938  1.00  0.00     0.000 HD 
BRANCH  12  14
HETATM   14  C   UNL     1     -12.430   8.030  71.692  1.00  0.00    -0.320 C  
HETATM   15  C   UNL     1     -12.137   6.781  70.856  1.00  0.00    -0.421 C  
HETATM   16  C   UNL     1     -11.123   8.549  72.300  1.00  0.00    -0.430 C  
ENDBRANCH  12  14
ENDBRANCH  11  12
ENDBRANCH  10  11
ENDBRANCH   9  10
BRANCH   9  17
HETATM   17  C   UNL     1     -10.959  12.191  67.862  1.00  0.00    -0.229 A  
HETATM   18  C   UNL     1     -10.347  16.670  66.259  1.00  0.00    -0.317 A  
HETATM   19  C   UNL     1     -11.384  11.871  66.570  1.00  0.00    -0.403 A  
HETATM   20  C   UNL     1     -10.949  16.314  65.063  1.00  0.00    -0.298 A  
HETATM   21  N   UNL     1     -10.186  15.763  67.258  1.00  0.00    -0.263 NA 
HETATM   22  C   UNL     1     -10.626  14.504  67.033  1.00  0.00    -0.278 A  
HETATM   23  C   UNL     1     -11.562  12.843  65.578  1.00  0.00    -0.395 A  
HETATM   24  C   UNL     1     -11.199  14.155  65.792  1.00  0.00    -0.312 A  
HETATM   25  C   UNL     1     -10.537  13.529  68.037  1.00  0.00    -0.247 A  
HETATM   26  N   UNL     1     -11.376  15.056  64.806  1.00  0.00    -0.412 NA 
BRANCH  18  27
HETATM   27  C   UNL     1      -9.845  18.004  66.521  1.00  0.00    -0.353 A  
HETATM   28  N   UNL     1      -8.537  19.733  66.894  1.00  0.00    -0.314 NA 
HETATM   29  C   UNL     1      -8.524  18.390  66.639  1.00  0.00    -0.269 A  
HETATM   30  C   UNL     1      -7.397  20.590  67.102  1.00  0.00    -0.325 C  
HETATM   31  N   UNL     1      -9.776  20.255  66.956  1.00  0.00    -0.437 NA 
HETATM   32  C   UNL     1     -10.568  19.202  66.729  1.00  0.00    -0.439 A  
ENDBRANCH  18  27
ENDBRANCH   9  17
ENDBRANCH   5   9
BRANCH   8  33
HETATM   33  O   UNL     1     -10.289   6.753  67.312  1.00  0.00    -0.187 OA 
HETATM   34  C   UNL     1      -9.392   6.072  66.448  1.00  0.00    -0.154 C  
ENDBRANCH   8  33
ENDBRANCH   2   3
TORSDOF 9
ENDMDL
MODEL       42
REMARK 921   NORMALIZED FREE ENERGY PREDICTED BY IDOCK:   -6.37 KCAL/MOL
REMARK 922        TOTAL FREE ENERGY PREDICTED BY IDOCK:  -10.90 KCAL/MOL
REMARK 923 INTER-LIGAND FREE ENERGY PREDICTED BY IDOCK:   -9.57 KCAL/MOL
REMARK 924 INTRA-LIGAND FREE ENERGY PREDICTED BY IDOCK:   -1.32 KCAL/MOL
REMARK 927      BINDING AFFINITY PREDICTED BY RF-SCORE:    0.00 PKD
ROOT
HETATM    1  C   UNL     1     -10.392   5.446  66.822  1.00  0.00    -0.272 C  
HETATM    2  O   UNL     1     -10.377   6.126  68.083  1.00  0.00    -0.157 OA 
ENDROOT
BRANCH   2   3
HETATM    3  C   UNL     1     -10.338   7.497  67.978  1.00  0.00    -0.204 A  
HETATM    4  C   UNL     1     -10.073   8.032  66.697  1.00  0.00    -0.329 A  
HETATM    5  C   UNL     1     -10.137   9.413  66.425  1.00  0.00    -0.262 A  
HETATM    6  C   UNL     1     -10.367  10.204  67.565  1.00  0.00    -0.279 A  
HETATM    7  C   UNL     1     -10.531   8.339  69.067  1.00  0.00    -0.212 A  
HETATM    8  C   UNL     1     -10.538   9.703  68.862  1.00  0.00    -0.217 A  
BRANCH   5   9
HETATM    9  N   UNL     1      -9.996   9.995  65.120  1.00  0.00    -0.325 NA 
BRANCH   9  10
HETATM   10  C   UNL     1      -8.895   9.521  64.220  1.00  0.00    -0.213 C  
BRANCH  10  11
HETATM   11  C   UNL     1      -7.438   9.618  64.739  1.00  0.00    -0.122 C  
BRANCH  11  12
HETATM   12  N   UNL     1      -6.990  10.906  65.267  1.00  0.00    -0.364 NA 
HETATM   13  H   UNL     1      -7.598  11.652  64.929  1.00  0.00     0.000 HD 
BRANCH  12  14
HETATM   14  C   UNL     1      -6.864  10.985  66.721  1.00  0.00    -0.128 C  
HETATM   15  C   UNL     1      -6.807   9.615  67.401  1.00  0.00    -0.083 C  
HETATM   16  C   UNL     1      -5.574  11.755  67.026  1.00  0.00    -0.131 C  
ENDBRANCH  12  14
ENDBRANCH  11  12
ENDBRANCH  10  11
ENDBRANCH   9  10
BRANCH   9  17
HETATM   17  C   UNL     1     -10.463  11.315  64.752  1.00  0.00    -0.323 A  
HETATM   18  C   UNL     1     -10.532  16.069  65.386  1.00  0.00    -0.392 A  
HETATM   19  C   UNL     1     -11.454  11.509  63.785  1.00  0.00    -0.380 A  
HETATM   20  C   UNL     1     -11.635  16.155  64.552  1.00  0.00    -0.164 A  
HETATM   21  N   UNL     1      -9.951  14.871  65.655  1.00  0.00    -0.341 NA 
HETATM   22  C   UNL     1     -10.484  13.774  65.071  1.00  0.00    -0.402 A  
HETATM   23  C   UNL     1     -12.045  12.759  63.559  1.00  0.00    -0.642 A  
HETATM   24  C   UNL     1     -11.583  13.892  64.194  1.00  0.00    -0.298 A  
HETATM   25  C   UNL     1      -9.966  12.499  65.343  1.00  0.00    -0.236 A  
HETATM   26  N   UNL     1     -12.172  15.075  63.938  1.00  0.00    -0.574 NA 
BRANCH  18  27
HETATM   27  C   UNL     1      -9.924  17.228  66.009  1.00  0.00    -0.249 A  
HETATM   28  N   UNL     1      -9.563  19.235  66.834  1.00  0.00    -0.316 NA 
HETATM   29  C   UNL     1     -10.514  18.456  66.238  1.00  0.00    -0.393 A  
HETATM   30  C   UNL     1      -9.701  20.605  67.261  1.00  0.00    -0.422 C  
HETATM   31  N   UNL     1      -8.386  18.605  67.007  1.00  0.00    -0.263 NA 
HETATM   32  C   UNL     1      -8.609  17.387  66.504  1.00  0.00    -0.261 A  
ENDBRANCH  18  27
ENDBRANCH   9  17
ENDBRANCH   5   9
BRANCH   8  33
HETATM   33  O   UNL     1     -10.720  10.665  69.818  1.00  0.00    -0.256 OA 
HETATM   34  C   UNL     1     -12.051  11.095  70.059  1.00  0.00    -0.359 C  
ENDBRANCH   8  33
ENDBRANCH   2   3
TORSDOF 9
ENDMDL
MODEL       43
REMARK 921   NORMALIZED FREE ENERGY PREDICTED BY IDOCK:   -6.36 KCAL/MOL
REMARK 922        TOTAL FREE ENERGY PREDICTED BY IDOCK:  -10.87 KCAL/MOL
REMARK 923 INTER-LIGAND FREE ENERGY PREDICTED BY IDOCK:   -9.32 KCAL/MOL
REMARK 924 INTRA-LIGAND FREE ENERGY PREDICTED BY IDOCK:   -1.55 KCAL/MOL
REMARK 927      BINDING AFFINITY PREDICTED BY RF-SCORE:    0.00 PKD
ROOT
HETATM    1  C   UNL     1      -8.622   7.224  72.480  1.00  0.00    -0.111 C  
HETATM    2  O   UNL     1      -8.442   8.596  72.109  1.00  0.00    -0.285 OA 
ENDROOT
BRANCH   2   3
HETATM    3  C   UNL     1      -9.394   9.067  71.234  1.00  0.00    -0.254 A  
HETATM    4  C   UNL     1      -8.974   9.318  69.908  1.00  0.00    -0.194 A  
HETATM    5  C   UNL     1      -9.874   9.673  68.884  1.00  0.00    -0.174 A  
HETATM    6  C   UNL     1     -11.193   9.871  69.333  1.00  0.00    -0.196 A  
HETATM    7  C   UNL     1     -10.709   9.310  71.615  1.00  0.00    -0.393 A  
HETATM    8  C   UNL     1     -11.614   9.722  70.660  1.00  0.00    -0.313 A  
BRANCH   5   9
HETATM    9  N   UNL     1      -9.519   9.819  67.501  1.00  0.00    -0.146 NA 
BRANCH   9  10
HETATM   10  C   UNL     1      -8.321   9.092  66.969  1.00  0.00    -0.116 C  
BRANCH  10  11
HETATM   11  C   UNL     1      -8.555   7.764  66.205  1.00  0.00    -0.150 C  
BRANCH  11  12
HETATM   12  N   UNL     1      -9.896   7.181  66.252  1.00  0.00    -0.431 NA 
HETATM   13  H   UNL     1     -10.207   6.948  65.309  1.00  0.00     0.000 HD 
BRANCH  12  14
HETATM   14  C   UNL     1     -10.053   6.022  67.129  1.00  0.00    -0.173 C  
HETATM   15  C   UNL     1     -11.063   6.248  68.258  1.00  0.00    -0.364 C  
HETATM   16  C   UNL     1     -10.521   4.851  66.259  1.00  0.00    -0.349 C  
ENDBRANCH  12  14
ENDBRANCH  11  12
ENDBRANCH  10  11
ENDBRANCH   9  10
BRANCH   9  17
HETATM   17  C   UNL     1      -9.868  10.958  66.676  1.00  0.00    -0.198 A  
HETATM   18  C   UNL     1     -10.003  15.688  65.895  1.00  0.00    -0.351 A  
HETATM   19  C   UNL     1     -10.610  10.822  65.499  1.00  0.00    -0.205 A  
HETATM   20  C   UNL     1     -10.886  15.481  64.847  1.00  0.00    -0.427 A  
HETATM   21  N   UNL     1      -9.519  14.644  66.618  1.00  0.00    -0.265 NA 
HETATM   22  C   UNL     1      -9.922  13.402  66.267  1.00  0.00    -0.296 A  
HETATM   23  C   UNL     1     -11.113  11.926  64.800  1.00  0.00    -0.367 A  
HETATM   24  C   UNL     1     -10.790  13.213  65.171  1.00  0.00    -0.304 A  
HETATM   25  C   UNL     1      -9.500  12.283  67.000  1.00  0.00    -0.204 A  
HETATM   26  N   UNL     1     -11.286  14.246  64.463  1.00  0.00    -0.354 NA 
BRANCH  18  27
HETATM   27  C   UNL     1      -9.536  17.005  66.280  1.00  0.00    -0.281 A  
HETATM   28  N   UNL     1      -9.437  19.103  66.932  1.00  0.00    -0.308 NA 
HETATM   29  C   UNL     1     -10.306  18.078  66.683  1.00  0.00    -0.371 A  
HETATM   30  C   UNL     1      -9.766  20.436  67.374  1.00  0.00    -0.457 C  
HETATM   31  N   UNL     1      -8.150  18.779  66.716  1.00  0.00    -0.256 NA 
HETATM   32  C   UNL     1      -8.213  17.503  66.319  1.00  0.00    -0.240 A  
ENDBRANCH  18  27
ENDBRANCH   9  17
ENDBRANCH   5   9
BRANCH   8  33
HETATM   33  O   UNL     1     -12.939   9.996  70.864  1.00  0.00    -0.356 OA 
HETATM   34  C   UNL     1     -13.552   9.413  72.004  1.00  0.00    -0.433 C  
ENDBRANCH   8  33
ENDBRANCH   2   3
TORSDOF 9
ENDMDL
MODEL       44
REMARK 921   NORMALIZED FREE ENERGY PREDICTED BY IDOCK:   -6.35 KCAL/MOL
REMARK 922        TOTAL FREE ENERGY PREDICTED BY IDOCK:  -10.87 KCAL/MOL
REMARK 923 INTER-LIGAND FREE ENERGY PREDICTED BY IDOCK:  -10.41 KCAL/MOL
REMARK 924 INTRA-LIGAND FREE ENERGY PREDICTED BY IDOCK:   -0.46 KCAL/MOL
REMARK 927      BINDING AFFINITY PREDICTED BY RF-SCORE:    0.00 PKD
ROOT
HETATM    1  C   UNL     1     -13.401  15.720  73.006  1.00  0.00    -0.583 C  
HETATM    2  O   UNL     1     -13.640  15.770  71.594  1.00  0.00    -0.453 OA 
ENDROOT
BRANCH   2   3
HETATM    3  C   UNL     1     -12.557  15.399  70.830  1.00  0.00    -0.438 A  
HETATM    4  C   UNL     1     -12.486  14.042  70.440  1.00  0.00    -0.418 A  
HETATM    5  C   UNL     1     -11.505  13.562  69.550  1.00  0.00    -0.255 A  
HETATM    6  C   UNL     1     -10.545  14.526  69.192  1.00  0.00    -0.242 A  
HETATM    7  C   UNL     1     -11.558  16.293  70.460  1.00  0.00    -0.223 A  
HETATM    8  C   UNL     1     -10.540  15.852  69.641  1.00  0.00    -0.301 A  
BRANCH   5   9
HETATM    9  N   UNL     1     -11.462  12.224  69.030  1.00  0.00    -0.275 NA 
BRANCH   9  10
HETATM   10  C   UNL     1     -11.764  11.990  67.581  1.00  0.00    -0.294 C  
BRANCH  10  11
HETATM   11  C   UNL     1     -12.154  13.213  66.712  1.00  0.00    -0.327 C  
BRANCH  11  12
HETATM   12  N   UNL     1     -12.789  12.953  65.420  1.00  0.00    -0.627 NA 
HETATM   13  H   UNL     1     -13.730  13.348  65.409  1.00  0.00     0.000 HD 
BRANCH  12  14
HETATM   14  C   UNL     1     -12.045  13.404  64.246  1.00  0.00    -0.424 C  
HETATM   15  C   UNL     1     -10.750  14.144  64.594  1.00  0.00    -0.408 C  
HETATM   16  C   UNL     1     -11.708  12.163  63.413  1.00  0.00    -0.533 C  
ENDBRANCH  12  14
ENDBRANCH  11  12
ENDBRANCH  10  11
ENDBRANCH   9  10
BRANCH   9  17
HETATM   17  C   UNL     1     -11.651  11.026  69.821  1.00  0.00    -0.325 A  
HETATM   18  C   UNL     1     -10.988   6.333  70.552  1.00  0.00    -0.312 A  
HETATM   19  C   UNL     1     -12.473  11.006  70.952  1.00  0.00    -0.509 A  
HETATM   20  C   UNL     1     -11.953   6.360  71.546  1.00  0.00    -0.273 A  
HETATM   21  N   UNL     1     -10.655   7.459  69.869  1.00  0.00    -0.232 NA 
HETATM   22  C   UNL     1     -11.293   8.603  70.206  1.00  0.00    -0.136 A  
HETATM   23  C   UNL     1     -12.812   9.816  71.610  1.00  0.00    -0.519 A  
HETATM   24  C   UNL     1     -12.243   8.614  71.248  1.00  0.00    -0.281 A  
HETATM   25  C   UNL     1     -11.035   9.793  69.510  1.00  0.00    -0.256 A  
HETATM   26  N   UNL     1     -12.589   7.497  71.915  1.00  0.00    -0.309 NA 
BRANCH  18  27
HETATM   27  C   UNL     1     -10.271   5.127  70.185  1.00  0.00    -0.348 A  
HETATM   28  N   UNL     1      -9.222   3.195  70.243  1.00  0.00    -0.132 NA 
HETATM   29  C   UNL     1      -9.866   4.110  71.028  1.00  0.00    -0.177 A  
HETATM   30  C   UNL     1      -8.614   1.958  70.667  1.00  0.00    -0.052 C  
HETATM   31  N   UNL     1      -9.173   3.543  68.944  1.00  0.00    -0.150 NA 
HETATM   32  C   UNL     1      -9.811   4.717  68.913  1.00  0.00    -0.160 A  
ENDBRANCH  18  27
ENDBRANCH   9  17
ENDBRANCH   5   9
BRANCH   8  33
HETATM   33  O   UNL     1      -9.490  16.599  69.182  1.00  0.00    -0.252 OA 
HETATM   34  C   UNL     1      -8.838  16.144  68.005  1.00  0.00    -0.181 C  
ENDBRANCH   8  33
ENDBRANCH   2   3
TORSDOF 9
ENDMDL
MODEL       45
REMARK 921   NORMALIZED FREE ENERGY PREDICTED BY IDOCK:   -6.33 KCAL/MOL
REMARK 922        TOTAL FREE ENERGY PREDICTED BY IDOCK:  -10.83 KCAL/MOL
REMARK 923 INTER-LIGAND FREE ENERGY PREDICTED BY IDOCK:   -9.59 KCAL/MOL
REMARK 924 INTRA-LIGAND FREE ENERGY PREDICTED BY IDOCK:   -1.25 KCAL/MOL
REMARK 927      BINDING AFFINITY PREDICTED BY RF-SCORE:    0.00 PKD
ROOT
HETATM    1  C   UNL     1     -10.787   6.473  67.772  1.00  0.00    -0.314 C  
HETATM    2  O   UNL     1     -10.808   7.669  66.983  1.00  0.00    -0.334 OA 
ENDROOT
BRANCH   2   3
HETATM    3  C   UNL     1     -10.057   8.696  67.505  1.00  0.00    -0.216 A  
HETATM    4  C   UNL     1     -10.703   9.944  67.660  1.00  0.00    -0.339 A  
HETATM    5  C   UNL     1     -10.092  11.038  68.304  1.00  0.00    -0.177 A  
HETATM    6  C   UNL     1      -8.751  10.806  68.662  1.00  0.00    -0.152 A  
HETATM    7  C   UNL     1      -8.720   8.545  67.856  1.00  0.00    -0.138 A  
HETATM    8  C   UNL     1      -8.059   9.610  68.432  1.00  0.00    -0.104 A  
BRANCH   5   9
HETATM    9  N   UNL     1     -10.745  12.282  68.594  1.00  0.00    -0.231 NA 
BRANCH   9  10
HETATM   10  C   UNL     1     -12.022  12.277  69.378  1.00  0.00    -0.259 C  
BRANCH  10  11
HETATM   11  C   UNL     1     -12.166  13.289  70.543  1.00  0.00    -0.340 C  
BRANCH  11  12
HETATM   12  N   UNL     1     -12.979  14.482  70.311  1.00  0.00    -0.533 NA 
HETATM   13  H   UNL     1     -13.947  14.214  70.132  1.00  0.00     0.000 HD 
BRANCH  12  14
HETATM   14  C   UNL     1     -12.929  15.498  71.360  1.00  0.00    -0.483 C  
HETATM   15  C   UNL     1     -13.994  15.306  72.443  1.00  0.00    -0.642 C  
HETATM   16  C   UNL     1     -11.539  15.424  72.001  1.00  0.00    -0.544 C  
ENDBRANCH  12  14
ENDBRANCH  11  12
ENDBRANCH  10  11
ENDBRANCH   9  10
BRANCH   9  17
HETATM   17  C   UNL     1     -10.599  13.491  67.810  1.00  0.00    -0.246 A  
HETATM   18  C   UNL     1      -8.911  17.945  67.241  1.00  0.00    -0.250 A  
HETATM   19  C   UNL     1     -11.274  13.677  66.600  1.00  0.00    -0.324 A  
HETATM   20  C   UNL     1      -9.750  18.114  66.152  1.00  0.00    -0.210 A  
HETATM   21  N   UNL     1      -8.891  16.776  67.934  1.00  0.00    -0.215 NA 
HETATM   22  C   UNL     1      -9.712  15.787  67.511  1.00  0.00    -0.226 A  
HETATM   23  C   UNL     1     -11.289  14.909  65.933  1.00  0.00    -0.306 A  
HETATM   24  C   UNL     1     -10.527  15.969  66.375  1.00  0.00    -0.309 A  
HETATM   25  C   UNL     1      -9.779  14.572  68.208  1.00  0.00    -0.218 A  
HETATM   26  N   UNL     1     -10.562  17.132  65.696  1.00  0.00    -0.515 NA 
BRANCH  18  27
HETATM   27  C   UNL     1      -8.005  18.977  67.704  1.00  0.00    -0.285 A  
HETATM   28  N   UNL     1      -6.576  20.156  68.890  1.00  0.00    -0.309 NA 
HETATM   29  C   UNL     1      -7.274  18.981  68.876  1.00  0.00    -0.329 A  
HETATM   30  C   UNL     1      -5.674  20.621  69.914  1.00  0.00    -0.325 C  
HETATM   31  N   UNL     1      -6.802  20.926  67.810  1.00  0.00    -0.317 NA 
HETATM   32  C   UNL     1      -7.671  20.208  67.092  1.00  0.00    -0.308 A  
ENDBRANCH  18  27
ENDBRANCH   9  17
ENDBRANCH   5   9
BRANCH   8  33
HETATM   33  O   UNL     1      -6.753   9.627  68.840  1.00  0.00    -0.047 OA 
HETATM   34  C   UNL     1      -6.029   8.410  68.743  1.00  0.00    -0.044 C  
ENDBRANCH   8  33
ENDBRANCH   2   3
TORSDOF 9
ENDMDL
MODEL       46
REMARK 921   NORMALIZED FREE ENERGY PREDICTED BY IDOCK:   -6.32 KCAL/MOL
REMARK 922        TOTAL FREE ENERGY PREDICTED BY IDOCK:  -10.82 KCAL/MOL
REMARK 923 INTER-LIGAND FREE ENERGY PREDICTED BY IDOCK:   -9.49 KCAL/MOL
REMARK 924 INTRA-LIGAND FREE ENERGY PREDICTED BY IDOCK:   -1.34 KCAL/MOL
REMARK 927      BINDING AFFINITY PREDICTED BY RF-SCORE:    0.00 PKD
ROOT
HETATM    1  C   UNL     1     -14.204  14.452  72.240  1.00  0.00    -0.491 C  
HETATM    2  O   UNL     1     -12.961  14.552  71.534  1.00  0.00    -0.303 OA 
ENDROOT
BRANCH   2   3
HETATM    3  C   UNL     1     -12.580  13.389  70.906  1.00  0.00    -0.327 A  
HETATM    4  C   UNL     1     -11.789  13.523  69.742  1.00  0.00    -0.395 A  
HETATM    5  C   UNL     1     -11.222  12.414  69.081  1.00  0.00    -0.236 A  
HETATM    6  C   UNL     1     -11.618  11.175  69.615  1.00  0.00    -0.398 A  
HETATM    7  C   UNL     1     -12.955  12.131  71.363  1.00  0.00    -0.357 A  
HETATM    8  C   UNL     1     -12.477  11.015  70.709  1.00  0.00    -0.396 A  
BRANCH   5   9
HETATM    9  N   UNL     1     -10.316  12.503  67.971  1.00  0.00    -0.216 NA 
BRANCH   9  10
HETATM   10  C   UNL     1     -10.248  11.375  66.987  1.00  0.00    -0.213 C  
BRANCH  10  11
HETATM   11  C   UNL     1     -11.039  11.517  65.661  1.00  0.00    -0.199 C  
BRANCH  11  12
HETATM   12  N   UNL     1     -12.244  12.346  65.675  1.00  0.00    -0.626 NA 
HETATM   13  H   UNL     1     -12.228  12.971  66.481  1.00  0.00     0.000 HD 
BRANCH  12  14
HETATM   14  C   UNL     1     -12.500  13.111  64.456  1.00  0.00    -0.342 C  
HETATM   15  C   UNL     1     -12.111  14.587  64.572  1.00  0.00    -0.501 C  
HETATM   16  C   UNL     1     -11.689  12.462  63.330  1.00  0.00    -0.554 C  
ENDBRANCH  12  14
ENDBRANCH  11  12
ENDBRANCH  10  11
ENDBRANCH   9  10
BRANCH   9  17
HETATM   17  C   UNL     1      -9.113  13.309  67.953  1.00  0.00    -0.203 A  
HETATM   18  C   UNL     1      -6.678  17.180  66.506  1.00  0.00    -0.255 A  
HETATM   19  C   UNL     1      -7.922  12.878  68.543  1.00  0.00    -0.095 A  
HETATM   20  C   UNL     1      -5.504  16.600  66.959  1.00  0.00    -0.099 A  
HETATM   21  N   UNL     1      -7.869  16.537  66.629  1.00  0.00    -0.256 NA 
HETATM   22  C   UNL     1      -7.862  15.319  67.217  1.00  0.00    -0.209 A  
HETATM   23  C   UNL     1      -6.710  13.559  68.368  1.00  0.00    -0.097 A  
HETATM   24  C   UNL     1      -6.660  14.766  67.706  1.00  0.00    -0.170 A  
HETATM   25  C   UNL     1      -9.046  14.578  67.333  1.00  0.00    -0.201 A  
HETATM   26  N   UNL     1      -5.475  15.393  67.571  1.00  0.00    -0.329 NA 
BRANCH  18  27
HETATM   27  C   UNL     1      -6.720  18.493  65.892  1.00  0.00    -0.310 A  
HETATM   28  N   UNL     1      -6.323  20.241  64.619  1.00  0.00    -0.287 NA 
HETATM   29  C   UNL     1      -5.939  18.950  64.849  1.00  0.00    -0.282 A  
HETATM   30  C   UNL     1      -5.792  21.144  63.629  1.00  0.00    -0.294 C  
HETATM   31  N   UNL     1      -7.300  20.665  65.442  1.00  0.00     0.011 NA 
HETATM   32  C   UNL     1      -7.538  19.600  66.215  1.00  0.00    -0.308 A  
ENDBRANCH  18  27
ENDBRANCH   9  17
ENDBRANCH   5   9
BRANCH   8  33
HETATM   33  O   UNL     1     -12.743   9.712  71.032  1.00  0.00    -0.314 OA 
HETATM   34  C   UNL     1     -12.451   9.301  72.359  1.00  0.00    -0.237 C  
ENDBRANCH   8  33
ENDBRANCH   2   3
TORSDOF 9
ENDMDL
MODEL       47
REMARK 921   NORMALIZED FREE ENERGY PREDICTED BY IDOCK:   -6.31 KCAL/MOL
REMARK 922        TOTAL FREE ENERGY PREDICTED BY IDOCK:  -10.80 KCAL/MOL
REMARK 923 INTER-LIGAND FREE ENERGY PREDICTED BY IDOCK:   -9.70 KCAL/MOL
REMARK 924 INTRA-LIGAND FREE ENERGY PREDICTED BY IDOCK:   -1.11 KCAL/MOL
REMARK 927      BINDING AFFINITY PREDICTED BY RF-SCORE:    0.00 PKD
ROOT
HETATM    1  C   UNL     1      -5.297  17.316  66.682  1.00  0.00    -0.178 C  
HETATM    2  O   UNL     1      -6.222  16.222  66.719  1.00  0.00    -0.309 OA 
ENDROOT
BRANCH   2   3
HETATM    3  C   UNL     1      -7.540  16.601  66.626  1.00  0.00    -0.279 A  
HETATM    4  C   UNL     1      -8.510  15.589  66.806  1.00  0.00    -0.314 A  
HETATM    5  C   UNL     1      -9.891  15.867  66.869  1.00  0.00    -0.243 A  
HETATM    6  C   UNL     1     -10.209  17.213  66.614  1.00  0.00    -0.319 A  
HETATM    7  C   UNL     1      -7.927  17.909  66.351  1.00  0.00    -0.302 A  
HETATM    8  C   UNL     1      -9.271  18.216  66.337  1.00  0.00    -0.255 A  
BRANCH   5   9
HETATM    9  N   UNL     1     -10.904  14.896  67.170  1.00  0.00    -0.304 NA 
BRANCH   9  10
HETATM   10  C   UNL     1     -11.900  15.186  68.252  1.00  0.00    -0.250 C  
BRANCH  10  11
HETATM   11  C   UNL     1     -11.366  15.427  69.688  1.00  0.00    -0.307 C  
BRANCH  11  12
HETATM   12  N   UNL     1     -12.081  14.793  70.794  1.00  0.00    -0.288 NA 
HETATM   13  H   UNL     1     -11.426  14.278  71.382  1.00  0.00     0.000 HD 
BRANCH  12  14
HETATM   14  C   UNL     1     -12.895  15.686  71.617  1.00  0.00    -0.463 C  
HETATM   15  C   UNL     1     -14.310  15.161  71.867  1.00  0.00    -0.693 C  
HETATM   16  C   UNL     1     -12.174  15.853  72.959  1.00  0.00    -0.609 C  
ENDBRANCH  12  14
ENDBRANCH  11  12
ENDBRANCH  10  11
ENDBRANCH   9  10
BRANCH   9  17
HETATM   17  C   UNL     1     -10.788  13.476  66.910  1.00  0.00    -0.282 A  
HETATM   18  C   UNL     1     -10.131   8.973  68.425  1.00  0.00    -0.191 A  
HETATM   19  C   UNL     1     -10.761  12.959  65.611  1.00  0.00    -0.295 A  
HETATM   20  C   UNL     1      -9.935   8.570  67.114  1.00  0.00    -0.238 A  
HETATM   21  N   UNL     1     -10.393  10.272  68.726  1.00  0.00    -0.184 NA 
HETATM   22  C   UNL     1     -10.464  11.147  67.697  1.00  0.00    -0.196 A  
HETATM   23  C   UNL     1     -10.460  11.617  65.346  1.00  0.00    -0.324 A  
HETATM   24  C   UNL     1     -10.301  10.706  66.367  1.00  0.00    -0.231 A  
HETATM   25  C   UNL     1     -10.683  12.511  67.938  1.00  0.00    -0.239 A  
HETATM   26  N   UNL     1     -10.024   9.423  66.067  1.00  0.00    -0.300 NA 
BRANCH  18  27
HETATM   27  C   UNL     1     -10.082   8.054  69.545  1.00  0.00    -0.196 A  
HETATM   28  N   UNL     1     -10.624   6.759  71.238  1.00  0.00    -0.217 NA 
HETATM   29  C   UNL     1     -11.150   7.587  70.287  1.00  0.00    -0.248 A  
HETATM   30  C   UNL     1     -11.344   6.035  72.256  1.00  0.00    -0.303 C  
HETATM   31  N   UNL     1      -9.285   6.653  71.176  1.00  0.00    -0.159 NA 
HETATM   32  C   UNL     1      -8.958   7.442  70.146  1.00  0.00    -0.148 A  
ENDBRANCH  18  27
ENDBRANCH   9  17
ENDBRANCH   5   9
BRANCH   8  33
HETATM   33  O   UNL     1      -9.818  19.446  66.092  1.00  0.00    -0.378 OA 
HETATM   34  C   UNL     1      -9.952  20.327  67.197  1.00  0.00    -0.453 C  
ENDBRANCH   8  33
ENDBRANCH   2   3
TORSDOF 9
ENDMDL
MODEL       48
REMARK 921   NORMALIZED FREE ENERGY PREDICTED BY IDOCK:   -6.30 KCAL/MOL
REMARK 922        TOTAL FREE ENERGY PREDICTED BY IDOCK:  -10.79 KCAL/MOL
REMARK 923 INTER-LIGAND FREE ENERGY PREDICTED BY IDOCK:   -9.44 KCAL/MOL
REMARK 924 INTRA-LIGAND FREE ENERGY PREDICTED BY IDOCK:   -1.35 KCAL/MOL
REMARK 927      BINDING AFFINITY PREDICTED BY RF-SCORE:    0.00 PKD
ROOT
HETATM    1  C   UNL     1     -13.246  10.695  71.795  1.00  0.00    -0.421 C  
HETATM    2  O   UNL     1     -13.024   9.413  72.396  1.00  0.00    -0.395 OA 
ENDROOT
BRANCH   2   3
HETATM    3  C   UNL     1     -12.172   8.602  71.684  1.00  0.00    -0.333 A  
HETATM    4  C   UNL     1     -11.249   9.242  70.826  1.00  0.00    -0.351 A  
HETATM    5  C   UNL     1     -10.236   8.539  70.144  1.00  0.00    -0.195 A  
HETATM    6  C   UNL     1     -10.311   7.143  70.303  1.00  0.00    -0.214 A  
HETATM    7  C   UNL     1     -12.207   7.214  71.772  1.00  0.00    -0.379 A  
HETATM    8  C   UNL     1     -11.275   6.479  71.071  1.00  0.00    -0.309 A  
BRANCH   5   9
HETATM    9  N   UNL     1      -9.203   9.154  69.360  1.00  0.00    -0.152 NA 
BRANCH   9  10
HETATM   10  C   UNL     1      -7.971   9.668  70.041  1.00  0.00    -0.172 C  
BRANCH  10  11
HETATM   11  C   UNL     1      -7.260   8.737  71.058  1.00  0.00    -0.088 C  
BRANCH  11  12
HETATM   12  N   UNL     1      -7.691   8.802  72.454  1.00  0.00    -0.360 NA 
HETATM   13  H   UNL     1      -8.612   9.237  72.514  1.00  0.00     0.000 HD 
BRANCH  12  14
HETATM   14  C   UNL     1      -7.691   7.531  73.176  1.00  0.00    -0.101 C  
HETATM   15  C   UNL     1      -8.960   7.301  74.000  1.00  0.00    -0.268 C  
HETATM   16  C   UNL     1      -7.554   6.414  72.136  1.00  0.00    -0.094 C  
ENDBRANCH  12  14
ENDBRANCH  11  12
ENDBRANCH  10  11
ENDBRANCH   9  10
BRANCH   9  17
HETATM   17  C   UNL     1      -9.411   9.787  68.074  1.00  0.00    -0.131 A  
HETATM   18  C   UNL     1     -10.384  13.654  65.409  1.00  0.00    -0.332 A  
HETATM   19  C   UNL     1      -9.460   9.053  66.885  1.00  0.00    -0.219 A  
HETATM   20  C   UNL     1     -10.594  12.835  64.312  1.00  0.00    -0.400 A  
HETATM   21  N   UNL     1     -10.039  13.133  66.615  1.00  0.00    -0.258 NA 
HETATM   22  C   UNL     1      -9.898  11.791  66.697  1.00  0.00    -0.202 A  
HETATM   23  C   UNL     1      -9.848   9.626  65.667  1.00  0.00    -0.369 A  
HETATM   24  C   UNL     1     -10.078  10.980  65.557  1.00  0.00    -0.261 A  
HETATM   25  C   UNL     1      -9.591  11.181  67.922  1.00  0.00    -0.181 A  
HETATM   26  N   UNL     1     -10.437  11.491  64.364  1.00  0.00    -0.301 NA 
BRANCH  18  27
HETATM   27  C   UNL     1     -10.505  15.098  65.347  1.00  0.00    -0.416 A  
HETATM   28  N   UNL     1     -10.407  17.246  65.807  1.00  0.00    -0.581 NA 
HETATM   29  C   UNL     1     -10.068  16.012  66.286  1.00  0.00    -0.313 A  
HETATM   30  C   UNL     1     -10.165  18.521  66.436  1.00  0.00    -0.420 C  
HETATM   31  N   UNL     1     -11.040  17.205  64.621  1.00  0.00    -1.007 NA 
HETATM   32  C   UNL     1     -11.099  15.899  64.344  1.00  0.00    -0.148 A  
ENDBRANCH  18  27
ENDBRANCH   9  17
ENDBRANCH   5   9
BRANCH   8  33
HETATM   33  O   UNL     1     -11.167   5.115  71.053  1.00  0.00     0.130 OA 
HETATM   34  C   UNL     1      -9.936   4.569  70.606  1.00  0.00    -0.203 C  
ENDBRANCH   8  33
ENDBRANCH   2   3
TORSDOF 9
ENDMDL
MODEL       49
REMARK 921   NORMALIZED FREE ENERGY PREDICTED BY IDOCK:   -6.29 KCAL/MOL
REMARK 922        TOTAL FREE ENERGY PREDICTED BY IDOCK:  -10.78 KCAL/MOL
REMARK 923 INTER-LIGAND FREE ENERGY PREDICTED BY IDOCK:   -9.76 KCAL/MOL
REMARK 924 INTRA-LIGAND FREE ENERGY PREDICTED BY IDOCK:   -1.02 KCAL/MOL
REMARK 927      BINDING AFFINITY PREDICTED BY RF-SCORE:    0.00 PKD
ROOT
HETATM    1  C   UNL     1     -10.340   5.003  73.670  1.00  0.00    -0.219 C  
HETATM    2  O   UNL     1     -10.709   6.356  73.964  1.00  0.00    -0.236 OA 
ENDROOT
BRANCH   2   3
HETATM    3  C   UNL     1     -10.087   7.290  73.169  1.00  0.00    -0.273 A  
HETATM    4  C   UNL     1     -10.921   8.114  72.379  1.00  0.00    -0.414 A  
HETATM    5  C   UNL     1     -10.422   9.195  71.625  1.00  0.00    -0.332 A  
HETATM    6  C   UNL     1      -9.019   9.294  71.640  1.00  0.00     0.199 A  
HETATM    7  C   UNL     1      -8.704   7.427  73.114  1.00  0.00    -0.185 A  
HETATM    8  C   UNL     1      -8.165   8.432  72.338  1.00  0.00    -0.139 A  
BRANCH   5   9
HETATM    9  N   UNL     1     -11.237  10.131  70.905  1.00  0.00    -0.341 NA 
BRANCH   9  10
HETATM   10  C   UNL     1     -12.638  10.394  71.368  1.00  0.00    -0.434 C  
BRANCH  10  11
HETATM   11  C   UNL     1     -12.943  11.766  72.021  1.00  0.00    -0.265 C  
BRANCH  11  12
HETATM   12  N   UNL     1     -13.100  12.920  71.136  1.00  0.00    -0.163 NA 
HETATM   13  H   UNL     1     -14.090  13.094  70.963  1.00  0.00     0.000 HD 
BRANCH  12  14
HETATM   14  C   UNL     1     -12.446  14.151  71.579  1.00  0.00    -0.341 C  
HETATM   15  C   UNL     1     -12.566  15.297  70.571  1.00  0.00    -0.450 C  
HETATM   16  C   UNL     1     -13.103  14.568  72.899  1.00  0.00    -0.614 C  
ENDBRANCH  12  14
ENDBRANCH  11  12
ENDBRANCH  10  11
ENDBRANCH   9  10
BRANCH   9  17
HETATM   17  C   UNL     1     -11.056  10.480  69.511  1.00  0.00    -0.268 A  
HETATM   18  C   UNL     1     -10.955  13.719  65.975  1.00  0.00    -0.284 A  
HETATM   19  C   UNL     1     -10.875   9.510  68.521  1.00  0.00    -0.175 A  
HETATM   20  C   UNL     1     -10.961  12.691  65.046  1.00  0.00    -0.289 A  
HETATM   21  N   UNL     1     -10.974  13.456  67.308  1.00  0.00    -0.269 NA 
HETATM   22  C   UNL     1     -10.988  12.158  67.687  1.00  0.00    -0.243 A  
HETATM   23  C   UNL     1     -10.889   9.822  67.155  1.00  0.00    -0.207 A  
HETATM   24  C   UNL     1     -10.953  11.129  66.723  1.00  0.00    -0.249 A  
HETATM   25  C   UNL     1     -11.057  11.814  69.045  1.00  0.00    -0.301 A  
HETATM   26  N   UNL     1     -10.952  11.385  65.401  1.00  0.00    -0.229 NA 
BRANCH  18  27
HETATM   27  C   UNL     1     -10.918  15.118  65.599  1.00  0.00    -0.359 A  
HETATM   28  N   UNL     1     -10.611  17.297  65.598  1.00  0.00    -0.532 NA 
HETATM   29  C   UNL     1     -10.430  16.170  66.350  1.00  0.00    -0.301 A  
HETATM   30  C   UNL     1     -10.264  18.649  65.957  1.00  0.00    -0.353 C  
HETATM   31  N   UNL     1     -11.190  17.058  64.407  1.00  0.00    -1.077 NA 
HETATM   32  C   UNL     1     -11.375  15.734  64.411  1.00  0.00    -0.265 A  
ENDBRANCH  18  27
ENDBRANCH   9  17
ENDBRANCH   5   9
BRANCH   8  33
HETATM   33  O   UNL     1      -6.834   8.706  72.180  1.00  0.00    -0.113 OA 
HETATM   34  C   UNL     1      -5.958   7.599  72.026  1.00  0.00    -0.036 C  
ENDBRANCH   8  33
ENDBRANCH   2   3
TORSDOF 9
ENDMDL
MODEL       50
REMARK 921   NORMALIZED FREE ENERGY PREDICTED BY IDOCK:   -6.29 KCAL/MOL
REMARK 922        TOTAL FREE ENERGY PREDICTED BY IDOCK:  -10.77 KCAL/MOL
REMARK 923 INTER-LIGAND FREE ENERGY PREDICTED BY IDOCK:   -9.63 KCAL/MOL
REMARK 924 INTRA-LIGAND FREE ENERGY PREDICTED BY IDOCK:   -1.14 KCAL/MOL
REMARK 927      BINDING AFFINITY PREDICTED BY RF-SCORE:    0.00 PKD
ROOT
HETATM    1  C   UNL     1     -12.650  12.580  63.523  1.00  0.00    -0.367 C  
HETATM    2  O   UNL     1     -12.470  13.908  64.030  1.00  0.00    -0.679 OA 
ENDROOT
BRANCH   2   3
HETATM    3  C   UNL     1     -11.695  13.973  65.164  1.00  0.00    -0.350 A  
HETATM    4  C   UNL     1     -12.062  13.131  66.238  1.00  0.00    -0.460 A  
HETATM    5  C   UNL     1     -11.278  13.002  67.402  1.00  0.00    -0.288 A  
HETATM    6  C   UNL     1     -10.174  13.874  67.439  1.00  0.00    -0.252 A  
HETATM    7  C   UNL     1     -10.605  14.830  65.280  1.00  0.00    -0.414 A  
HETATM    8  C   UNL     1      -9.844  14.786  66.429  1.00  0.00    -0.280 A  
BRANCH   5   9
HETATM    9  N   UNL     1     -11.542  12.074  68.464  1.00  0.00    -0.287 NA 
BRANCH   9  10
HETATM   10  C   UNL     1     -11.662  12.582  69.870  1.00  0.00    -0.255 C  
BRANCH  10  11
HETATM   11  C   UNL     1     -12.672  13.725  70.147  1.00  0.00    -0.091 C  
BRANCH  11  12
HETATM   12  N   UNL     1     -12.132  15.033  70.516  1.00  0.00    -0.301 NA 
HETATM   13  H   UNL     1     -12.021  15.611  69.684  1.00  0.00     0.000 HD 
BRANCH  12  14
HETATM   14  C   UNL     1     -12.884  15.764  71.535  1.00  0.00    -0.449 C  
HETATM   15  C   UNL     1     -14.350  15.331  71.635  1.00  0.00    -0.666 C  
HETATM   16  C   UNL     1     -12.192  15.516  72.879  1.00  0.00    -0.547 C  
ENDBRANCH  12  14
ENDBRANCH  11  12
ENDBRANCH  10  11
ENDBRANCH   9  10
BRANCH   9  17
HETATM   17  C   UNL     1     -11.217  10.664  68.426  1.00  0.00    -0.288 A  
HETATM   18  C   UNL     1     -10.342   6.498  70.637  1.00  0.00    -0.201 A  
HETATM   19  C   UNL     1     -10.887  10.010  67.235  1.00  0.00    -0.284 A  
HETATM   20  C   UNL     1      -9.858   5.978  69.447  1.00  0.00    -0.163 A  
HETATM   21  N   UNL     1     -10.804   7.774  70.706  1.00  0.00    -0.235 NA 
HETATM   22  C   UNL     1     -10.781   8.507  69.570  1.00  0.00    -0.174 A  
HETATM   23  C   UNL     1     -10.389   8.701  67.213  1.00  0.00    -0.366 A  
HETATM   24  C   UNL     1     -10.321   7.944  68.362  1.00  0.00    -0.199 A  
HETATM   25  C   UNL     1     -11.196   9.847  69.580  1.00  0.00    -0.220 A  
HETATM   26  N   UNL     1      -9.847   6.685  68.293  1.00  0.00    -0.135 NA 
BRANCH  18  27
HETATM   27  C   UNL     1     -10.400   5.729  71.864  1.00  0.00    -0.263 A  
HETATM   28  N   UNL     1     -10.523   4.088  73.324  1.00  0.00    -0.164 NA 
HETATM   29  C   UNL     1     -10.483   4.355  71.984  1.00  0.00    -0.058 A  
HETATM   30  C   UNL     1     -10.615   2.793  73.951  1.00  0.00    -0.172 C  
HETATM   31  N   UNL     1     -10.477   5.192  74.092  1.00  0.00    -0.274 NA 
HETATM   32  C   UNL     1     -10.403   6.187  73.202  1.00  0.00    -0.219 A  
ENDBRANCH  18  27
ENDBRANCH   9  17
ENDBRANCH   5   9
BRANCH   8  33
HETATM   33  O   UNL     1      -8.742  15.551  66.700  1.00  0.00    -0.246 OA 
HETATM   34  C   UNL     1      -8.741  16.882  66.205  1.00  0.00    -0.286 C  
ENDBRANCH   8  33
ENDBRANCH   2   3
TORSDOF 9
ENDMDL
MODEL       51
REMARK 921   NORMALIZED FREE ENERGY PREDICTED BY IDOCK:   -6.24 KCAL/MOL
REMARK 922        TOTAL FREE ENERGY PREDICTED BY IDOCK:  -10.69 KCAL/MOL
REMARK 923 INTER-LIGAND FREE ENERGY PREDICTED BY IDOCK:   -9.37 KCAL/MOL
REMARK 924 INTRA-LIGAND FREE ENERGY PREDICTED BY IDOCK:   -1.33 KCAL/MOL
REMARK 927      BINDING AFFINITY PREDICTED BY RF-SCORE:    0.00 PKD
ROOT
HETATM    1  C   UNL     1     -13.341  14.350  71.505  1.00  0.00    -0.355 C  
HETATM    2  O   UNL     1     -13.611  13.064  72.078  1.00  0.00    -0.482 OA 
ENDROOT
BRANCH   2   3
HETATM    3  C   UNL     1     -12.918  12.033  71.487  1.00  0.00    -0.304 A  
HETATM    4  C   UNL     1     -12.321  12.300  70.234  1.00  0.00    -0.267 A  
HETATM    5  C   UNL     1     -11.474  11.378  69.587  1.00  0.00    -0.309 A  
HETATM    6  C   UNL     1     -11.383  10.138  70.243  1.00  0.00    -0.387 A  
HETATM    7  C   UNL     1     -12.808  10.774  72.066  1.00  0.00    -0.357 A  
HETATM    8  C   UNL     1     -12.041   9.816  71.437  1.00  0.00    -0.400 A  
BRANCH   5   9
HETATM    9  N   UNL     1     -10.750  11.647  68.377  1.00  0.00    -0.206 NA 
BRANCH   9  10
HETATM   10  C   UNL     1     -10.989  10.789  67.172  1.00  0.00    -0.260 C  
BRANCH  10  11
HETATM   11  C   UNL     1     -11.225  11.494  65.812  1.00  0.00    -0.164 C  
BRANCH  11  12
HETATM   12  N   UNL     1     -12.174  12.607  65.780  1.00  0.00    -0.598 NA 
HETATM   13  H   UNL     1     -11.882  13.332  66.435  1.00  0.00     0.000 HD 
BRANCH  12  14
HETATM   14  C   UNL     1     -12.419  13.193  64.463  1.00  0.00    -0.342 C  
HETATM   15  C   UNL     1     -12.136  14.696  64.405  1.00  0.00    -0.481 C  
HETATM   16  C   UNL     1     -11.510  12.469  63.465  1.00  0.00    -0.570 C  
ENDBRANCH  12  14
ENDBRANCH  11  12
ENDBRANCH  10  11
ENDBRANCH   9  10
BRANCH   9  17
HETATM   17  C   UNL     1      -9.467  12.317  68.317  1.00  0.00    -0.209 A  
HETATM   18  C   UNL     1      -6.827  16.316  68.132  1.00  0.00    -0.128 A  
HETATM   19  C   UNL     1      -8.269  11.613  68.160  1.00  0.00    -0.151 A  
HETATM   20  C   UNL     1      -5.716  15.558  67.799  1.00  0.00    -0.129 A  
HETATM   21  N   UNL     1      -8.034  15.732  68.349  1.00  0.00    -0.137 NA 
HETATM   22  C   UNL     1      -8.103  14.386  68.238  1.00  0.00    -0.139 A  
HETATM   23  C   UNL     1      -7.050  12.257  67.911  1.00  0.00    -0.105 A  
HETATM   24  C   UNL     1      -6.950  13.631  67.937  1.00  0.00    -0.153 A  
HETATM   25  C   UNL     1      -9.327  13.721  68.400  1.00  0.00    -0.190 A  
HETATM   26  N   UNL     1      -5.756  14.208  67.704  1.00  0.00    -0.338 NA 
BRANCH  18  27
HETATM   27  C   UNL     1      -6.778  17.758  68.280  1.00  0.00    -0.206 A  
HETATM   28  N   UNL     1      -6.218  19.802  68.868  1.00  0.00    -0.263 NA 
HETATM   29  C   UNL     1      -5.865  18.489  69.015  1.00  0.00    -0.222 A  
HETATM   30  C   UNL     1      -5.567  20.948  69.452  1.00  0.00    -0.345 C  
HETATM   31  N   UNL     1      -7.302  19.982  68.093  1.00  0.00    -0.295 NA 
HETATM   32  C   UNL     1      -7.640  18.738  67.737  1.00  0.00    -0.229 A  
ENDBRANCH  18  27
ENDBRANCH   9  17
ENDBRANCH   5   9
BRANCH   8  33
HETATM   33  O   UNL     1     -11.825   8.537  71.872  1.00  0.00    -0.296 OA 
HETATM   34  C   UNL     1     -12.710   7.533  71.397  1.00  0.00    -0.348 C  
ENDBRANCH   8  33
ENDBRANCH   2   3
TORSDOF 9
ENDMDL
MODEL       52
REMARK 921   NORMALIZED FREE ENERGY PREDICTED BY IDOCK:   -6.23 KCAL/MOL
REMARK 922        TOTAL FREE ENERGY PREDICTED BY IDOCK:  -10.67 KCAL/MOL
REMARK 923 INTER-LIGAND FREE ENERGY PREDICTED BY IDOCK:   -9.58 KCAL/MOL
REMARK 924 INTRA-LIGAND FREE ENERGY PREDICTED BY IDOCK:   -1.09 KCAL/MOL
REMARK 927      BINDING AFFINITY PREDICTED BY RF-SCORE:    0.00 PKD
ROOT
HETATM    1  C   UNL     1     -11.038   6.135  69.247  1.00  0.00    -0.393 C  
HETATM    2  O   UNL     1     -11.087   6.086  67.815  1.00  0.00    -0.300 OA 
ENDROOT
BRANCH   2   3
HETATM    3  C   UNL     1     -10.307   7.035  67.197  1.00  0.00    -0.281 A  
HETATM    4  C   UNL     1     -10.533   8.382  67.559  1.00  0.00    -0.328 A  
HETATM    5  C   UNL     1      -9.717   9.436  67.103  1.00  0.00    -0.173 A  
HETATM    6  C   UNL     1      -8.746   9.034  66.167  1.00  0.00    -0.169 A  
HETATM    7  C   UNL     1      -9.347   6.712  66.244  1.00  0.00    -0.144 A  
HETATM    8  C   UNL     1      -8.566   7.720  65.719  1.00  0.00    -0.143 A  
BRANCH   5   9
HETATM    9  N   UNL     1      -9.828  10.800  67.535  1.00  0.00    -0.170 NA 
BRANCH   9  10
HETATM   10  C   UNL     1     -10.103  11.093  68.979  1.00  0.00    -0.155 C  
BRANCH  10  11
HETATM   11  C   UNL     1     -11.573  11.346  69.403  1.00  0.00    -0.323 C  
BRANCH  11  12
HETATM   12  N   UNL     1     -12.335  10.212  69.923  1.00  0.00    -0.509 NA 
HETATM   13  H   UNL     1     -12.069   9.359  69.430  1.00  0.00     0.000 HD 
BRANCH  12  14
HETATM   14  C   UNL     1     -12.252  10.001  71.367  1.00  0.00    -0.416 C  
HETATM   15  C   UNL     1     -13.561   9.501  71.984  1.00  0.00    -0.492 C  
HETATM   16  C   UNL     1     -11.149   8.965  71.614  1.00  0.00    -0.420 C  
ENDBRANCH  12  14
ENDBRANCH  11  12
ENDBRANCH  10  11
ENDBRANCH   9  10
BRANCH   9  17
HETATM   17  C   UNL     1     -10.202  11.907  66.680  1.00  0.00    -0.208 A  
HETATM   18  C   UNL     1     -10.409  16.608  65.752  1.00  0.00    -0.321 A  
HETATM   19  C   UNL     1     -10.954  11.725  65.516  1.00  0.00    -0.344 A  
HETATM   20  C   UNL     1     -11.300  16.357  64.721  1.00  0.00    -0.150 A  
HETATM   21  N   UNL     1      -9.903  15.595  66.502  1.00  0.00    -0.247 NA 
HETATM   22  C   UNL     1     -10.293  14.337  66.194  1.00  0.00    -0.299 A  
HETATM   23  C   UNL     1     -11.480  12.800  64.788  1.00  0.00    -0.356 A  
HETATM   24  C   UNL     1     -11.170  14.102  65.115  1.00  0.00    -0.337 A  
HETATM   25  C   UNL     1      -9.849  13.247  66.957  1.00  0.00    -0.242 A  
HETATM   26  N   UNL     1     -11.688  15.105  64.381  1.00  0.00    -0.353 NA 
BRANCH  18  27
HETATM   27  C   UNL     1      -9.955  17.943  66.090  1.00  0.00    -0.288 A  
HETATM   28  N   UNL     1      -8.759  19.653  66.785  1.00  0.00    -0.317 NA 
HETATM   29  C   UNL     1      -8.733  18.296  66.629  1.00  0.00    -0.277 A  
HETATM   30  C   UNL     1      -7.712  20.489  67.318  1.00  0.00    -0.332 C  
HETATM   31  N   UNL     1      -9.916  20.216  66.391  1.00  0.00    -0.460 NA 
HETATM   32  C   UNL     1     -10.641  19.174  65.970  1.00  0.00    -0.442 A  
ENDBRANCH  18  27
ENDBRANCH   9  17
ENDBRANCH   5   9
BRANCH   8  33
HETATM   33  O   UNL     1      -7.578   7.574  64.783  1.00  0.00    -0.088 OA 
HETATM   34  C   UNL     1      -7.837   6.694  63.700  1.00  0.00    -0.109 C  
ENDBRANCH   8  33
ENDBRANCH   2   3
TORSDOF 9
ENDMDL
MODEL       53
REMARK 921   NORMALIZED FREE ENERGY PREDICTED BY IDOCK:   -6.23 KCAL/MOL
REMARK 922        TOTAL FREE ENERGY PREDICTED BY IDOCK:  -10.67 KCAL/MOL
REMARK 923 INTER-LIGAND FREE ENERGY PREDICTED BY IDOCK:   -9.25 KCAL/MOL
REMARK 924 INTRA-LIGAND FREE ENERGY PREDICTED BY IDOCK:   -1.43 KCAL/MOL
REMARK 927      BINDING AFFINITY PREDICTED BY RF-SCORE:    0.00 PKD
ROOT
HETATM    1  C   UNL     1     -14.403   7.920  71.604  1.00  0.00    -0.479 C  
HETATM    2  O   UNL     1     -13.527   9.039  71.428  1.00  0.00    -0.339 OA 
ENDROOT
BRANCH   2   3
HETATM    3  C   UNL     1     -12.198   8.745  71.623  1.00  0.00    -0.339 A  
HETATM    4  C   UNL     1     -11.306   9.100  70.585  1.00  0.00    -0.323 A  
HETATM    5  C   UNL     1      -9.908   8.976  70.713  1.00  0.00    -0.243 A  
HETATM    6  C   UNL     1      -9.502   8.359  71.910  1.00  0.00    -0.323 A  
HETATM    7  C   UNL     1     -11.729   8.113  72.770  1.00  0.00    -0.334 A  
HETATM    8  C   UNL     1     -10.372   7.911  72.912  1.00  0.00    -0.347 A  
BRANCH   5   9
HETATM    9  N   UNL     1      -8.957   9.433  69.740  1.00  0.00    -0.172 NA 
BRANCH   9  10
HETATM   10  C   UNL     1      -7.629   9.954  70.199  1.00  0.00    -0.175 C  
BRANCH  10  11
HETATM   11  C   UNL     1      -6.488  10.059  69.154  1.00  0.00    -0.048 C  
BRANCH  11  12
HETATM   12  N   UNL     1      -5.668  11.269  69.163  1.00  0.00    -0.040 NA 
HETATM   13  H   UNL     1      -4.687  11.025  69.304  1.00  0.00     0.000 HD 
BRANCH  12  14
HETATM   14  C   UNL     1      -5.803  12.135  67.993  1.00  0.00    -0.059 C  
HETATM   15  C   UNL     1      -6.258  11.390  66.736  1.00  0.00    -0.141 C  
HETATM   16  C   UNL     1      -6.834  13.215  68.341  1.00  0.00    -0.098 C  
ENDBRANCH  12  14
ENDBRANCH  11  12
ENDBRANCH  10  11
ENDBRANCH   9  10
BRANCH   9  17
HETATM   17  C   UNL     1      -9.299   9.918  68.418  1.00  0.00    -0.133 A  
HETATM   18  C   UNL     1     -10.635  13.448  65.460  1.00  0.00    -0.290 A  
HETATM   19  C   UNL     1      -9.426   9.059  67.322  1.00  0.00    -0.189 A  
HETATM   20  C   UNL     1     -10.911  12.510  64.478  1.00  0.00    -0.323 A  
HETATM   21  N   UNL     1     -10.168  13.070  66.678  1.00  0.00    -0.252 NA 
HETATM   22  C   UNL     1      -9.974  11.748  66.888  1.00  0.00    -0.199 A  
HETATM   23  C   UNL     1      -9.938   9.486  66.091  1.00  0.00    -0.342 A  
HETATM   24  C   UNL     1     -10.224  10.814  65.860  1.00  0.00    -0.259 A  
HETATM   25  C   UNL     1      -9.540  11.282  68.137  1.00  0.00    -0.186 A  
HETATM   26  N   UNL     1     -10.703  11.184  64.657  1.00  0.00    -0.312 NA 
BRANCH  18  27
HETATM   27  C   UNL     1     -10.812  14.873  65.256  1.00  0.00    -0.398 A  
HETATM   28  N   UNL     1     -10.739  17.061  65.470  1.00  0.00    -0.482 NA 
HETATM   29  C   UNL     1     -10.309  15.895  66.038  1.00  0.00    -0.348 A  
HETATM   30  C   UNL     1     -10.476  18.402  65.929  1.00  0.00    -0.321 C  
HETATM   31  N   UNL     1     -11.494  16.875  64.372  1.00  0.00    -0.995 NA 
HETATM   32  C   UNL     1     -11.537  15.545  64.245  1.00  0.00    -0.194 A  
ENDBRANCH  18  27
ENDBRANCH   9  17
ENDBRANCH   5   9
BRANCH   8  33
HETATM   33  O   UNL     1      -9.749   7.315  73.974  1.00  0.00    -0.280 OA 
HETATM   34  C   UNL     1     -10.074   5.958  74.236  1.00  0.00    -0.284 C  
ENDBRANCH   8  33
ENDBRANCH   2   3
TORSDOF 9
ENDMDL
MODEL       54
REMARK 921   NORMALIZED FREE ENERGY PREDICTED BY IDOCK:   -6.19 KCAL/MOL
REMARK 922        TOTAL FREE ENERGY PREDICTED BY IDOCK:  -10.62 KCAL/MOL
REMARK 923 INTER-LIGAND FREE ENERGY PREDICTED BY IDOCK:   -9.47 KCAL/MOL
REMARK 924 INTRA-LIGAND FREE ENERGY PREDICTED BY IDOCK:   -1.15 KCAL/MOL
REMARK 927      BINDING AFFINITY PREDICTED BY RF-SCORE:    0.00 PKD
ROOT
HETATM    1  C   UNL     1     -14.395  14.733  71.897  1.00  0.00    -0.570 C  
HETATM    2  O   UNL     1     -13.420  15.735  71.583  1.00  0.00    -0.478 OA 
ENDROOT
BRANCH   2   3
HETATM    3  C   UNL     1     -12.458  15.318  70.693  1.00  0.00    -0.406 A  
HETATM    4  C   UNL     1     -12.640  14.045  70.105  1.00  0.00    -0.310 A  
HETATM    5  C   UNL     1     -11.804  13.557  69.082  1.00  0.00    -0.340 A  
HETATM    6  C   UNL     1     -10.713  14.398  68.794  1.00  0.00    -0.258 A  
HETATM    7  C   UNL     1     -11.342  16.086  70.381  1.00  0.00    -0.405 A  
HETATM    8  C   UNL     1     -10.458  15.619  69.430  1.00  0.00    -0.253 A  
BRANCH   5   9
HETATM    9  N   UNL     1     -12.017  12.329  68.371  1.00  0.00    -0.336 NA 
BRANCH   9  10
HETATM   10  C   UNL     1     -12.155  11.050  69.139  1.00  0.00    -0.263 C  
BRANCH  10  11
HETATM   11  C   UNL     1     -11.189  10.807  70.327  1.00  0.00    -0.245 C  
BRANCH  11  12
HETATM   12  N   UNL     1     -10.970   9.425  70.752  1.00  0.00    -0.277 NA 
HETATM   13  H   UNL     1      -9.980   9.274  70.950  1.00  0.00     0.000 HD 
BRANCH  12  14
HETATM   14  C   UNL     1     -11.779   8.974  71.883  1.00  0.00    -0.374 C  
HETATM   15  C   UNL     1     -13.137   8.401  71.468  1.00  0.00    -0.316 C  
HETATM   16  C   UNL     1     -10.978   7.893  72.616  1.00  0.00    -0.440 C  
ENDBRANCH  12  14
ENDBRANCH  11  12
ENDBRANCH  10  11
ENDBRANCH   9  10
BRANCH   9  17
HETATM   17  C   UNL     1     -11.623  12.093  66.997  1.00  0.00    -0.337 A  
HETATM   18  C   UNL     1      -8.865   9.903  63.741  1.00  0.00    -0.232 A  
HETATM   19  C   UNL     1     -12.151  12.834  65.936  1.00  0.00    -0.485 A  
HETATM   20  C   UNL     1      -9.305  10.798  62.779  1.00  0.00    -0.330 A  
HETATM   21  N   UNL     1      -9.312   9.977  65.022  1.00  0.00    -0.235 NA 
HETATM   22  C   UNL     1     -10.207  10.948  65.314  1.00  0.00    -0.288 A  
HETATM   23  C   UNL     1     -11.641  12.745  64.634  1.00  0.00    -0.384 A  
HETATM   24  C   UNL     1     -10.671  11.822  64.309  1.00  0.00    -0.342 A  
HETATM   25  C   UNL     1     -10.674  11.113  66.626  1.00  0.00    -0.322 A  
HETATM   26  N   UNL     1     -10.217  11.763  63.043  1.00  0.00    -0.315 NA 
BRANCH  18  27
HETATM   27  C   UNL     1      -7.924   8.839  63.452  1.00  0.00    -0.161 A  
HETATM   28  N   UNL     1      -6.842   6.924  63.438  1.00  0.00    -0.046 NA 
HETATM   29  C   UNL     1      -7.909   7.569  63.997  1.00  0.00    -0.127 A  
HETATM   30  C   UNL     1      -6.409   5.573  63.695  1.00  0.00    -0.022 C  
HETATM   31  N   UNL     1      -6.153   7.683  62.567  1.00  0.00    -0.063 NA 
HETATM   32  C   UNL     1      -6.812   8.846  62.578  1.00  0.00    -0.093 A  
ENDBRANCH  18  27
ENDBRANCH   9  17
ENDBRANCH   5   9
BRANCH   8  33
HETATM   33  O   UNL     1      -9.320  16.249  69.005  1.00  0.00    -0.238 OA 
HETATM   34  C   UNL     1      -8.795  15.856  67.746  1.00  0.00    -0.175 C  
ENDBRANCH   8  33
ENDBRANCH   2   3
TORSDOF 9
ENDMDL
MODEL       55
REMARK 921   NORMALIZED FREE ENERGY PREDICTED BY IDOCK:   -6.18 KCAL/MOL
REMARK 922        TOTAL FREE ENERGY PREDICTED BY IDOCK:  -10.60 KCAL/MOL
REMARK 923 INTER-LIGAND FREE ENERGY PREDICTED BY IDOCK:   -9.65 KCAL/MOL
REMARK 924 INTRA-LIGAND FREE ENERGY PREDICTED BY IDOCK:   -0.95 KCAL/MOL
REMARK 927      BINDING AFFINITY PREDICTED BY RF-SCORE:    0.00 PKD
ROOT
HETATM    1  C   UNL     1      -5.804  20.508  69.123  1.00  0.00    -0.357 C  
HETATM    2  O   UNL     1      -6.335  19.697  68.068  1.00  0.00    -0.215 OA 
ENDROOT
BRANCH   2   3
HETATM    3  C   UNL     1      -6.817  18.479  68.487  1.00  0.00    -0.264 A  
HETATM    4  C   UNL     1      -8.151  18.166  68.139  1.00  0.00    -0.289 A  
HETATM    5  C   UNL     1      -8.721  16.902  68.390  1.00  0.00    -0.244 A  
HETATM    6  C   UNL     1      -7.884  16.039  69.119  1.00  0.00    -0.233 A  
HETATM    7  C   UNL     1      -6.054  17.587  69.233  1.00  0.00    -0.232 A  
HETATM    8  C   UNL     1      -6.594  16.360  69.558  1.00  0.00    -0.210 A  
BRANCH   5   9
HETATM    9  N   UNL     1     -10.026  16.495  67.950  1.00  0.00    -0.240 NA 
BRANCH   9  10
HETATM   10  C   UNL     1     -11.204  16.708  68.851  1.00  0.00    -0.200 C  
BRANCH  10  11
HETATM   11  C   UNL     1     -11.735  15.493  69.654  1.00  0.00    -0.357 C  
BRANCH  11  12
HETATM   12  N   UNL     1     -13.064  15.603  70.254  1.00  0.00    -0.704 NA 
HETATM   13  H   UNL     1     -13.719  14.995  69.762  1.00  0.00     0.000 HD 
BRANCH  12  14
HETATM   14  C   UNL     1     -13.133  15.351  71.692  1.00  0.00    -0.459 C  
HETATM   15  C   UNL     1     -13.129  13.862  72.049  1.00  0.00    -0.480 C  
HETATM   16  C   UNL     1     -11.916  16.027  72.333  1.00  0.00    -0.644 C  
ENDBRANCH  12  14
ENDBRANCH  11  12
ENDBRANCH  10  11
ENDBRANCH   9  10
BRANCH   9  17
HETATM   17  C   UNL     1     -10.278  15.463  66.966  1.00  0.00    -0.262 A  
HETATM   18  C   UNL     1      -9.817  10.950  65.407  1.00  0.00    -0.255 A  
HETATM   19  C   UNL     1     -10.900  15.737  65.745  1.00  0.00    -0.286 A  
HETATM   20  C   UNL     1     -10.275  11.343  64.160  1.00  0.00    -0.324 A  
HETATM   21  N   UNL     1      -9.697  11.845  66.423  1.00  0.00    -0.216 NA 
HETATM   22  C   UNL     1     -10.052  13.125  66.170  1.00  0.00    -0.291 A  
HETATM   23  C   UNL     1     -10.978  14.791  64.715  1.00  0.00    -0.393 A  
HETATM   24  C   UNL     1     -10.554  13.494  64.904  1.00  0.00    -0.397 A  
HETATM   25  C   UNL     1      -9.909  14.112  67.157  1.00  0.00    -0.253 A  
HETATM   26  N   UNL     1     -10.658  12.613  63.890  1.00  0.00    -0.426 NA 
BRANCH  18  27
HETATM   27  C   UNL     1      -9.450   9.582  65.714  1.00  0.00    -0.314 A  
HETATM   28  N   UNL     1      -8.421   7.639  65.796  1.00  0.00    -0.141 NA 
HETATM   29  C   UNL     1      -8.346   8.891  65.254  1.00  0.00    -0.160 A  
HETATM   30  C   UNL     1      -7.496   6.550  65.605  1.00  0.00    -0.082 C  
HETATM   31  N   UNL     1      -9.502   7.458  66.577  1.00  0.00    -0.184 NA 
HETATM   32  C   UNL     1     -10.125   8.640  66.525  1.00  0.00    -0.269 A  
ENDBRANCH  18  27
ENDBRANCH   9  17
ENDBRANCH   5   9
BRANCH   8  33
HETATM   33  O   UNL     1      -5.980  15.371  70.277  1.00  0.00    -0.148 OA 
HETATM   34  C   UNL     1      -6.396  14.037  70.027  1.00  0.00    -0.118 C  
ENDBRANCH   8  33
ENDBRANCH   2   3
TORSDOF 9
ENDMDL
MODEL       56
REMARK 921   NORMALIZED FREE ENERGY PREDICTED BY IDOCK:   -6.17 KCAL/MOL
REMARK 922        TOTAL FREE ENERGY PREDICTED BY IDOCK:  -10.59 KCAL/MOL
REMARK 923 INTER-LIGAND FREE ENERGY PREDICTED BY IDOCK:   -9.08 KCAL/MOL
REMARK 924 INTRA-LIGAND FREE ENERGY PREDICTED BY IDOCK:   -1.51 KCAL/MOL
REMARK 927      BINDING AFFINITY PREDICTED BY RF-SCORE:    0.00 PKD
ROOT
HETATM    1  C   UNL     1      -7.828   7.327  73.062  1.00  0.00    -0.097 C  
HETATM    2  O   UNL     1      -7.737   8.189  71.921  1.00  0.00    -0.089 OA 
ENDROOT
BRANCH   2   3
HETATM    3  C   UNL     1      -8.948   8.689  71.501  1.00  0.00    -0.234 A  
HETATM    4  C   UNL     1      -8.947   9.445  70.306  1.00  0.00    -0.277 A  
HETATM    5  C   UNL     1     -10.134   9.898  69.697  1.00  0.00    -0.230 A  
HETATM    6  C   UNL     1     -11.293   9.635  70.450  1.00  0.00    -0.337 A  
HETATM    7  C   UNL     1     -10.128   8.489  72.208  1.00  0.00    -0.386 A  
HETATM    8  C   UNL     1     -11.309   8.972  71.684  1.00  0.00    -0.360 A  
BRANCH   5   9
HETATM    9  N   UNL     1     -10.196  10.562  68.426  1.00  0.00    -0.165 NA 
BRANCH   9  10
HETATM   10  C   UNL     1      -9.474   9.971  67.253  1.00  0.00    -0.154 C  
BRANCH  10  11
HETATM   11  C   UNL     1     -10.112   8.747  66.548  1.00  0.00    -0.279 C  
BRANCH  11  12
HETATM   12  N   UNL     1      -9.766   7.417  67.050  1.00  0.00    -0.177 NA 
HETATM   13  H   UNL     1      -9.257   7.500  67.931  1.00  0.00     0.000 HD 
BRANCH  12  14
HETATM   14  C   UNL     1     -10.883   6.487  67.204  1.00  0.00    -0.401 C  
HETATM   15  C   UNL     1     -10.628   5.120  66.565  1.00  0.00    -0.320 C  
HETATM   16  C   UNL     1     -11.122   6.306  68.707  1.00  0.00    -0.424 C  
ENDBRANCH  12  14
ENDBRANCH  11  12
ENDBRANCH  10  11
ENDBRANCH   9  10
BRANCH   9  17
HETATM   17  C   UNL     1     -10.448  11.977  68.247  1.00  0.00    -0.204 A  
HETATM   18  C   UNL     1      -9.049  16.556  68.522  1.00  0.00    -0.231 A  
HETATM   19  C   UNL     1     -11.705  12.466  67.876  1.00  0.00    -0.421 A  
HETATM   20  C   UNL     1     -10.360  16.959  68.328  1.00  0.00    -0.335 A  
HETATM   21  N   UNL     1      -8.719  15.239  68.551  1.00  0.00    -0.168 NA 
HETATM   22  C   UNL     1      -9.717  14.343  68.374  1.00  0.00    -0.226 A  
HETATM   23  C   UNL     1     -12.008  13.833  67.885  1.00  0.00    -0.391 A  
HETATM   24  C   UNL     1     -11.038  14.778  68.139  1.00  0.00    -0.278 A  
HETATM   25  C   UNL     1      -9.458  12.966  68.442  1.00  0.00    -0.162 A  
HETATM   26  N   UNL     1     -11.371  16.082  68.126  1.00  0.00    -0.325 NA 
BRANCH  18  27
HETATM   27  C   UNL     1      -7.955  17.493  68.692  1.00  0.00    -0.268 A  
HETATM   28  N   UNL     1      -6.717  19.311  68.717  1.00  0.00    -0.288 NA 
HETATM   29  C   UNL     1      -7.965  18.845  68.411  1.00  0.00    -0.338 A  
HETATM   30  C   UNL     1      -6.237  20.664  68.588  1.00  0.00    -0.306 C  
HETATM   31  N   UNL     1      -5.887  18.356  69.175  1.00  0.00    -0.213 NA 
HETATM   32  C   UNL     1      -6.642  17.253  69.158  1.00  0.00    -0.239 A  
ENDBRANCH  18  27
ENDBRANCH   9  17
ENDBRANCH   5   9
BRANCH   8  33
HETATM   33  O   UNL     1     -12.551   8.857  72.245  1.00  0.00    -0.377 OA 
HETATM   34  C   UNL     1     -13.476   9.904  71.992  1.00  0.00    -0.380 C  
ENDBRANCH   8  33
ENDBRANCH   2   3
TORSDOF 9
ENDMDL
MODEL       57
REMARK 921   NORMALIZED FREE ENERGY PREDICTED BY IDOCK:   -6.17 KCAL/MOL
REMARK 922        TOTAL FREE ENERGY PREDICTED BY IDOCK:  -10.58 KCAL/MOL
REMARK 923 INTER-LIGAND FREE ENERGY PREDICTED BY IDOCK:   -9.02 KCAL/MOL
REMARK 924 INTRA-LIGAND FREE ENERGY PREDICTED BY IDOCK:   -1.56 KCAL/MOL
REMARK 927      BINDING AFFINITY PREDICTED BY RF-SCORE:    0.00 PKD
ROOT
HETATM    1  C   UNL     1      -9.404   4.141  67.632  1.00  0.00    -0.170 C  
HETATM    2  O   UNL     1      -9.640   4.188  69.045  1.00  0.00    -0.170 OA 
ENDROOT
BRANCH   2   3
HETATM    3  C   UNL     1      -9.955   5.441  69.517  1.00  0.00    -0.219 A  
HETATM    4  C   UNL     1      -9.159   6.515  69.058  1.00  0.00    -0.132 A  
HETATM    5  C   UNL     1      -9.457   7.860  69.357  1.00  0.00    -0.156 A  
HETATM    6  C   UNL     1     -10.536   8.016  70.246  1.00  0.00    -0.231 A  
HETATM    7  C   UNL     1     -10.992   5.666  70.416  1.00  0.00    -0.278 A  
HETATM    8  C   UNL     1     -11.280   6.962  70.790  1.00  0.00    -0.294 A  
BRANCH   5   9
HETATM    9  N   UNL     1      -8.754   8.990  68.819  1.00  0.00    -0.135 NA 
BRANCH   9  10
HETATM   10  C   UNL     1      -7.971   9.876  69.740  1.00  0.00    -0.174 C  
BRANCH  10  11
HETATM   11  C   UNL     1      -6.994   9.204  70.739  1.00  0.00    -0.097 C  
BRANCH  11  12
HETATM   12  N   UNL     1      -7.382   9.170  72.149  1.00  0.00    -0.300 NA 
HETATM   13  H   UNL     1      -8.100   9.871  72.330  1.00  0.00     0.000 HD 
BRANCH  12  14
HETATM   14  C   UNL     1      -7.815   7.868  72.655  1.00  0.00    -0.120 C  
HETATM   15  C   UNL     1      -6.996   6.699  72.104  1.00  0.00    -0.072 C  
HETATM   16  C   UNL     1      -7.682   7.905  74.181  1.00  0.00    -0.233 C  
ENDBRANCH  12  14
ENDBRANCH  11  12
ENDBRANCH  10  11
ENDBRANCH   9  10
BRANCH   9  17
HETATM   17  C   UNL     1      -9.104   9.667  67.587  1.00  0.00    -0.131 A  
HETATM   18  C   UNL     1     -10.371  13.623  65.189  1.00  0.00    -0.364 A  
HETATM   19  C   UNL     1      -9.284   8.976  66.385  1.00  0.00    -0.239 A  
HETATM   20  C   UNL     1     -10.700  12.842  64.093  1.00  0.00    -0.412 A  
HETATM   21  N   UNL     1      -9.893  13.060  66.330  1.00  0.00    -0.275 NA 
HETATM   22  C   UNL     1      -9.743  11.716  66.347  1.00  0.00    -0.214 A  
HETATM   23  C   UNL     1      -9.804   9.591  65.239  1.00  0.00    -0.179 A  
HETATM   24  C   UNL     1     -10.047  10.946  65.205  1.00  0.00    -0.292 A  
HETATM   25  C   UNL     1      -9.301  11.064  67.507  1.00  0.00    -0.167 A  
HETATM   26  N   UNL     1     -10.537  11.498  64.078  1.00  0.00    -0.346 NA 
BRANCH  18  27
HETATM   27  C   UNL     1     -10.500  15.067  65.193  1.00  0.00    -0.438 A  
HETATM   28  N   UNL     1     -10.304  17.202  65.681  1.00  0.00    -0.601 NA 
HETATM   29  C   UNL     1      -9.875  15.957  66.045  1.00  0.00    -0.337 A  
HETATM   30  C   UNL     1      -9.935  18.460  66.281  1.00  0.00    -0.366 C  
HETATM   31  N   UNL     1     -11.171  17.191  64.652  1.00  0.00    -0.959 NA 
HETATM   32  C   UNL     1     -11.288  15.892  64.358  1.00  0.00    -0.267 A  
ENDBRANCH  18  27
ENDBRANCH   9  17
ENDBRANCH   5   9
BRANCH   8  33
HETATM   33  O   UNL     1     -12.265   7.355  71.655  1.00  0.00    -0.299 OA 
HETATM   34  C   UNL     1     -12.541   8.745  71.732  1.00  0.00    -0.356 C  
ENDBRANCH   8  33
ENDBRANCH   2   3
TORSDOF 9
ENDMDL
MODEL       58
REMARK 921   NORMALIZED FREE ENERGY PREDICTED BY IDOCK:   -6.16 KCAL/MOL
REMARK 922        TOTAL FREE ENERGY PREDICTED BY IDOCK:  -10.57 KCAL/MOL
REMARK 923 INTER-LIGAND FREE ENERGY PREDICTED BY IDOCK:   -8.93 KCAL/MOL
REMARK 924 INTRA-LIGAND FREE ENERGY PREDICTED BY IDOCK:   -1.64 KCAL/MOL
REMARK 927      BINDING AFFINITY PREDICTED BY RF-SCORE:    0.00 PKD
ROOT
HETATM    1  C   UNL     1      -6.817   8.129  71.149  1.00  0.00    -0.045 C  
HETATM    2  O   UNL     1      -7.811   8.618  72.058  1.00  0.00    -0.237 OA 
ENDROOT
BRANCH   2   3
HETATM    3  C   UNL     1      -9.033   8.855  71.475  1.00  0.00    -0.205 A  
HETATM    4  C   UNL     1      -9.070   8.895  70.062  1.00  0.00    -0.174 A  
HETATM    5  C   UNL     1     -10.275   8.996  69.339  1.00  0.00    -0.204 A  
HETATM    6  C   UNL     1     -11.409   9.173  70.152  1.00  0.00    -0.164 A  
HETATM    7  C   UNL     1     -10.191   9.064  72.217  1.00  0.00    -0.016 A  
HETATM    8  C   UNL     1     -11.387   9.232  71.551  1.00  0.00    -0.385 A  
BRANCH   5   9
HETATM    9  N   UNL     1     -10.376   8.919  67.909  1.00  0.00    -0.222 NA 
BRANCH   9  10
HETATM   10  C   UNL     1     -10.050   7.630  67.217  1.00  0.00    -0.237 C  
BRANCH  10  11
HETATM   11  C   UNL     1     -10.897   6.381  67.571  1.00  0.00    -0.354 C  
BRANCH  11  12
HETATM   12  N   UNL     1     -10.199   5.225  68.133  1.00  0.00    -0.162 NA 
HETATM   13  H   UNL     1      -9.449   4.932  67.507  1.00  0.00     0.000 HD 
BRANCH  12  14
HETATM   14  C   UNL     1      -9.678   5.396  69.489  1.00  0.00    -0.176 C  
HETATM   15  C   UNL     1     -10.774   5.515  70.550  1.00  0.00    -0.310 C  
HETATM   16  C   UNL     1      -8.803   4.177  69.799  1.00  0.00    -0.138 C  
ENDBRANCH  12  14
ENDBRANCH  11  12
ENDBRANCH  10  11
ENDBRANCH   9  10
BRANCH   9  17
HETATM   17  C   UNL     1     -10.270  10.053  67.014  1.00  0.00    -0.237 A  
HETATM   18  C   UNL     1     -10.428  14.775  66.190  1.00  0.00    -0.304 A  
HETATM   19  C   UNL     1     -10.110   9.898  65.634  1.00  0.00    -0.307 A  
HETATM   20  C   UNL     1     -10.449  14.528  64.827  1.00  0.00    -0.337 A  
HETATM   21  N   UNL     1     -10.376  13.755  67.085  1.00  0.00    -0.260 NA 
HETATM   22  C   UNL     1     -10.336  12.496  66.593  1.00  0.00    -0.227 A  
HETATM   23  C   UNL     1     -10.197  10.976  64.744  1.00  0.00    -0.381 A  
HETATM   24  C   UNL     1     -10.318  12.270  65.201  1.00  0.00    -0.286 A  
HETATM   25  C   UNL     1     -10.331  11.393  67.460  1.00  0.00    -0.224 A  
HETATM   26  N   UNL     1     -10.387  13.278  64.311  1.00  0.00    -0.390 NA 
BRANCH  18  27
HETATM   27  C   UNL     1     -10.447  16.114  66.746  1.00  0.00    -0.294 A  
HETATM   28  N   UNL     1     -10.394  18.299  66.991  1.00  0.00    -0.374 NA 
HETATM   29  C   UNL     1     -10.333  17.305  66.055  1.00  0.00    -0.305 A  
HETATM   30  C   UNL     1     -10.314  19.720  66.758  1.00  0.00    -0.482 C  
HETATM   31  N   UNL     1     -10.535  17.844  68.248  1.00  0.00    -0.374 NA 
HETATM   32  C   UNL     1     -10.566  16.515  68.097  1.00  0.00    -0.329 A  
ENDBRANCH  18  27
ENDBRANCH   9  17
ENDBRANCH   5   9
BRANCH   8  33
HETATM   33  O   UNL     1     -12.611   9.441  72.125  1.00  0.00    -0.368 OA 
HETATM   34  C   UNL     1     -13.229  10.697  71.892  1.00  0.00    -0.423 C  
ENDBRANCH   8  33
ENDBRANCH   2   3
TORSDOF 9
ENDMDL
MODEL       59
REMARK 921   NORMALIZED FREE ENERGY PREDICTED BY IDOCK:   -6.15 KCAL/MOL
REMARK 922        TOTAL FREE ENERGY PREDICTED BY IDOCK:  -10.55 KCAL/MOL
REMARK 923 INTER-LIGAND FREE ENERGY PREDICTED BY IDOCK:   -9.06 KCAL/MOL
REMARK 924 INTRA-LIGAND FREE ENERGY PREDICTED BY IDOCK:   -1.49 KCAL/MOL
REMARK 927      BINDING AFFINITY PREDICTED BY RF-SCORE:    0.00 PKD
ROOT
HETATM    1  C   UNL     1      -6.243  14.946  69.463  1.00  0.00    -0.123 C  
HETATM    2  O   UNL     1      -6.259  15.393  68.102  1.00  0.00    -0.106 OA 
ENDROOT
BRANCH   2   3
HETATM    3  C   UNL     1      -7.424  15.101  67.432  1.00  0.00    -0.210 A  
HETATM    4  C   UNL     1      -7.937  13.793  67.582  1.00  0.00    -0.179 A  
HETATM    5  C   UNL     1      -9.187  13.405  67.061  1.00  0.00    -0.242 A  
HETATM    6  C   UNL     1      -9.808  14.400  66.283  1.00  0.00    -0.321 A  
HETATM    7  C   UNL     1      -8.078  16.027  66.625  1.00  0.00    -0.311 A  
HETATM    8  C   UNL     1      -9.275  15.671  66.040  1.00  0.00    -0.339 A  
BRANCH   5   9
HETATM    9  N   UNL     1      -9.806  12.130  67.288  1.00  0.00    -0.195 NA 
BRANCH   9  10
HETATM   10  C   UNL     1     -10.212  11.291  66.115  1.00  0.00    -0.245 C  
BRANCH  10  11
HETATM   11  C   UNL     1      -9.350  10.049  65.775  1.00  0.00    -0.189 C  
BRANCH  11  12
HETATM   12  N   UNL     1      -9.994   8.737  65.838  1.00  0.00    -0.454 NA 
HETATM   13  H   UNL     1     -10.223   8.416  64.897  1.00  0.00     0.000 HD 
BRANCH  12  14
HETATM   14  C   UNL     1      -9.250   7.700  66.552  1.00  0.00    -0.176 C  
HETATM   15  C   UNL     1      -7.934   8.200  67.151  1.00  0.00    -0.105 C  
HETATM   16  C   UNL     1     -10.153   7.183  67.677  1.00  0.00    -0.229 C  
ENDBRANCH  12  14
ENDBRANCH  11  12
ENDBRANCH  10  11
ENDBRANCH   9  10
BRANCH   9  17
HETATM   17  C   UNL     1     -10.534  11.770  68.487  1.00  0.00    -0.215 A  
HETATM   18  C   UNL     1     -11.599   8.652  71.972  1.00  0.00    -0.370 A  
HETATM   19  C   UNL     1     -11.534  12.588  69.021  1.00  0.00    -0.355 A  
HETATM   20  C   UNL     1     -12.687   9.433  72.326  1.00  0.00    -0.341 A  
HETATM   21  N   UNL     1     -10.784   9.012  70.947  1.00  0.00    -0.232 NA 
HETATM   22  C   UNL     1     -11.071  10.163  70.297  1.00  0.00    -0.317 A  
HETATM   23  C   UNL     1     -12.370  12.165  70.063  1.00  0.00    -0.167 A  
HETATM   24  C   UNL     1     -12.161  10.962  70.701  1.00  0.00    -0.376 A  
HETATM   25  C   UNL     1     -10.301  10.571  69.198  1.00  0.00    -0.240 A  
HETATM   26  N   UNL     1     -12.981  10.600  71.706  1.00  0.00    -0.471 NA 
BRANCH  18  27
HETATM   27  C   UNL     1     -11.253   7.426  72.664  1.00  0.00    -0.379 A  
HETATM   28  N   UNL     1     -11.118   5.322  73.292  1.00  0.00    -0.311 NA 
HETATM   29  C   UNL     1     -11.697   6.151  72.372  1.00  0.00    -0.272 A  
HETATM   30  C   UNL     1     -11.280   3.894  73.401  1.00  0.00    -0.199 C  
HETATM   31  N   UNL     1     -10.329   5.966  74.171  1.00  0.00    -0.282 NA 
HETATM   32  C   UNL     1     -10.413   7.244  73.787  1.00  0.00    -0.288 A  
ENDBRANCH  18  27
ENDBRANCH   9  17
ENDBRANCH   5   9
BRANCH   8  33
HETATM   33  O   UNL     1     -10.044  16.459  65.228  1.00  0.00    -0.545 OA 
HETATM   34  C   UNL     1     -11.121  15.831  64.548  1.00  0.00    -0.277 C  
ENDBRANCH   8  33
ENDBRANCH   2   3
TORSDOF 9
ENDMDL
MODEL       60
REMARK 921   NORMALIZED FREE ENERGY PREDICTED BY IDOCK:   -6.15 KCAL/MOL
REMARK 922        TOTAL FREE ENERGY PREDICTED BY IDOCK:  -10.55 KCAL/MOL
REMARK 923 INTER-LIGAND FREE ENERGY PREDICTED BY IDOCK:   -9.34 KCAL/MOL
REMARK 924 INTRA-LIGAND FREE ENERGY PREDICTED BY IDOCK:   -1.21 KCAL/MOL
REMARK 927      BINDING AFFINITY PREDICTED BY RF-SCORE:    0.00 PKD
ROOT
HETATM    1  C   UNL     1     -11.438   4.840  73.360  1.00  0.00    -0.244 C  
HETATM    2  O   UNL     1     -11.922   5.741  72.355  1.00  0.00    -0.275 OA 
ENDROOT
BRANCH   2   3
HETATM    3  C   UNL     1     -10.928   6.340  71.617  1.00  0.00    -0.261 A  
HETATM    4  C   UNL     1     -11.304   6.896  70.373  1.00  0.00    -0.376 A  
HETATM    5  C   UNL     1     -10.415   7.653  69.583  1.00  0.00    -0.235 A  
HETATM    6  C   UNL     1      -9.104   7.695  70.090  1.00  0.00    -0.150 A  
HETATM    7  C   UNL     1      -9.606   6.396  72.045  1.00  0.00    -0.157 A  
HETATM    8  C   UNL     1      -8.685   7.072  71.272  1.00  0.00    -0.130 A  
BRANCH   5   9
HETATM    9  N   UNL     1     -10.780   8.337  68.375  1.00  0.00    -0.088 NA 
BRANCH   9  10
HETATM   10  C   UNL     1     -10.470   7.707  67.051  1.00  0.00    -0.349 C  
BRANCH  10  11
HETATM   11  C   UNL     1     -10.747   6.191  66.884  1.00  0.00    -0.340 C  
BRANCH  11  12
HETATM   12  N   UNL     1     -10.026   5.481  65.829  1.00  0.00    -0.380 NA 
HETATM   13  H   UNL     1      -9.141   5.949  65.636  1.00  0.00     0.000 HD 
BRANCH  12  14
HETATM   14  C   UNL     1      -9.795   4.057  66.067  1.00  0.00    -0.166 C  
HETATM   15  C   UNL     1      -8.552   3.516  65.357  1.00  0.00    -0.113 C  
HETATM   16  C   UNL     1      -9.636   3.867  67.579  1.00  0.00    -0.212 C  
ENDBRANCH  12  14
ENDBRANCH  11  12
ENDBRANCH  10  11
ENDBRANCH   9  10
BRANCH   9  17
HETATM   17  C   UNL     1     -10.956   9.771  68.262  1.00  0.00    -0.164 A  
HETATM   18  C   UNL     1     -12.362  13.980  70.080  1.00  0.00    -0.345 A  
HETATM   19  C   UNL     1     -10.715  10.456  67.068  1.00  0.00    -0.298 A  
HETATM   20  C   UNL     1     -12.270  14.546  68.819  1.00  0.00    -0.138 A  
HETATM   21  N   UNL     1     -12.065  12.670  70.283  1.00  0.00    -0.341 NA 
HETATM   22  C   UNL     1     -11.668  11.948  69.210  1.00  0.00    -0.328 A  
HETATM   23  C   UNL     1     -11.062  11.802  66.895  1.00  0.00    -0.361 A  
HETATM   24  C   UNL     1     -11.544  12.555  67.943  1.00  0.00    -0.347 A  
HETATM   25  C   UNL     1     -11.393  10.579  69.337  1.00  0.00    -0.331 A  
HETATM   26  N   UNL     1     -11.855  13.849  67.735  1.00  0.00    -0.364 NA 
BRANCH  18  27
HETATM   27  C   UNL     1     -12.762  14.734  71.252  1.00  0.00    -0.407 A  
HETATM   28  N   UNL     1     -12.770  15.789  73.183  1.00  0.00    -0.453 NA 
HETATM   29  C   UNL     1     -11.963  15.106  72.316  1.00  0.00    -0.396 A  
HETATM   30  C   UNL     1     -12.395  16.373  74.446  1.00  0.00    -0.423 C  
HETATM   31  N   UNL     1     -14.045  15.886  72.764  1.00  0.00    -0.474 NA 
HETATM   32  C   UNL     1     -14.037  15.244  71.591  1.00  0.00    -0.541 A  
ENDBRANCH  18  27
ENDBRANCH   9  17
ENDBRANCH   5   9
BRANCH   8  33
HETATM   33  O   UNL     1      -7.354   7.226  71.549  1.00  0.00    -0.078 OA 
HETATM   34  C   UNL     1      -7.014   7.730  72.832  1.00  0.00    -0.077 C  
ENDBRANCH   8  33
ENDBRANCH   2   3
TORSDOF 9
ENDMDL
MODEL       61
REMARK 921   NORMALIZED FREE ENERGY PREDICTED BY IDOCK:   -6.14 KCAL/MOL
REMARK 922        TOTAL FREE ENERGY PREDICTED BY IDOCK:  -10.54 KCAL/MOL
REMARK 923 INTER-LIGAND FREE ENERGY PREDICTED BY IDOCK:   -9.04 KCAL/MOL
REMARK 924 INTRA-LIGAND FREE ENERGY PREDICTED BY IDOCK:   -1.50 KCAL/MOL
REMARK 927      BINDING AFFINITY PREDICTED BY RF-SCORE:    0.00 PKD
ROOT
HETATM    1  C   UNL     1     -10.690   9.332  71.429  1.00  0.00    -0.362 C  
HETATM    2  O   UNL     1     -10.556  10.084  70.216  1.00  0.00    -0.275 OA 
ENDROOT
BRANCH   2   3
HETATM    3  C   UNL     1     -10.580   9.315  69.076  1.00  0.00    -0.205 A  
HETATM    4  C   UNL     1     -10.429   9.993  67.845  1.00  0.00    -0.276 A  
HETATM    5  C   UNL     1     -10.302   9.313  66.617  1.00  0.00    -0.222 A  
HETATM    6  C   UNL     1     -10.462   7.920  66.723  1.00  0.00    -0.317 A  
HETATM    7  C   UNL     1     -10.760   7.937  69.105  1.00  0.00    -0.130 A  
HETATM    8  C   UNL     1     -10.709   7.234  67.919  1.00  0.00    -0.172 A  
BRANCH   5   9
HETATM    9  N   UNL     1     -10.026   9.947  65.359  1.00  0.00    -0.316 NA 
BRANCH   9  10
HETATM   10  C   UNL     1      -8.818   9.530  64.576  1.00  0.00    -0.213 C  
BRANCH  10  11
HETATM   11  C   UNL     1      -7.488   9.324  65.345  1.00  0.00    -0.098 C  
BRANCH  11  12
HETATM   12  N   UNL     1      -6.776  10.516  65.802  1.00  0.00    -0.140 NA 
HETATM   13  H   UNL     1      -6.933  11.287  65.153  1.00  0.00     0.000 HD 
BRANCH  12  14
HETATM   14  C   UNL     1      -7.072  10.947  67.168  1.00  0.00    -0.103 C  
HETATM   15  C   UNL     1      -6.602   9.953  68.233  1.00  0.00    -0.055 C  
HETATM   16  C   UNL     1      -6.369  12.291  67.386  1.00  0.00    -0.152 C  
ENDBRANCH  12  14
ENDBRANCH  11  12
ENDBRANCH  10  11
ENDBRANCH   9  10
BRANCH   9  17
HETATM   17  C   UNL     1     -10.480  11.271  64.987  1.00  0.00    -0.298 A  
HETATM   18  C   UNL     1     -10.488  16.029  65.598  1.00  0.00    -0.397 A  
HETATM   19  C   UNL     1     -11.474  11.472  64.026  1.00  0.00    -0.331 A  
HETATM   20  C   UNL     1     -11.595  16.124  64.770  1.00  0.00    -0.056 A  
HETATM   21  N   UNL     1      -9.920  14.825  65.870  1.00  0.00    -0.308 NA 
HETATM   22  C   UNL     1     -10.470  13.732  65.294  1.00  0.00    -0.363 A  
HETATM   23  C   UNL     1     -12.051  12.728  63.796  1.00  0.00    -0.596 A  
HETATM   24  C   UNL     1     -11.572  13.858  64.423  1.00  0.00    -0.382 A  
HETATM   25  C   UNL     1      -9.965  12.452  65.569  1.00  0.00    -0.260 A  
HETATM   26  N   UNL     1     -12.149  15.047  64.164  1.00  0.00    -0.535 NA 
BRANCH  18  27
HETATM   27  C   UNL     1      -9.864  17.184  66.211  1.00  0.00    -0.306 A  
HETATM   28  N   UNL     1      -9.432  19.217  66.931  1.00  0.00    -0.312 NA 
HETATM   29  C   UNL     1     -10.367  18.469  66.272  1.00  0.00    -0.427 A  
HETATM   30  C   UNL     1      -9.501  20.624  67.237  1.00  0.00    -0.379 C  
HETATM   31  N   UNL     1      -8.348  18.513  67.303  1.00  0.00    -0.251 NA 
HETATM   32  C   UNL     1      -8.613  17.278  66.863  1.00  0.00    -0.240 A  
ENDBRANCH  18  27
ENDBRANCH   9  17
ENDBRANCH   5   9
BRANCH   8  33
HETATM   33  O   UNL     1     -10.859   5.882  67.772  1.00  0.00    -0.273 OA 
HETATM   34  C   UNL     1     -10.394   5.307  66.561  1.00  0.00    -0.285 C  
ENDBRANCH   8  33
ENDBRANCH   2   3
TORSDOF 9
ENDMDL
MODEL       62
REMARK 921   NORMALIZED FREE ENERGY PREDICTED BY IDOCK:   -6.13 KCAL/MOL
REMARK 922        TOTAL FREE ENERGY PREDICTED BY IDOCK:  -10.53 KCAL/MOL
REMARK 923 INTER-LIGAND FREE ENERGY PREDICTED BY IDOCK:   -9.74 KCAL/MOL
REMARK 924 INTRA-LIGAND FREE ENERGY PREDICTED BY IDOCK:   -0.79 KCAL/MOL
REMARK 927      BINDING AFFINITY PREDICTED BY RF-SCORE:    0.00 PKD
ROOT
HETATM    1  C   UNL     1     -10.418  20.338  67.738  1.00  0.00    -0.182 C  
HETATM    2  O   UNL     1     -10.053  19.825  66.450  1.00  0.00    -0.412 OA 
ENDROOT
BRANCH   2   3
HETATM    3  C   UNL     1      -9.318  18.664  66.499  1.00  0.00    -0.320 A  
HETATM    4  C   UNL     1     -10.008  17.487  66.869  1.00  0.00    -0.313 A  
HETATM    5  C   UNL     1      -9.407  16.213  66.828  1.00  0.00    -0.234 A  
HETATM    6  C   UNL     1      -8.038  16.243  66.506  1.00  0.00    -0.337 A  
HETATM    7  C   UNL     1      -7.957  18.625  66.218  1.00  0.00    -0.276 A  
HETATM    8  C   UNL     1      -7.310  17.407  66.229  1.00  0.00    -0.312 A  
BRANCH   5   9
HETATM    9  N   UNL     1     -10.096  14.978  67.077  1.00  0.00    -0.241 NA 
BRANCH   9  10
HETATM   10  C   UNL     1     -10.657  14.205  65.922  1.00  0.00    -0.298 C  
BRANCH  10  11
HETATM   11  C   UNL     1     -10.237  12.721  65.768  1.00  0.00    -0.289 C  
BRANCH  11  12
HETATM   12  N   UNL     1      -8.812  12.405  65.858  1.00  0.00    -0.388 NA 
HETATM   13  H   UNL     1      -8.340  13.089  66.450  1.00  0.00     0.000 HD 
BRANCH  12  14
HETATM   14  C   UNL     1      -8.489  11.051  66.304  1.00  0.00    -0.165 C  
HETATM   15  C   UNL     1      -7.658  11.017  67.590  1.00  0.00    -0.104 C  
HETATM   16  C   UNL     1      -9.815  10.320  66.540  1.00  0.00    -0.265 C  
ENDBRANCH  12  14
ENDBRANCH  11  12
ENDBRANCH  10  11
ENDBRANCH   9  10
BRANCH   9  17
HETATM   17  C   UNL     1     -10.749  14.636  68.324  1.00  0.00    -0.239 A  
HETATM   18  C   UNL     1     -12.773  11.426  71.257  1.00  0.00    -0.393 A  
HETATM   19  C   UNL     1     -11.134  15.609  69.251  1.00  0.00    -0.293 A  
HETATM   20  C   UNL     1     -13.275  12.461  72.029  1.00  0.00    -0.409 A  
HETATM   21  N   UNL     1     -12.024  11.678  70.152  1.00  0.00    -0.349 NA 
HETATM   22  C   UNL     1     -11.780  12.972  69.845  1.00  0.00    -0.256 A  
HETATM   23  C   UNL     1     -11.930  15.308  70.364  1.00  0.00    -0.374 A  
HETATM   24  C   UNL     1     -12.268  14.008  70.669  1.00  0.00    -0.372 A  
HETATM   25  C   UNL     1     -11.056  13.306  68.692  1.00  0.00    -0.301 A  
HETATM   26  N   UNL     1     -13.026  13.763  71.755  1.00  0.00    -0.350 NA 
BRANCH  18  27
HETATM   27  C   UNL     1     -12.998  10.029  71.572  1.00  0.00    -0.535 A  
HETATM   28  N   UNL     1     -12.786   7.849  71.771  1.00  0.00    -0.322 NA 
HETATM   29  C   UNL     1     -12.155   8.968  71.304  1.00  0.00    -0.314 A  
HETATM   30  C   UNL     1     -12.304   6.491  71.716  1.00  0.00    -0.287 C  
HETATM   31  N   UNL     1     -13.987   8.101  72.323  1.00  0.00    -0.236 NA 
HETATM   32  C   UNL     1     -14.113   9.427  72.200  1.00  0.00    -0.211 A  
ENDBRANCH  18  27
ENDBRANCH   9  17
ENDBRANCH   5   9
BRANCH   8  33
HETATM   33  O   UNL     1      -5.983  17.193  65.971  1.00  0.00    -0.228 OA 
HETATM   34  C   UNL     1      -5.296  18.196  65.238  1.00  0.00    -0.131 C  
ENDBRANCH   8  33
ENDBRANCH   2   3
TORSDOF 9
ENDMDL
MODEL       63
REMARK 921   NORMALIZED FREE ENERGY PREDICTED BY IDOCK:   -6.11 KCAL/MOL
REMARK 922        TOTAL FREE ENERGY PREDICTED BY IDOCK:  -10.50 KCAL/MOL
REMARK 923 INTER-LIGAND FREE ENERGY PREDICTED BY IDOCK:   -9.44 KCAL/MOL
REMARK 924 INTRA-LIGAND FREE ENERGY PREDICTED BY IDOCK:   -1.06 KCAL/MOL
REMARK 927      BINDING AFFINITY PREDICTED BY RF-SCORE:    0.00 PKD
ROOT
HETATM    1  C   UNL     1     -10.130  18.268  66.507  1.00  0.00    -0.385 C  
HETATM    2  O   UNL     1     -10.564  16.982  66.965  1.00  0.00    -0.303 OA 
ENDROOT
BRANCH   2   3
HETATM    3  C   UNL     1      -9.540  16.086  67.168  1.00  0.00    -0.218 A  
HETATM    4  C   UNL     1      -9.906  14.758  67.482  1.00  0.00    -0.218 A  
HETATM    5  C   UNL     1      -8.962  13.716  67.582  1.00  0.00    -0.202 A  
HETATM    6  C   UNL     1      -7.629  14.148  67.462  1.00  0.00    -0.200 A  
HETATM    7  C   UNL     1      -8.199  16.449  67.091  1.00  0.00    -0.209 A  
HETATM    8  C   UNL     1      -7.236  15.475  67.247  1.00  0.00    -0.207 A  
BRANCH   5   9
HETATM    9  N   UNL     1      -9.292  12.333  67.777  1.00  0.00    -0.187 NA 
BRANCH   9  10
HETATM   10  C   UNL     1      -9.206  11.386  66.619  1.00  0.00    -0.181 C  
BRANCH  10  11
HETATM   11  C   UNL     1     -10.298  11.476  65.522  1.00  0.00    -0.273 C  
BRANCH  11  12
HETATM   12  N   UNL     1     -10.249  12.616  64.608  1.00  0.00    -0.432 NA 
HETATM   13  H   UNL     1      -9.840  12.332  63.718  1.00  0.00     0.000 HD 
BRANCH  12  14
HETATM   14  C   UNL     1     -11.522  13.297  64.376  1.00  0.00    -0.379 C  
HETATM   15  C   UNL     1     -12.290  12.755  63.168  1.00  0.00    -0.278 C  
HETATM   16  C   UNL     1     -12.372  13.117  65.638  1.00  0.00    -0.519 C  
ENDBRANCH  12  14
ENDBRANCH  11  12
ENDBRANCH  10  11
ENDBRANCH   9  10
BRANCH   9  17
HETATM   17  C   UNL     1     -10.169  11.834  68.817  1.00  0.00    -0.160 A  
HETATM   18  C   UNL     1     -11.445   8.444  71.960  1.00  0.00    -0.349 A  
HETATM   19  C   UNL     1     -11.334  12.509  69.192  1.00  0.00    -0.331 A  
HETATM   20  C   UNL     1     -12.662   9.082  72.141  1.00  0.00    -0.401 A  
HETATM   21  N   UNL     1     -10.514   8.944  71.107  1.00  0.00    -0.242 NA 
HETATM   22  C   UNL     1     -10.817  10.088  70.453  1.00  0.00    -0.318 A  
HETATM   23  C   UNL     1     -12.281  11.945  70.056  1.00  0.00    -0.291 A  
HETATM   24  C   UNL     1     -12.046  10.741  70.683  1.00  0.00    -0.370 A  
HETATM   25  C   UNL     1      -9.923  10.633  69.520  1.00  0.00    -0.138 A  
HETATM   26  N   UNL     1     -12.979  10.240  71.516  1.00  0.00    -0.417 NA 
BRANCH  18  27
HETATM   27  C   UNL     1     -11.083   7.230  72.664  1.00  0.00    -0.355 A  
HETATM   28  N   UNL     1     -10.831   5.125  73.251  1.00  0.00    -0.268 NA 
HETATM   29  C   UNL     1     -11.352   5.931  72.278  1.00  0.00    -0.298 A  
HETATM   30  C   UNL     1     -10.866   3.684  73.299  1.00  0.00    -0.193 C  
HETATM   31  N   UNL     1     -10.243   5.804  74.252  1.00  0.00    -0.267 NA 
HETATM   32  C   UNL     1     -10.398   7.083  73.893  1.00  0.00    -0.348 A  
ENDBRANCH  18  27
ENDBRANCH   9  17
ENDBRANCH   5   9
BRANCH   8  33
HETATM   33  O   UNL     1      -5.881  15.660  67.194  1.00  0.00    -0.329 OA 
HETATM   34  C   UNL     1      -5.418  16.974  66.923  1.00  0.00    -0.169 C  
ENDBRANCH   8  33
ENDBRANCH   2   3
TORSDOF 9
ENDMDL
MODEL       64
REMARK 921   NORMALIZED FREE ENERGY PREDICTED BY IDOCK:   -6.10 KCAL/MOL
REMARK 922        TOTAL FREE ENERGY PREDICTED BY IDOCK:  -10.48 KCAL/MOL
REMARK 923 INTER-LIGAND FREE ENERGY PREDICTED BY IDOCK:   -9.49 KCAL/MOL
REMARK 924 INTRA-LIGAND FREE ENERGY PREDICTED BY IDOCK:   -0.99 KCAL/MOL
REMARK 927      BINDING AFFINITY PREDICTED BY RF-SCORE:    0.00 PKD
ROOT
HETATM    1  C   UNL     1     -10.294   8.725  70.703  1.00  0.00    -0.209 C  
HETATM    2  O   UNL     1      -9.248   9.402  69.996  1.00  0.00    -0.184 OA 
ENDROOT
BRANCH   2   3
HETATM    3  C   UNL     1      -9.687  10.141  68.922  1.00  0.00    -0.187 A  
HETATM    4  C   UNL     1     -10.192  11.432  69.198  1.00  0.00    -0.084 A  
HETATM    5  C   UNL     1     -10.548  12.339  68.180  1.00  0.00    -0.214 A  
HETATM    6  C   UNL     1     -10.469  11.795  66.885  1.00  0.00    -0.256 A  
HETATM    7  C   UNL     1      -9.663   9.657  67.618  1.00  0.00    -0.182 A  
HETATM    8  C   UNL     1     -10.064  10.487  66.592  1.00  0.00    -0.222 A  
BRANCH   5   9
HETATM    9  N   UNL     1     -10.949  13.699  68.404  1.00  0.00    -0.252 NA 
BRANCH   9  10
HETATM   10  C   UNL     1     -12.359  13.990  68.819  1.00  0.00    -0.039 C  
BRANCH  10  11
HETATM   11  C   UNL     1     -12.642  15.333  69.541  1.00  0.00     0.014 C  
BRANCH  11  12
HETATM   12  N   UNL     1     -13.741  15.367  70.505  1.00  0.00    -0.770 NA 
HETATM   13  H   UNL     1     -14.278  14.501  70.452  1.00  0.00     0.000 HD 
BRANCH  12  14
HETATM   14  C   UNL     1     -13.361  15.634  71.891  1.00  0.00    -0.450 C  
HETATM   15  C   UNL     1     -13.607  14.448  72.827  1.00  0.00    -0.531 C  
HETATM   16  C   UNL     1     -11.868  15.980  71.896  1.00  0.00    -0.619 C  
ENDBRANCH  12  14
ENDBRANCH  11  12
ENDBRANCH  10  11
ENDBRANCH   9  10
BRANCH   9  17
HETATM   17  C   UNL     1     -10.314  14.854  67.803  1.00  0.00    -0.244 A  
HETATM   18  C   UNL     1      -7.696  18.858  68.154  1.00  0.00    -0.287 A  
HETATM   19  C   UNL     1     -10.492  15.183  66.456  1.00  0.00    -0.292 A  
HETATM   20  C   UNL     1      -8.069  19.204  66.866  1.00  0.00    -0.263 A  
HETATM   21  N   UNL     1      -8.140  17.708  68.726  1.00  0.00    -0.267 NA 
HETATM   22  C   UNL     1      -8.946  16.915  67.984  1.00  0.00    -0.224 A  
HETATM   23  C   UNL     1     -10.040  16.393  65.915  1.00  0.00    -0.370 A  
HETATM   24  C   UNL     1      -9.280  17.268  66.660  1.00  0.00    -0.257 A  
HETATM   25  C   UNL     1      -9.481  15.737  68.528  1.00  0.00    -0.201 A  
HETATM   26  N   UNL     1      -8.857  18.416  66.097  1.00  0.00    -0.493 NA 
BRANCH  18  27
HETATM   27  C   UNL     1      -6.815  19.676  68.964  1.00  0.00    -0.378 A  
HETATM   28  N   UNL     1      -5.698  20.549  70.646  1.00  0.00    -0.509 NA 
HETATM   29  C   UNL     1      -6.590  19.565  70.323  1.00  0.00    -0.006 A  
HETATM   30  C   UNL     1      -5.158  20.841  71.950  1.00  0.00    -0.161 C  
HETATM   31  N   UNL     1      -5.325  21.301  69.594  1.00  0.00    -0.392 NA 
HETATM   32  C   UNL     1      -6.006  20.768  68.574  1.00  0.00    -0.353 A  
ENDBRANCH  18  27
ENDBRANCH   9  17
ENDBRANCH   5   9
BRANCH   8  33
HETATM   33  O   UNL     1     -10.095  10.172  65.261  1.00  0.00    -0.319 OA 
HETATM   34  C   UNL     1      -9.979  11.245  64.339  1.00  0.00    -0.288 C  
ENDBRANCH   8  33
ENDBRANCH   2   3
TORSDOF 9
ENDMDL
MODEL       65
REMARK 921   NORMALIZED FREE ENERGY PREDICTED BY IDOCK:   -6.09 KCAL/MOL
REMARK 922        TOTAL FREE ENERGY PREDICTED BY IDOCK:  -10.46 KCAL/MOL
REMARK 923 INTER-LIGAND FREE ENERGY PREDICTED BY IDOCK:   -8.79 KCAL/MOL
REMARK 924 INTRA-LIGAND FREE ENERGY PREDICTED BY IDOCK:   -1.67 KCAL/MOL
REMARK 927      BINDING AFFINITY PREDICTED BY RF-SCORE:    0.00 PKD
ROOT
HETATM    1  C   UNL     1     -11.458   6.974  70.293  1.00  0.00    -0.287 C  
HETATM    2  O   UNL     1     -11.501   7.882  71.401  1.00  0.00    -0.251 OA 
ENDROOT
BRANCH   2   3
HETATM    3  C   UNL     1     -11.631   9.202  71.036  1.00  0.00    -0.306 A  
HETATM    4  C   UNL     1     -10.845   9.644  69.947  1.00  0.00    -0.287 A  
HETATM    5  C   UNL     1     -10.980  10.930  69.388  1.00  0.00    -0.252 A  
HETATM    6  C   UNL     1     -11.874  11.760  70.090  1.00  0.00    -0.408 A  
HETATM    7  C   UNL     1     -12.475  10.085  71.700  1.00  0.00    -0.513 A  
HETATM    8  C   UNL     1     -12.592  11.376  71.229  1.00  0.00    -0.374 A  
BRANCH   5   9
HETATM    9  N   UNL     1     -10.296  11.384  68.211  1.00  0.00    -0.186 NA 
BRANCH   9  10
HETATM   10  C   UNL     1     -10.526  10.679  66.909  1.00  0.00    -0.249 C  
BRANCH  10  11
HETATM   11  C   UNL     1     -10.848  11.541  65.661  1.00  0.00    -0.252 C  
BRANCH  11  12
HETATM   12  N   UNL     1     -12.155  12.194  65.605  1.00  0.00    -0.534 NA 
HETATM   13  H   UNL     1     -12.760  11.826  66.339  1.00  0.00     0.000 HD 
BRANCH  12  14
HETATM   14  C   UNL     1     -12.136  13.655  65.660  1.00  0.00    -0.425 C  
HETATM   15  C   UNL     1     -12.270  14.211  67.080  1.00  0.00    -0.374 C  
HETATM   16  C   UNL     1     -10.804  14.117  65.060  1.00  0.00    -0.408 C  
ENDBRANCH  12  14
ENDBRANCH  11  12
ENDBRANCH  10  11
ENDBRANCH   9  10
BRANCH   9  17
HETATM   17  C   UNL     1      -9.044  12.112  68.216  1.00  0.00    -0.191 A  
HETATM   18  C   UNL     1      -6.574  16.213  67.928  1.00  0.00    -0.139 A  
HETATM   19  C   UNL     1      -7.807  11.461  68.241  1.00  0.00    -0.132 A  
HETATM   20  C   UNL     1      -5.404  15.488  67.775  1.00  0.00    -0.101 A  
HETATM   21  N   UNL     1      -7.770  15.587  68.078  1.00  0.00    -0.123 NA 
HETATM   22  C   UNL     1      -7.770  14.235  68.083  1.00  0.00    -0.141 A  
HETATM   23  C   UNL     1      -6.598  12.143  68.055  1.00  0.00    -0.069 A  
HETATM   24  C   UNL     1      -6.561  13.518  67.966  1.00  0.00    -0.137 A  
HETATM   25  C   UNL     1      -8.974  13.523  68.185  1.00  0.00    -0.187 A  
HETATM   26  N   UNL     1      -5.375  14.135  67.799  1.00  0.00    -0.303 NA 
BRANCH  18  27
HETATM   27  C   UNL     1      -6.603  17.663  67.949  1.00  0.00    -0.190 A  
HETATM   28  N   UNL     1      -6.515  19.785  67.377  1.00  0.00    -0.194 NA 
HETATM   29  C   UNL     1      -6.406  18.516  66.881  1.00  0.00    -0.178 A  
HETATM   30  C   UNL     1      -6.382  21.020  66.646  1.00  0.00    -0.296 C  
HETATM   31  N   UNL     1      -6.765  19.823  68.698  1.00  0.00    -0.295 NA 
HETATM   32  C   UNL     1      -6.817  18.533  69.043  1.00  0.00    -0.274 A  
ENDBRANCH  18  27
ENDBRANCH   9  17
ENDBRANCH   5   9
BRANCH   8  33
HETATM   33  O   UNL     1     -13.378  12.362  71.758  1.00  0.00    -0.414 OA 
HETATM   34  C   UNL     1     -13.112  13.694  71.345  1.00  0.00    -0.319 C  
ENDBRANCH   8  33
ENDBRANCH   2   3
TORSDOF 9
ENDMDL
MODEL       66
REMARK 921   NORMALIZED FREE ENERGY PREDICTED BY IDOCK:   -6.08 KCAL/MOL
REMARK 922        TOTAL FREE ENERGY PREDICTED BY IDOCK:  -10.45 KCAL/MOL
REMARK 923 INTER-LIGAND FREE ENERGY PREDICTED BY IDOCK:   -9.04 KCAL/MOL
REMARK 924 INTRA-LIGAND FREE ENERGY PREDICTED BY IDOCK:   -1.41 KCAL/MOL
REMARK 927      BINDING AFFINITY PREDICTED BY RF-SCORE:    0.00 PKD
ROOT
HETATM    1  C   UNL     1     -13.068  11.559  71.623  1.00  0.00    -0.373 C  
HETATM    2  O   UNL     1     -13.144  10.142  71.825  1.00  0.00    -0.403 OA 
ENDROOT
BRANCH   2   3
HETATM    3  C   UNL     1     -11.966   9.478  71.575  1.00  0.00    -0.399 A  
HETATM    4  C   UNL     1     -11.310   9.778  70.359  1.00  0.00    -0.362 A  
HETATM    5  C   UNL     1     -10.034   9.271  70.043  1.00  0.00    -0.209 A  
HETATM    6  C   UNL     1      -9.540   8.352  70.988  1.00  0.00    -0.212 A  
HETATM    7  C   UNL     1     -11.433   8.539  72.451  1.00  0.00    -0.419 A  
HETATM    8  C   UNL     1     -10.215   7.966  72.153  1.00  0.00    -0.227 A  
BRANCH   5   9
HETATM    9  N   UNL     1      -9.274   9.639  68.882  1.00  0.00    -0.143 NA 
BRANCH   9  10
HETATM   10  C   UNL     1      -8.596   8.572  68.079  1.00  0.00    -0.134 C  
BRANCH  10  11
HETATM   11  C   UNL     1      -9.384   7.930  66.908  1.00  0.00    -0.164 C  
BRANCH  11  12
HETATM   12  N   UNL     1     -10.813   7.692  67.102  1.00  0.00    -0.514 NA 
HETATM   13  H   UNL     1     -11.346   8.151  66.363  1.00  0.00     0.000 HD 
BRANCH  12  14
HETATM   14  C   UNL     1     -11.213   6.289  67.208  1.00  0.00    -0.158 C  
HETATM   15  C   UNL     1     -10.396   5.356  66.310  1.00  0.00    -0.251 C  
HETATM   16  C   UNL     1     -11.030   5.871  68.670  1.00  0.00    -0.289 C  
ENDBRANCH  12  14
ENDBRANCH  11  12
ENDBRANCH  10  11
ENDBRANCH   9  10
BRANCH   9  17
HETATM   17  C   UNL     1      -8.671  10.939  68.672  1.00  0.00    -0.154 A  
HETATM   18  C   UNL     1      -8.754  15.346  66.781  1.00  0.00    -0.269 A  
HETATM   19  C   UNL     1      -7.375  11.235  69.104  1.00  0.00    -0.104 A  
HETATM   20  C   UNL     1      -7.410  15.492  67.083  1.00  0.00    -0.191 A  
HETATM   21  N   UNL     1      -9.420  14.203  67.088  1.00  0.00    -0.228 NA 
HETATM   22  C   UNL     1      -8.723  13.223  67.707  1.00  0.00    -0.194 A  
HETATM   23  C   UNL     1      -6.716  12.416  68.741  1.00  0.00    -0.092 A  
HETATM   24  C   UNL     1      -7.366  13.409  68.041  1.00  0.00    -0.129 A  
HETATM   25  C   UNL     1      -9.334  11.997  68.009  1.00  0.00    -0.196 A  
HETATM   26  N   UNL     1      -6.698  14.535  67.723  1.00  0.00    -0.164 NA 
BRANCH  18  27
HETATM   27  C   UNL     1      -9.532  16.387  66.138  1.00  0.00    -0.363 A  
HETATM   28  N   UNL     1     -10.417  18.322  65.581  1.00  0.00    -0.623 NA 
HETATM   29  C   UNL     1      -9.522  17.737  66.432  1.00  0.00    -0.264 A  
HETATM   30  C   UNL     1     -10.762  19.720  65.507  1.00  0.00    -0.227 C  
HETATM   31  N   UNL     1     -11.017  17.449  64.752  1.00  0.00    -0.851 NA 
HETATM   32  C   UNL     1     -10.478  16.274  65.093  1.00  0.00    -0.227 A  
ENDBRANCH  18  27
ENDBRANCH   9  17
ENDBRANCH   5   9
BRANCH   8  33
HETATM   33  O   UNL     1      -9.552   7.036  72.906  1.00  0.00    -0.141 OA 
HETATM   34  C   UNL     1     -10.184   6.598  74.099  1.00  0.00    -0.363 C  
ENDBRANCH   8  33
ENDBRANCH   2   3
TORSDOF 9
ENDMDL
MODEL       67
REMARK 921   NORMALIZED FREE ENERGY PREDICTED BY IDOCK:   -6.06 KCAL/MOL
REMARK 922        TOTAL FREE ENERGY PREDICTED BY IDOCK:  -10.41 KCAL/MOL
REMARK 923 INTER-LIGAND FREE ENERGY PREDICTED BY IDOCK:   -9.09 KCAL/MOL
REMARK 924 INTRA-LIGAND FREE ENERGY PREDICTED BY IDOCK:   -1.33 KCAL/MOL
REMARK 927      BINDING AFFINITY PREDICTED BY RF-SCORE:    0.00 PKD
ROOT
HETATM    1  C   UNL     1     -12.095  15.367  64.187  1.00  0.00    -0.088 C  
HETATM    2  O   UNL     1     -10.899  16.071  64.542  1.00  0.00    -0.588 OA 
ENDROOT
BRANCH   2   3
HETATM    3  C   UNL     1     -10.176  15.473  65.548  1.00  0.00    -0.386 A  
HETATM    4  C   UNL     1     -10.617  14.201  65.981  1.00  0.00    -0.297 A  
HETATM    5  C   UNL     1      -9.892  13.424  66.906  1.00  0.00    -0.256 A  
HETATM    6  C   UNL     1      -8.769  14.082  67.440  1.00  0.00    -0.212 A  
HETATM    7  C   UNL     1      -9.072  16.076  66.140  1.00  0.00    -0.387 A  
HETATM    8  C   UNL     1      -8.367  15.379  67.099  1.00  0.00    -0.219 A  
BRANCH   5   9
HETATM    9  N   UNL     1     -10.230  12.081  67.285  1.00  0.00    -0.203 NA 
BRANCH   9  10
HETATM   10  C   UNL     1     -10.469  11.055  66.219  1.00  0.00    -0.254 C  
BRANCH  10  11
HETATM   11  C   UNL     1      -9.372   9.987  65.979  1.00  0.00    -0.174 C  
BRANCH  11  12
HETATM   12  N   UNL     1      -9.799   8.596  65.832  1.00  0.00    -0.464 NA 
HETATM   13  H   UNL     1      -9.384   8.191  64.993  1.00  0.00     0.000 HD 
BRANCH  12  14
HETATM   14  C   UNL     1      -9.543   7.730  66.983  1.00  0.00    -0.184 C  
HETATM   15  C   UNL     1      -9.565   6.239  66.637  1.00  0.00    -0.190 C  
HETATM   16  C   UNL     1      -8.163   8.101  67.535  1.00  0.00    -0.123 C  
ENDBRANCH  12  14
ENDBRANCH  11  12
ENDBRANCH  10  11
ENDBRANCH   9  10
BRANCH   9  17
HETATM   17  C   UNL     1     -10.855  11.712  68.538  1.00  0.00    -0.219 A  
HETATM   18  C   UNL     1     -11.684   8.539  72.038  1.00  0.00    -0.362 A  
HETATM   19  C   UNL     1     -11.776  12.544  69.182  1.00  0.00    -0.375 A  
HETATM   20  C   UNL     1     -12.710   9.341  72.510  1.00  0.00    -0.240 A  
HETATM   21  N   UNL     1     -10.957   8.902  70.949  1.00  0.00    -0.250 NA 
HETATM   22  C   UNL     1     -11.269  10.076  70.355  1.00  0.00    -0.323 A  
HETATM   23  C   UNL     1     -12.523  12.118  70.287  1.00  0.00    -0.164 A  
HETATM   24  C   UNL     1     -12.292  10.895  70.877  1.00  0.00    -0.400 A  
HETATM   25  C   UNL     1     -10.593  10.490  69.198  1.00  0.00    -0.258 A  
HETATM   26  N   UNL     1     -13.026  10.530  71.946  1.00  0.00    -0.466 NA 
BRANCH  18  27
HETATM   27  C   UNL     1     -11.312   7.287  72.667  1.00  0.00    -0.333 A  
HETATM   28  N   UNL     1     -11.135   5.158  73.189  1.00  0.00    -0.304 NA 
HETATM   29  C   UNL     1     -11.734   6.020  72.314  1.00  0.00    -0.284 A  
HETATM   30  C   UNL     1     -11.270   3.723  73.229  1.00  0.00    -0.127 C  
HETATM   31  N   UNL     1     -10.352   5.772  74.096  1.00  0.00    -0.276 NA 
HETATM   32  C   UNL     1     -10.463   7.065  73.776  1.00  0.00    -0.354 A  
ENDBRANCH  18  27
ENDBRANCH   9  17
ENDBRANCH   5   9
BRANCH   8  33
HETATM   33  O   UNL     1      -7.260  15.821  67.771  1.00  0.00    -0.128 OA 
HETATM   34  C   UNL     1      -7.350  15.897  69.186  1.00  0.00    -0.198 C  
ENDBRANCH   8  33
ENDBRANCH   2   3
TORSDOF 9
ENDMDL
MODEL       68
REMARK 921   NORMALIZED FREE ENERGY PREDICTED BY IDOCK:   -6.04 KCAL/MOL
REMARK 922        TOTAL FREE ENERGY PREDICTED BY IDOCK:  -10.39 KCAL/MOL
REMARK 923 INTER-LIGAND FREE ENERGY PREDICTED BY IDOCK:   -9.40 KCAL/MOL
REMARK 924 INTRA-LIGAND FREE ENERGY PREDICTED BY IDOCK:   -0.98 KCAL/MOL
REMARK 927      BINDING AFFINITY PREDICTED BY RF-SCORE:    0.00 PKD
ROOT
HETATM    1  C   UNL     1     -12.355  12.321  63.609  1.00  0.00    -0.562 C  
HETATM    2  O   UNL     1     -11.282  11.375  63.523  1.00  0.00    -0.391 OA 
ENDROOT
BRANCH   2   3
HETATM    3  C   UNL     1     -10.783  10.984  64.744  1.00  0.00    -0.234 A  
HETATM    4  C   UNL     1     -11.101  11.799  65.854  1.00  0.00    -0.355 A  
HETATM    5  C   UNL     1     -10.767  11.441  67.176  1.00  0.00    -0.249 A  
HETATM    6  C   UNL     1      -9.991  10.271  67.266  1.00  0.00    -0.233 A  
HETATM    7  C   UNL     1      -9.988   9.854  64.903  1.00  0.00    -0.190 A  
HETATM    8  C   UNL     1      -9.582   9.499  66.172  1.00  0.00    -0.239 A  
BRANCH   5   9
HETATM    9  N   UNL     1     -11.171  12.170  68.344  1.00  0.00    -0.243 NA 
BRANCH   9  10
HETATM   10  C   UNL     1     -12.208  11.584  69.254  1.00  0.00    -0.179 C  
BRANCH  10  11
HETATM   11  C   UNL     1     -11.722  10.794  70.496  1.00  0.00    -0.351 C  
BRANCH  11  12
HETATM   12  N   UNL     1     -12.733  10.343  71.452  1.00  0.00    -0.407 NA 
HETATM   13  H   UNL     1     -13.649  10.322  71.006  1.00  0.00     0.000 HD 
BRANCH  12  14
HETATM   14  C   UNL     1     -12.464   9.061  72.102  1.00  0.00    -0.380 C  
HETATM   15  C   UNL     1     -13.252   7.897  71.496  1.00  0.00    -0.342 C  
HETATM   16  C   UNL     1     -10.964   8.783  71.960  1.00  0.00    -0.438 C  
ENDBRANCH  12  14
ENDBRANCH  11  12
ENDBRANCH  10  11
ENDBRANCH   9  10
BRANCH   9  17
HETATM   17  C   UNL     1     -11.074  13.608  68.492  1.00  0.00    -0.275 A  
HETATM   18  C   UNL     1      -8.982  17.800  67.464  1.00  0.00    -0.244 A  
HETATM   19  C   UNL     1     -11.860  14.315  69.407  1.00  0.00    -0.372 A  
HETATM   20  C   UNL     1      -9.668  18.389  68.514  1.00  0.00    -0.361 A  
HETATM   21  N   UNL     1      -9.142  16.481  67.177  1.00  0.00    -0.209 NA 
HETATM   22  C   UNL     1     -10.002  15.776  67.947  1.00  0.00    -0.227 A  
HETATM   23  C   UNL     1     -11.643  15.669  69.692  1.00  0.00    -0.364 A  
HETATM   24  C   UNL     1     -10.719  16.407  68.984  1.00  0.00    -0.322 A  
HETATM   25  C   UNL     1     -10.179  14.400  67.738  1.00  0.00    -0.230 A  
HETATM   26  N   UNL     1     -10.550  17.709  69.283  1.00  0.00    -0.089 NA 
BRANCH  18  27
HETATM   27  C   UNL     1      -8.071  18.535  66.609  1.00  0.00    -0.280 A  
HETATM   28  N   UNL     1      -6.575  19.078  65.091  1.00  0.00    -0.471 NA 
HETATM   29  C   UNL     1      -7.257  18.018  65.619  1.00  0.00    -0.050 A  
HETATM   30  C   UNL     1      -5.599  19.044  64.031  1.00  0.00    -0.260 C  
HETATM   31  N   UNL     1      -6.881  20.254  65.669  1.00  0.00    -0.277 NA 
HETATM   32  C   UNL     1      -7.790  19.921  66.591  1.00  0.00    -0.309 A  
ENDBRANCH  18  27
ENDBRANCH   9  17
ENDBRANCH   5   9
BRANCH   8  33
HETATM   33  O   UNL     1      -8.808   8.420  66.502  1.00  0.00    -0.132 OA 
HETATM   34  C   UNL     1      -8.178   7.725  65.436  1.00  0.00    -0.139 C  
ENDBRANCH   8  33
ENDBRANCH   2   3
TORSDOF 9
ENDMDL
MODEL       69
REMARK 921   NORMALIZED FREE ENERGY PREDICTED BY IDOCK:   -6.03 KCAL/MOL
REMARK 922        TOTAL FREE ENERGY PREDICTED BY IDOCK:  -10.37 KCAL/MOL
REMARK 923 INTER-LIGAND FREE ENERGY PREDICTED BY IDOCK:   -8.77 KCAL/MOL
REMARK 924 INTRA-LIGAND FREE ENERGY PREDICTED BY IDOCK:   -1.60 KCAL/MOL
REMARK 927      BINDING AFFINITY PREDICTED BY RF-SCORE:    0.00 PKD
ROOT
HETATM    1  C   UNL     1     -14.404   8.196  71.577  1.00  0.00    -0.430 C  
HETATM    2  O   UNL     1     -13.515   9.301  71.367  1.00  0.00    -0.362 OA 
ENDROOT
BRANCH   2   3
HETATM    3  C   UNL     1     -12.184   8.978  71.490  1.00  0.00    -0.335 A  
HETATM    4  C   UNL     1     -11.325   9.400  70.450  1.00  0.00    -0.295 A  
HETATM    5  C   UNL     1      -9.926   9.252  70.517  1.00  0.00    -0.249 A  
HETATM    6  C   UNL     1      -9.486   8.542  71.649  1.00  0.00    -0.316 A  
HETATM    7  C   UNL     1     -11.684   8.257  72.569  1.00  0.00    -0.451 A  
HETATM    8  C   UNL     1     -10.325   8.030  72.645  1.00  0.00    -0.329 A  
BRANCH   5   9
HETATM    9  N   UNL     1      -9.004   9.771  69.546  1.00  0.00    -0.189 NA 
BRANCH   9  10
HETATM   10  C   UNL     1      -7.581  10.020  69.944  1.00  0.00    -0.170 C  
BRANCH  10  11
HETATM   11  C   UNL     1      -6.496   9.048  69.412  1.00  0.00    -0.044 C  
BRANCH  11  12
HETATM   12  N   UNL     1      -6.904   8.051  68.422  1.00  0.00    -0.066 NA 
HETATM   13  H   UNL     1      -6.284   8.091  67.613  1.00  0.00     0.000 HD 
BRANCH  12  14
HETATM   14  C   UNL     1      -7.000   6.677  68.911  1.00  0.00    -0.079 C  
HETATM   15  C   UNL     1      -6.584   6.522  70.376  1.00  0.00    -0.045 C  
HETATM   16  C   UNL     1      -8.459   6.237  68.750  1.00  0.00    -0.119 C  
ENDBRANCH  12  14
ENDBRANCH  11  12
ENDBRANCH  10  11
ENDBRANCH   9  10
BRANCH   9  17
HETATM   17  C   UNL     1      -9.383  10.548  68.383  1.00  0.00    -0.158 A  
HETATM   18  C   UNL     1      -9.894  14.751  66.130  1.00  0.00    -0.312 A  
HETATM   19  C   UNL     1      -9.996   9.966  67.270  1.00  0.00    -0.245 A  
HETATM   20  C   UNL     1     -10.652  14.125  65.154  1.00  0.00    -0.398 A  
HETATM   21  N   UNL     1      -9.381  14.049  67.174  1.00  0.00    -0.232 NA 
HETATM   22  C   UNL     1      -9.631  12.720  67.214  1.00  0.00    -0.208 A  
HETATM   23  C   UNL     1     -10.535  10.730  66.227  1.00  0.00    -0.287 A  
HETATM   24  C   UNL     1     -10.371  12.098  66.188  1.00  0.00    -0.234 A  
HETATM   25  C   UNL     1      -9.174  11.942  68.288  1.00  0.00    -0.187 A  
HETATM   26  N   UNL     1     -10.896  12.793  65.160  1.00  0.00    -0.284 NA 
BRANCH  18  27
HETATM   27  C   UNL     1      -9.591  16.168  66.102  1.00  0.00    -0.359 A  
HETATM   28  N   UNL     1      -8.554  18.107  66.165  1.00  0.00    -0.490 NA 
HETATM   29  C   UNL     1      -8.351  16.758  66.253  1.00  0.00    -0.318 A  
HETATM   30  C   UNL     1      -7.560  19.146  66.266  1.00  0.00    -0.274 C  
HETATM   31  N   UNL     1      -9.842  18.443  65.972  1.00  0.00    -0.525 NA 
HETATM   32  C   UNL     1     -10.470  17.263  65.935  1.00  0.00    -0.262 A  
ENDBRANCH  18  27
ENDBRANCH   9  17
ENDBRANCH   5   9
BRANCH   8  33
HETATM   33  O   UNL     1      -9.673   7.349  73.636  1.00  0.00    -0.256 OA 
HETATM   34  C   UNL     1      -8.433   7.881  74.079  1.00  0.00    -0.265 C  
ENDBRANCH   8  33
ENDBRANCH   2   3
TORSDOF 9
ENDMDL
MODEL       70
REMARK 921   NORMALIZED FREE ENERGY PREDICTED BY IDOCK:   -5.97 KCAL/MOL
REMARK 922        TOTAL FREE ENERGY PREDICTED BY IDOCK:  -10.29 KCAL/MOL
REMARK 923 INTER-LIGAND FREE ENERGY PREDICTED BY IDOCK:   -8.86 KCAL/MOL
REMARK 924 INTRA-LIGAND FREE ENERGY PREDICTED BY IDOCK:   -1.43 KCAL/MOL
REMARK 927      BINDING AFFINITY PREDICTED BY RF-SCORE:    0.00 PKD
ROOT
HETATM    1  C   UNL     1     -10.656   5.773  68.458  1.00  0.00    -0.229 C  
HETATM    2  O   UNL     1     -10.985   6.372  67.199  1.00  0.00    -0.354 OA 
ENDROOT
BRANCH   2   3
HETATM    3  C   UNL     1     -10.285   7.525  66.929  1.00  0.00    -0.289 A  
HETATM    4  C   UNL     1     -10.902   8.746  67.286  1.00  0.00    -0.077 A  
HETATM    5  C   UNL     1     -10.240   9.986  67.188  1.00  0.00    -0.228 A  
HETATM    6  C   UNL     1      -8.969   9.902  66.592  1.00  0.00    -0.157 A  
HETATM    7  C   UNL     1      -9.035   7.519  66.319  1.00  0.00    -0.199 A  
HETATM    8  C   UNL     1      -8.375   8.717  66.142  1.00  0.00    -0.125 A  
BRANCH   5   9
HETATM    9  N   UNL     1     -10.777  11.235  67.649  1.00  0.00    -0.212 NA 
BRANCH   9  10
HETATM   10  C   UNL     1     -11.947  11.231  68.586  1.00  0.00    -0.243 C  
BRANCH  10  11
HETATM   11  C   UNL     1     -11.708  10.766  70.046  1.00  0.00    -0.336 C  
BRANCH  11  12
HETATM   12  N   UNL     1     -12.323   9.508  70.467  1.00  0.00    -0.484 NA 
HETATM   13  H   UNL     1     -12.888   9.126  69.709  1.00  0.00     0.000 HD 
BRANCH  12  14
HETATM   14  C   UNL     1     -11.401   8.489  70.966  1.00  0.00    -0.271 C  
HETATM   15  C   UNL     1      -9.932   8.913  70.899  1.00  0.00    -0.304 C  
HETATM   16  C   UNL     1     -11.779   8.206  72.424  1.00  0.00    -0.461 C  
ENDBRANCH  12  14
ENDBRANCH  11  12
ENDBRANCH  10  11
ENDBRANCH   9  10
BRANCH   9  17
HETATM   17  C   UNL     1     -10.654  12.494  66.944  1.00  0.00    -0.236 A  
HETATM   18  C   UNL     1      -9.349  17.107  66.791  1.00  0.00    -0.254 A  
HETATM   19  C   UNL     1     -11.193  12.686  65.669  1.00  0.00    -0.344 A  
HETATM   20  C   UNL     1     -10.062  17.260  65.613  1.00  0.00    -0.049 A  
HETATM   21  N   UNL     1      -9.300  15.907  67.428  1.00  0.00    -0.209 NA 
HETATM   22  C   UNL     1      -9.964  14.874  66.862  1.00  0.00    -0.242 A  
HETATM   23  C   UNL     1     -11.246  13.946  65.060  1.00  0.00    -0.342 A  
HETATM   24  C   UNL     1     -10.650  15.045  65.641  1.00  0.00    -0.346 A  
HETATM   25  C   UNL     1      -9.997  13.620  67.490  1.00  0.00    -0.230 A  
HETATM   26  N   UNL     1     -10.715  16.236  65.016  1.00  0.00    -0.656 NA 
BRANCH  18  27
HETATM   27  C   UNL     1      -8.610  18.190  67.409  1.00  0.00    -0.244 A  
HETATM   28  N   UNL     1      -7.279  19.368  68.706  1.00  0.00    -0.342 NA 
HETATM   29  C   UNL     1      -7.717  18.097  68.459  1.00  0.00    -0.297 A  
HETATM   30  C   UNL     1      -6.339  19.784  69.716  1.00  0.00    -0.352 C  
HETATM   31  N   UNL     1      -7.826  20.290  67.893  1.00  0.00    -0.243 NA 
HETATM   32  C   UNL     1      -8.635  19.571  67.107  1.00  0.00    -0.297 A  
ENDBRANCH  18  27
ENDBRANCH   9  17
ENDBRANCH   5   9
BRANCH   8  33
HETATM   33  O   UNL     1      -7.144   8.885  65.569  1.00  0.00    -0.079 OA 
HETATM   34  C   UNL     1      -6.721  10.218  65.325  1.00  0.00    -0.126 C  
ENDBRANCH   8  33
ENDBRANCH   2   3
TORSDOF 9
ENDMDL
MODEL       71
REMARK 921   NORMALIZED FREE ENERGY PREDICTED BY IDOCK:   -5.96 KCAL/MOL
REMARK 922        TOTAL FREE ENERGY PREDICTED BY IDOCK:  -10.27 KCAL/MOL
REMARK 923 INTER-LIGAND FREE ENERGY PREDICTED BY IDOCK:   -8.83 KCAL/MOL
REMARK 924 INTRA-LIGAND FREE ENERGY PREDICTED BY IDOCK:   -1.44 KCAL/MOL
REMARK 927      BINDING AFFINITY PREDICTED BY RF-SCORE:    0.00 PKD
ROOT
HETATM    1  C   UNL     1     -10.166  20.016  66.731  1.00  0.00    -0.462 C  
HETATM    2  O   UNL     1     -10.316  18.977  65.755  1.00  0.00    -0.526 OA 
ENDROOT
BRANCH   2   3
HETATM    3  C   UNL     1      -9.767  17.774  66.132  1.00  0.00    -0.217 A  
HETATM    4  C   UNL     1     -10.624  16.649  66.118  1.00  0.00    -0.218 A  
HETATM    5  C   UNL     1     -10.158  15.340  66.351  1.00  0.00    -0.274 A  
HETATM    6  C   UNL     1      -8.800  15.279  66.715  1.00  0.00    -0.302 A  
HETATM    7  C   UNL     1      -8.440  17.645  66.528  1.00  0.00    -0.294 A  
HETATM    8  C   UNL     1      -7.955  16.390  66.829  1.00  0.00    -0.260 A  
BRANCH   5   9
HETATM    9  N   UNL     1     -10.960  14.156  66.230  1.00  0.00    -0.300 NA 
BRANCH   9  10
HETATM   10  C   UNL     1     -11.949  13.825  67.306  1.00  0.00    -0.401 C  
BRANCH  10  11
HETATM   11  C   UNL     1     -11.490  13.954  68.781  1.00  0.00    -0.292 C  
BRANCH  11  12
HETATM   12  N   UNL     1     -12.466  14.438  69.756  1.00  0.00    -0.505 NA 
HETATM   13  H   UNL     1     -12.728  13.684  70.391  1.00  0.00     0.000 HD 
BRANCH  12  14
HETATM   14  C   UNL     1     -12.065  15.618  70.522  1.00  0.00    -0.395 C  
HETATM   15  C   UNL     1     -11.716  15.306  71.979  1.00  0.00    -0.529 C  
HETATM   16  C   UNL     1     -10.839  16.218  69.826  1.00  0.00    -0.356 C  
ENDBRANCH  12  14
ENDBRANCH  11  12
ENDBRANCH  10  11
ENDBRANCH   9  10
BRANCH   9  17
HETATM   17  C   UNL     1     -10.591  12.987  65.458  1.00  0.00    -0.282 A  
HETATM   18  C   UNL     1      -8.619   8.627  65.129  1.00  0.00    -0.173 A  
HETATM   19  C   UNL     1     -10.743  12.936  64.069  1.00  0.00    -0.429 A  
HETATM   20  C   UNL     1      -8.639   8.732  63.748  1.00  0.00    -0.042 A  
HETATM   21  N   UNL     1      -9.090   9.632  65.914  1.00  0.00    -0.165 NA 
HETATM   22  C   UNL     1      -9.586  10.726  65.293  1.00  0.00    -0.229 A  
HETATM   23  C   UNL     1     -10.217  11.893  63.296  1.00  0.00    -0.428 A  
HETATM   24  C   UNL     1      -9.632  10.794  63.885  1.00  0.00    -0.293 A  
HETATM   25  C   UNL     1     -10.044  11.821  66.041  1.00  0.00    -0.263 A  
HETATM   26  N   UNL     1      -9.150   9.808  63.105  1.00  0.00    -0.259 NA 
BRANCH  18  27
HETATM   27  C   UNL     1      -8.115   7.458  65.821  1.00  0.00    -0.129 A  
HETATM   28  N   UNL     1      -7.924   5.473  66.750  1.00  0.00    -0.101 NA 
HETATM   29  C   UNL     1      -8.789   6.276  66.062  1.00  0.00    -0.151 A  
HETATM   30  C   UNL     1      -8.173   4.137  67.233  1.00  0.00    -0.099 C  
HETATM   31  N   UNL     1      -6.730   6.047  66.984  1.00  0.00    -0.056 NA 
HETATM   32  C   UNL     1      -6.849   7.253  66.419  1.00  0.00    -0.061 A  
ENDBRANCH  18  27
ENDBRANCH   9  17
ENDBRANCH   5   9
BRANCH   8  33
HETATM   33  O   UNL     1      -6.680  16.089  67.227  1.00  0.00    -0.175 OA 
HETATM   34  C   UNL     1      -6.468  14.811  67.807  1.00  0.00    -0.164 C  
ENDBRANCH   8  33
ENDBRANCH   2   3
TORSDOF 9
ENDMDL
MODEL       72
REMARK 921   NORMALIZED FREE ENERGY PREDICTED BY IDOCK:   -5.95 KCAL/MOL
REMARK 922        TOTAL FREE ENERGY PREDICTED BY IDOCK:  -10.26 KCAL/MOL
REMARK 923 INTER-LIGAND FREE ENERGY PREDICTED BY IDOCK:   -9.20 KCAL/MOL
REMARK 924 INTRA-LIGAND FREE ENERGY PREDICTED BY IDOCK:   -1.05 KCAL/MOL
REMARK 927      BINDING AFFINITY PREDICTED BY RF-SCORE:    0.00 PKD
ROOT
HETATM    1  C   UNL     1     -10.293  16.850  67.252  1.00  0.00    -0.309 C  
HETATM    2  O   UNL     1     -10.990  15.801  67.937  1.00  0.00    -0.308 OA 
ENDROOT
BRANCH   2   3
HETATM    3  C   UNL     1     -11.210  14.682  67.169  1.00  0.00    -0.344 A  
HETATM    4  C   UNL     1     -10.672  13.465  67.645  1.00  0.00    -0.257 A  
HETATM    5  C   UNL     1     -10.937  12.227  67.026  1.00  0.00    -0.268 A  
HETATM    6  C   UNL     1     -11.677  12.337  65.835  1.00  0.00    -0.451 A  
HETATM    7  C   UNL     1     -11.911  14.722  65.968  1.00  0.00    -0.201 A  
HETATM    8  C   UNL     1     -12.140  13.542  65.292  1.00  0.00    -0.411 A  
BRANCH   5   9
HETATM    9  N   UNL     1     -10.516  10.953  67.538  1.00  0.00    -0.202 NA 
BRANCH   9  10
HETATM   10  C   UNL     1     -10.106   9.876  66.580  1.00  0.00    -0.233 C  
BRANCH  10  11
HETATM   11  C   UNL     1      -8.672   9.933  65.992  1.00  0.00    -0.137 C  
BRANCH  11  12
HETATM   12  N   UNL     1      -8.409  10.911  64.938  1.00  0.00    -0.370 NA 
HETATM   13  H   UNL     1      -7.687  11.565  65.242  1.00  0.00     0.000 HD 
BRANCH  12  14
HETATM   14  C   UNL     1      -8.062  10.356  63.630  1.00  0.00    -0.109 C  
HETATM   15  C   UNL     1      -8.035   8.826  63.608  1.00  0.00    -0.158 C  
HETATM   16  C   UNL     1      -9.109  10.857  62.630  1.00  0.00    -0.364 C  
ENDBRANCH  12  14
ENDBRANCH  11  12
ENDBRANCH  10  11
ENDBRANCH   9  10
BRANCH   9  17
HETATM   17  C   UNL     1     -10.908  10.412  68.823  1.00  0.00    -0.232 A  
HETATM   18  C   UNL     1     -11.227   6.760  71.916  1.00  0.00    -0.260 A  
HETATM   19  C   UNL     1     -11.639  11.159  69.752  1.00  0.00    -0.409 A  
HETATM   20  C   UNL     1     -12.096   7.507  72.695  1.00  0.00    -0.037 A  
HETATM   21  N   UNL     1     -10.704   7.267  70.769  1.00  0.00    -0.228 NA 
HETATM   22  C   UNL     1     -11.057   8.527  70.427  1.00  0.00    -0.231 A  
HETATM   23  C   UNL     1     -12.182  10.589  70.910  1.00  0.00    -0.490 A  
HETATM   24  C   UNL     1     -11.912   9.283  71.256  1.00  0.00    -0.340 A  
HETATM   25  C   UNL     1     -10.594   9.096  69.231  1.00  0.00    -0.229 A  
HETATM   26  N   UNL     1     -12.446   8.778  72.385  1.00  0.00    -0.376 NA 
BRANCH  18  27
HETATM   27  C   UNL     1     -10.812   5.417  72.269  1.00  0.00    -0.286 A  
HETATM   28  N   UNL     1      -9.891   3.420  72.256  1.00  0.00    -0.152 NA 
HETATM   29  C   UNL     1      -9.990   4.580  71.540  1.00  0.00    -0.189 A  
HETATM   30  C   UNL     1      -9.143   2.239  71.901  1.00  0.00    -0.084 C  
HETATM   31  N   UNL     1     -10.595   3.435  73.402  1.00  0.00    -0.176 NA 
HETATM   32  C   UNL     1     -11.155   4.649  73.407  1.00  0.00    -0.337 A  
ENDBRANCH  18  27
ENDBRANCH   9  17
ENDBRANCH   5   9
BRANCH   8  33
HETATM   33  O   UNL     1     -12.813  13.405  64.108  1.00  0.00    -0.635 OA 
HETATM   34  C   UNL     1     -12.383  12.371  63.236  1.00  0.00    -0.391 C  
ENDBRANCH   8  33
ENDBRANCH   2   3
TORSDOF 9
ENDMDL
MODEL       73
REMARK 921   NORMALIZED FREE ENERGY PREDICTED BY IDOCK:   -5.95 KCAL/MOL
REMARK 922        TOTAL FREE ENERGY PREDICTED BY IDOCK:  -10.25 KCAL/MOL
REMARK 923 INTER-LIGAND FREE ENERGY PREDICTED BY IDOCK:   -8.66 KCAL/MOL
REMARK 924 INTRA-LIGAND FREE ENERGY PREDICTED BY IDOCK:   -1.59 KCAL/MOL
REMARK 927      BINDING AFFINITY PREDICTED BY RF-SCORE:    0.00 PKD
ROOT
HETATM    1  C   UNL     1     -11.510   5.392  72.686  1.00  0.00    -0.241 C  
HETATM    2  O   UNL     1     -11.396   5.862  71.337  1.00  0.00    -0.261 OA 
ENDROOT
BRANCH   2   3
HETATM    3  C   UNL     1     -11.477   7.230  71.213  1.00  0.00    -0.276 A  
HETATM    4  C   UNL     1     -10.472   7.862  70.446  1.00  0.00    -0.218 A  
HETATM    5  C   UNL     1     -10.513   9.235  70.130  1.00  0.00    -0.230 A  
HETATM    6  C   UNL     1     -11.571   9.926  70.748  1.00  0.00    -0.430 A  
HETATM    7  C   UNL     1     -12.480   7.980  71.817  1.00  0.00    -0.355 A  
HETATM    8  C   UNL     1     -12.524   9.339  71.590  1.00  0.00    -0.368 A  
BRANCH   5   9
HETATM    9  N   UNL     1      -9.587   9.898  69.257  1.00  0.00    -0.193 NA 
BRANCH   9  10
HETATM   10  C   UNL     1      -8.159  10.056  69.684  1.00  0.00    -0.172 C  
BRANCH  10  11
HETATM   11  C   UNL     1      -7.050   9.762  68.641  1.00  0.00    -0.071 C  
BRANCH  11  12
HETATM   12  N   UNL     1      -7.280   8.670  67.695  1.00  0.00    -0.083 NA 
HETATM   13  H   UNL     1      -8.171   8.217  67.896  1.00  0.00     0.000 HD 
BRANCH  12  14
HETATM   14  C   UNL     1      -7.212   9.032  66.280  1.00  0.00    -0.090 C  
HETATM   15  C   UNL     1      -6.823  10.494  66.045  1.00  0.00    -0.134 C  
HETATM   16  C   UNL     1      -6.170   8.120  65.625  1.00  0.00    -0.045 C  
ENDBRANCH  12  14
ENDBRANCH  11  12
ENDBRANCH  10  11
ENDBRANCH   9  10
BRANCH   9  17
HETATM   17  C   UNL     1      -9.957  10.866  68.245  1.00  0.00    -0.175 A  
HETATM   18  C   UNL     1     -10.671  15.394  66.833  1.00  0.00    -0.314 A  
HETATM   19  C   UNL     1     -10.454  10.482  66.996  1.00  0.00    -0.304 A  
HETATM   20  C   UNL     1     -11.317  14.929  65.699  1.00  0.00    -0.325 A  
HETATM   21  N   UNL     1     -10.166  14.532  67.753  1.00  0.00    -0.225 NA 
HETATM   22  C   UNL     1     -10.310  13.209  67.512  1.00  0.00    -0.225 A  
HETATM   23  C   UNL     1     -10.990  11.403  66.088  1.00  0.00    -0.294 A  
HETATM   24  C   UNL     1     -10.935  12.759  66.331  1.00  0.00    -0.276 A  
HETATM   25  C   UNL     1      -9.856  12.262  68.443  1.00  0.00    -0.199 A  
HETATM   26  N   UNL     1     -11.452  13.610  65.425  1.00  0.00    -0.307 NA 
BRANCH  18  27
HETATM   27  C   UNL     1     -10.482  16.805  67.107  1.00  0.00    -0.299 A  
HETATM   28  N   UNL     1     -10.222  18.979  66.901  1.00  0.00    -0.360 NA 
HETATM   29  C   UNL     1     -10.418  17.832  66.185  1.00  0.00    -0.301 A  
HETATM   30  C   UNL     1     -10.084  20.317  66.382  1.00  0.00    -0.365 C  
HETATM   31  N   UNL     1     -10.147  18.776  68.229  1.00  0.00    -0.367 NA 
HETATM   32  C   UNL     1     -10.305  17.454  68.351  1.00  0.00    -0.379 A  
ENDBRANCH  18  27
ENDBRANCH   9  17
ENDBRANCH   5   9
BRANCH   8  33
HETATM   33  O   UNL     1     -13.442  10.216  72.099  1.00  0.00    -0.411 OA 
HETATM   34  C   UNL     1     -13.164  11.601  71.954  1.00  0.00    -0.369 C  
ENDBRANCH   8  33
ENDBRANCH   2   3
TORSDOF 9
ENDMDL
MODEL       74
REMARK 921   NORMALIZED FREE ENERGY PREDICTED BY IDOCK:   -5.94 KCAL/MOL
REMARK 922        TOTAL FREE ENERGY PREDICTED BY IDOCK:  -10.24 KCAL/MOL
REMARK 923 INTER-LIGAND FREE ENERGY PREDICTED BY IDOCK:   -8.98 KCAL/MOL
REMARK 924 INTRA-LIGAND FREE ENERGY PREDICTED BY IDOCK:   -1.27 KCAL/MOL
REMARK 927      BINDING AFFINITY PREDICTED BY RF-SCORE:    0.00 PKD
ROOT
HETATM    1  C   UNL     1      -5.239  17.607  66.241  1.00  0.00    -0.191 C  
HETATM    2  O   UNL     1      -6.150  16.533  66.509  1.00  0.00    -0.297 OA 
ENDROOT
BRANCH   2   3
HETATM    3  C   UNL     1      -7.472  16.913  66.521  1.00  0.00    -0.293 A  
HETATM    4  C   UNL     1      -8.430  15.883  66.662  1.00  0.00    -0.322 A  
HETATM    5  C   UNL     1      -9.805  16.146  66.823  1.00  0.00    -0.245 A  
HETATM    6  C   UNL     1     -10.138  17.508  66.707  1.00  0.00    -0.320 A  
HETATM    7  C   UNL     1      -7.874  18.237  66.386  1.00  0.00    -0.290 A  
HETATM    8  C   UNL     1      -9.217  18.537  66.472  1.00  0.00    -0.310 A  
BRANCH   5   9
HETATM    9  N   UNL     1     -10.800  15.146  67.090  1.00  0.00    -0.315 NA 
BRANCH   9  10
HETATM   10  C   UNL     1     -11.757  15.348  68.226  1.00  0.00    -0.297 C  
BRANCH  10  11
HETATM   11  C   UNL     1     -11.188  15.859  69.575  1.00  0.00    -0.325 C  
BRANCH  11  12
HETATM   12  N   UNL     1     -10.911  14.869  70.614  1.00  0.00    -0.519 NA 
HETATM   13  H   UNL     1     -10.095  15.153  71.157  1.00  0.00     0.000 HD 
BRANCH  12  14
HETATM   14  C   UNL     1     -12.025  14.563  71.511  1.00  0.00    -0.291 C  
HETATM   15  C   UNL     1     -13.177  15.566  71.413  1.00  0.00    -0.587 C  
HETATM   16  C   UNL     1     -12.537  13.167  71.141  1.00  0.00    -0.403 C  
ENDBRANCH  12  14
ENDBRANCH  11  12
ENDBRANCH  10  11
ENDBRANCH   9  10
BRANCH   9  17
HETATM   17  C   UNL     1     -10.684  13.750  66.724  1.00  0.00    -0.276 A  
HETATM   18  C   UNL     1      -9.942   9.155  67.883  1.00  0.00    -0.186 A  
HETATM   19  C   UNL     1     -10.700  13.329  65.391  1.00  0.00    -0.308 A  
HETATM   20  C   UNL     1      -9.791   8.850  66.540  1.00  0.00    -0.274 A  
HETATM   21  N   UNL     1     -10.202  10.427  68.286  1.00  0.00    -0.154 NA 
HETATM   22  C   UNL     1     -10.317  11.373  67.327  1.00  0.00    -0.198 A  
HETATM   23  C   UNL     1     -10.401  12.012  65.018  1.00  0.00    -0.318 A  
HETATM   24  C   UNL     1     -10.198  11.031  65.964  1.00  0.00    -0.252 A  
HETATM   25  C   UNL     1     -10.535  12.715  67.674  1.00  0.00    -0.226 A  
HETATM   26  N   UNL     1      -9.924   9.776  65.561  1.00  0.00    -0.305 NA 
BRANCH  18  27
HETATM   27  C   UNL     1      -9.847   8.159  68.931  1.00  0.00    -0.178 A  
HETATM   28  N   UNL     1      -9.228   6.449  70.169  1.00  0.00    -0.157 NA 
HETATM   29  C   UNL     1      -8.922   7.137  69.028  1.00  0.00    -0.134 A  
HETATM   30  C   UNL     1      -8.549   5.291  70.696  1.00  0.00    -0.122 C  
HETATM   31  N   UNL     1     -10.292   6.945  70.825  1.00  0.00    -0.202 NA 
HETATM   32  C   UNL     1     -10.667   7.984  70.070  1.00  0.00    -0.244 A  
ENDBRANCH  18  27
ENDBRANCH   9  17
ENDBRANCH   5   9
BRANCH   8  33
HETATM   33  O   UNL     1      -9.777  19.780  66.367  1.00  0.00    -0.371 OA 
HETATM   34  C   UNL     1     -10.978  19.889  65.617  1.00  0.00    -0.064 C  
ENDBRANCH   8  33
ENDBRANCH   2   3
TORSDOF 9
ENDMDL
MODEL       75
REMARK 921   NORMALIZED FREE ENERGY PREDICTED BY IDOCK:   -5.93 KCAL/MOL
REMARK 922        TOTAL FREE ENERGY PREDICTED BY IDOCK:  -10.22 KCAL/MOL
REMARK 923 INTER-LIGAND FREE ENERGY PREDICTED BY IDOCK:   -8.64 KCAL/MOL
REMARK 924 INTRA-LIGAND FREE ENERGY PREDICTED BY IDOCK:   -1.58 KCAL/MOL
REMARK 927      BINDING AFFINITY PREDICTED BY RF-SCORE:    0.00 PKD
ROOT
HETATM    1  C   UNL     1     -12.246  15.715  70.757  1.00  0.00    -0.418 C  
HETATM    2  O   UNL     1     -11.772  15.964  69.428  1.00  0.00    -0.358 OA 
ENDROOT
BRANCH   2   3
HETATM    3  C   UNL     1     -11.724  14.843  68.632  1.00  0.00    -0.330 A  
HETATM    4  C   UNL     1     -11.605  13.598  69.290  1.00  0.00    -0.363 A  
HETATM    5  C   UNL     1     -11.680  12.369  68.604  1.00  0.00    -0.326 A  
HETATM    6  C   UNL     1     -11.758  12.506  67.206  1.00  0.00    -0.431 A  
HETATM    7  C   UNL     1     -11.771  14.906  67.244  1.00  0.00    -0.308 A  
HETATM    8  C   UNL     1     -11.781  13.730  66.525  1.00  0.00    -0.385 A  
BRANCH   5   9
HETATM    9  N   UNL     1     -11.686  11.081  69.237  1.00  0.00    -0.300 NA 
BRANCH   9  10
HETATM   10  C   UNL     1     -12.391  10.911  70.549  1.00  0.00    -0.374 C  
BRANCH  10  11
HETATM   11  C   UNL     1     -12.776   9.474  70.987  1.00  0.00    -0.238 C  
BRANCH  11  12
HETATM   12  N   UNL     1     -12.423   9.061  72.345  1.00  0.00    -0.342 NA 
HETATM   13  H   UNL     1     -13.235   9.145  72.956  1.00  0.00     0.000 HD 
BRANCH  12  14
HETATM   14  C   UNL     1     -11.840   7.727  72.470  1.00  0.00    -0.302 C  
HETATM   15  C   UNL     1     -11.807   6.952  71.150  1.00  0.00    -0.395 C  
HETATM   16  C   UNL     1     -10.408   7.901  72.989  1.00  0.00    -0.401 C  
ENDBRANCH  12  14
ENDBRANCH  11  12
ENDBRANCH  10  11
ENDBRANCH   9  10
BRANCH   9  17
HETATM   17  C   UNL     1     -10.688  10.053  69.024  1.00  0.00    -0.220 A  
HETATM   18  C   UNL     1      -9.104   6.159  66.715  1.00  0.00    -0.133 A  
HETATM   19  C   UNL     1      -9.576   9.914  69.858  1.00  0.00    -0.265 A  
HETATM   20  C   UNL     1      -8.135   5.986  67.690  1.00  0.00    -0.106 A  
HETATM   21  N   UNL     1      -9.982   7.195  66.777  1.00  0.00    -0.214 NA 
HETATM   22  C   UNL     1      -9.864   8.050  67.818  1.00  0.00    -0.165 A  
HETATM   23  C   UNL     1      -8.711   8.815  69.777  1.00  0.00    -0.133 A  
HETATM   24  C   UNL     1      -8.844   7.876  68.777  1.00  0.00    -0.138 A  
HETATM   25  C   UNL     1     -10.766   9.113  67.972  1.00  0.00    -0.205 A  
HETATM   26  N   UNL     1      -7.983   6.841  68.729  1.00  0.00    -0.117 NA 
BRANCH  18  27
HETATM   27  C   UNL     1      -9.241   5.272  65.577  1.00  0.00    -0.122 A  
HETATM   28  N   UNL     1      -9.983   3.786  64.136  1.00  0.00    -0.181 NA 
HETATM   29  C   UNL     1     -10.299   4.428  65.300  1.00  0.00    -0.198 A  
HETATM   30  C   UNL     1     -10.774   2.799  63.444  1.00  0.00    -0.232 C  
HETATM   31  N   UNL     1      -8.789   4.146  63.631  1.00  0.00    -0.118 NA 
HETATM   32  C   UNL     1      -8.340   5.049  64.509  1.00  0.00    -0.135 A  
ENDBRANCH  18  27
ENDBRANCH   9  17
ENDBRANCH   5   9
BRANCH   8  33
HETATM   33  O   UNL     1     -11.831  13.614  65.162  1.00  0.00    -0.323 OA 
HETATM   34  C   UNL     1     -12.023  12.312  64.629  1.00  0.00    -0.366 C  
ENDBRANCH   8  33
ENDBRANCH   2   3
TORSDOF 9
ENDMDL
MODEL       76
REMARK 921   NORMALIZED FREE ENERGY PREDICTED BY IDOCK:   -5.92 KCAL/MOL
REMARK 922        TOTAL FREE ENERGY PREDICTED BY IDOCK:  -10.21 KCAL/MOL
REMARK 923 INTER-LIGAND FREE ENERGY PREDICTED BY IDOCK:   -9.25 KCAL/MOL
REMARK 924 INTRA-LIGAND FREE ENERGY PREDICTED BY IDOCK:   -0.95 KCAL/MOL
REMARK 927      BINDING AFFINITY PREDICTED BY RF-SCORE:    0.00 PKD
ROOT
HETATM    1  C   UNL     1     -12.382  14.886  64.200  1.00  0.00    -0.185 C  
HETATM    2  O   UNL     1     -12.397  13.608  63.552  1.00  0.00    -0.696 OA 
ENDROOT
BRANCH   2   3
HETATM    3  C   UNL     1     -11.638  12.652  64.184  1.00  0.00    -0.394 A  
HETATM    4  C   UNL     1     -11.737  12.586  65.593  1.00  0.00    -0.473 A  
HETATM    5  C   UNL     1     -11.119  11.570  66.349  1.00  0.00    -0.269 A  
HETATM    6  C   UNL     1     -10.305  10.714  65.586  1.00  0.00    -0.285 A  
HETATM    7  C   UNL     1     -10.792  11.788  63.496  1.00  0.00    -0.496 A  
HETATM    8  C   UNL     1     -10.114  10.817  64.202  1.00  0.00    -0.353 A  
BRANCH   5   9
HETATM    9  N   UNL     1     -11.287  11.389  67.763  1.00  0.00    -0.326 NA 
BRANCH   9  10
HETATM   10  C   UNL     1     -12.160  12.339  68.526  1.00  0.00    -0.070 C  
BRANCH  10  11
HETATM   11  C   UNL     1     -11.493  13.580  69.173  1.00  0.00    -0.295 C  
BRANCH  11  12
HETATM   12  N   UNL     1     -12.369  14.602  69.744  1.00  0.00    -0.484 NA 
HETATM   13  H   UNL     1     -13.265  14.605  69.256  1.00  0.00     0.000 HD 
BRANCH  12  14
HETATM   14  C   UNL     1     -12.588  14.514  71.187  1.00  0.00    -0.335 C  
HETATM   15  C   UNL     1     -11.514  15.232  72.009  1.00  0.00    -0.500 C  
HETATM   16  C   UNL     1     -13.954  15.144  71.481  1.00  0.00    -0.614 C  
ENDBRANCH  12  14
ENDBRANCH  11  12
ENDBRANCH  10  11
ENDBRANCH   9  10
BRANCH   9  17
HETATM   17  C   UNL     1     -10.339  10.716  68.626  1.00  0.00    -0.186 A  
HETATM   18  C   UNL     1      -9.319   7.512  72.046  1.00  0.00    -0.133 A  
HETATM   19  C   UNL     1      -8.996  11.098  68.693  1.00  0.00    -0.162 A  
HETATM   20  C   UNL     1      -8.058   8.069  72.179  1.00  0.00    -0.134 A  
HETATM   21  N   UNL     1     -10.209   8.004  71.145  1.00  0.00    -0.192 NA 
HETATM   22  C   UNL     1      -9.812   9.047  70.382  1.00  0.00    -0.202 A  
HETATM   23  C   UNL     1      -8.119  10.583  69.656  1.00  0.00    -0.058 A  
HETATM   24  C   UNL     1      -8.508   9.572  70.508  1.00  0.00    -0.169 A  
HETATM   25  C   UNL     1     -10.695   9.637  69.467  1.00  0.00    -0.252 A  
HETATM   26  N   UNL     1      -7.629   9.098  71.411  1.00  0.00    -0.330 NA 
BRANCH  18  27
HETATM   27  C   UNL     1      -9.766   6.379  72.833  1.00  0.00    -0.164 A  
HETATM   28  N   UNL     1     -10.243   4.348  73.528  1.00  0.00    -0.152 NA 
HETATM   29  C   UNL     1      -9.696   5.044  72.487  1.00  0.00    -0.155 A  
HETATM   30  C   UNL     1     -10.401   2.919  73.633  1.00  0.00    -0.136 C  
HETATM   31  N   UNL     1     -10.672   5.134  74.532  1.00  0.00    -0.315 NA 
HETATM   32  C   UNL     1     -10.381   6.368  74.107  1.00  0.00    -0.317 A  
ENDBRANCH  18  27
ENDBRANCH   9  17
ENDBRANCH   5   9
BRANCH   8  33
HETATM   33  O   UNL     1      -9.254   9.890  63.681  1.00  0.00    -0.257 OA 
HETATM   34  C   UNL     1      -8.387  10.322  62.643  1.00  0.00    -0.163 C  
ENDBRANCH   8  33
ENDBRANCH   2   3
TORSDOF 9
ENDMDL
MODEL       77
REMARK 921   NORMALIZED FREE ENERGY PREDICTED BY IDOCK:   -5.91 KCAL/MOL
REMARK 922        TOTAL FREE ENERGY PREDICTED BY IDOCK:  -10.20 KCAL/MOL
REMARK 923 INTER-LIGAND FREE ENERGY PREDICTED BY IDOCK:   -9.34 KCAL/MOL
REMARK 924 INTRA-LIGAND FREE ENERGY PREDICTED BY IDOCK:   -0.86 KCAL/MOL
REMARK 927      BINDING AFFINITY PREDICTED BY RF-SCORE:    0.00 PKD
ROOT
HETATM    1  C   UNL     1     -13.825   9.272  72.051  1.00  0.00    -0.382 C  
HETATM    2  O   UNL     1     -13.009  10.404  71.727  1.00  0.00    -0.420 OA 
ENDROOT
BRANCH   2   3
HETATM    3  C   UNL     1     -11.793  10.077  71.176  1.00  0.00    -0.393 A  
HETATM    4  C   UNL     1     -11.451  10.713  69.960  1.00  0.00    -0.404 A  
HETATM    5  C   UNL     1     -10.184  10.569  69.361  1.00  0.00    -0.221 A  
HETATM    6  C   UNL     1      -9.349   9.647  70.018  1.00  0.00    -0.276 A  
HETATM    7  C   UNL     1     -10.929   9.155  71.757  1.00  0.00    -0.429 A  
HETATM    8  C   UNL     1      -9.701   8.932  71.170  1.00  0.00    -0.274 A  
BRANCH   5   9
HETATM    9  N   UNL     1      -9.746  11.286  68.197  1.00  0.00    -0.179 NA 
BRANCH   9  10
HETATM   10  C   UNL     1      -9.965  10.687  66.840  1.00  0.00    -0.202 C  
BRANCH  10  11
HETATM   11  C   UNL     1     -10.645  11.564  65.758  1.00  0.00    -0.263 C  
BRANCH  11  12
HETATM   12  N   UNL     1     -11.918  12.198  66.099  1.00  0.00    -0.600 NA 
HETATM   13  H   UNL     1     -11.806  12.780  66.930  1.00  0.00     0.000 HD 
BRANCH  12  14
HETATM   14  C   UNL     1     -12.547  12.972  65.030  1.00  0.00    -0.454 C  
HETATM   15  C   UNL     1     -11.806  14.272  64.705  1.00  0.00    -0.459 C  
HETATM   16  C   UNL     1     -12.579  12.084  63.782  1.00  0.00    -0.567 C  
ENDBRANCH  12  14
ENDBRANCH  11  12
ENDBRANCH  10  11
ENDBRANCH   9  10
BRANCH   9  17
HETATM   17  C   UNL     1      -8.685  12.271  68.186  1.00  0.00    -0.186 A  
HETATM   18  C   UNL     1      -6.931  16.534  66.860  1.00  0.00    -0.223 A  
HETATM   19  C   UNL     1      -7.423  12.009  68.728  1.00  0.00    -0.086 A  
HETATM   20  C   UNL     1      -5.668  16.128  67.258  1.00  0.00    -0.073 A  
HETATM   21  N   UNL     1      -8.002  15.707  66.982  1.00  0.00    -0.215 NA 
HETATM   22  C   UNL     1      -7.786  14.482  67.514  1.00  0.00    -0.193 A  
HETATM   23  C   UNL     1      -6.339  12.879  68.556  1.00  0.00    -0.079 A  
HETATM   24  C   UNL     1      -6.498  14.106  67.948  1.00  0.00    -0.165 A  
HETATM   25  C   UNL     1      -8.837  13.559  67.624  1.00  0.00    -0.202 A  
HETATM   26  N   UNL     1      -5.431  14.916  67.813  1.00  0.00    -0.294 NA 
BRANCH  18  27
HETATM   27  C   UNL     1      -7.197  17.848  66.308  1.00  0.00    -0.324 A  
HETATM   28  N   UNL     1      -7.008  19.785  65.284  1.00  0.00    -0.363 NA 
HETATM   29  C   UNL     1      -6.327  18.638  65.581  1.00  0.00    -0.264 A  
HETATM   30  C   UNL     1      -6.518  20.920  64.542  1.00  0.00    -0.225 C  
HETATM   31  N   UNL     1      -8.262  19.805  65.770  1.00  0.00    -0.394 NA 
HETATM   32  C   UNL     1      -8.374  18.627  66.392  1.00  0.00    -0.276 A  
ENDBRANCH  18  27
ENDBRANCH   9  17
ENDBRANCH   5   9
BRANCH   8  33
HETATM   33  O   UNL     1      -8.736   8.069  71.614  1.00  0.00    -0.116 OA 
HETATM   34  C   UNL     1      -8.706   6.776  71.028  1.00  0.00    -0.137 C  
ENDBRANCH   8  33
ENDBRANCH   2   3
TORSDOF 9
ENDMDL
MODEL       78
REMARK 921   NORMALIZED FREE ENERGY PREDICTED BY IDOCK:   -5.90 KCAL/MOL
REMARK 922        TOTAL FREE ENERGY PREDICTED BY IDOCK:  -10.18 KCAL/MOL
REMARK 923 INTER-LIGAND FREE ENERGY PREDICTED BY IDOCK:   -8.78 KCAL/MOL
REMARK 924 INTRA-LIGAND FREE ENERGY PREDICTED BY IDOCK:   -1.40 KCAL/MOL
REMARK 927      BINDING AFFINITY PREDICTED BY RF-SCORE:    0.00 PKD
ROOT
HETATM    1  C   UNL     1     -10.487  19.294  67.141  1.00  0.00    -0.457 C  
HETATM    2  O   UNL     1     -10.127  18.057  66.515  1.00  0.00    -0.340 OA 
ENDROOT
BRANCH   2   3
HETATM    3  C   UNL     1     -10.612  16.942  67.159  1.00  0.00    -0.249 A  
HETATM    4  C   UNL     1     -10.431  15.700  66.509  1.00  0.00    -0.303 A  
HETATM    5  C   UNL     1     -10.759  14.473  67.118  1.00  0.00    -0.286 A  
HETATM    6  C   UNL     1     -11.390  14.613  68.368  1.00  0.00    -0.312 A  
HETATM    7  C   UNL     1     -11.268  17.009  68.383  1.00  0.00    -0.040 A  
HETATM    8  C   UNL     1     -11.667  15.837  68.989  1.00  0.00    -0.396 A  
BRANCH   5   9
HETATM    9  N   UNL     1     -10.484  13.182  66.553  1.00  0.00    -0.276 NA 
BRANCH   9  10
HETATM   10  C   UNL     1     -11.319  12.688  65.410  1.00  0.00    -0.313 C  
BRANCH  10  11
HETATM   11  C   UNL     1     -10.627  12.483  64.039  1.00  0.00    -0.421 C  
BRANCH  11  12
HETATM   12  N   UNL     1     -10.967  11.280  63.279  1.00  0.00    -0.814 NA 
HETATM   13  H   UNL     1     -11.453  11.537  62.420  1.00  0.00     0.000 HD 
BRANCH  12  14
HETATM   14  C   UNL     1      -9.851  10.387  62.973  1.00  0.00    -0.139 C  
HETATM   15  C   UNL     1      -8.659  11.102  62.332  1.00  0.00    -0.307 C  
HETATM   16  C   UNL     1      -9.405   9.745  64.291  1.00  0.00    -0.253 C  
ENDBRANCH  12  14
ENDBRANCH  11  12
ENDBRANCH  10  11
ENDBRANCH   9  10
BRANCH   9  17
HETATM   17  C   UNL     1      -9.836  12.096  67.257  1.00  0.00    -0.196 A  
HETATM   18  C   UNL     1      -9.959   8.446  70.366  1.00  0.00    -0.185 A  
HETATM   19  C   UNL     1      -8.458  11.876  67.175  1.00  0.00    -0.173 A  
HETATM   20  C   UNL     1      -8.574   8.411  70.368  1.00  0.00    -0.136 A  
HETATM   21  N   UNL     1     -10.636   9.348  69.608  1.00  0.00    -0.218 NA 
HETATM   22  C   UNL     1      -9.906  10.199  68.852  1.00  0.00    -0.189 A  
HETATM   23  C   UNL     1      -7.797  10.952  67.995  1.00  0.00    -0.107 A  
HETATM   24  C   UNL     1      -8.497  10.119  68.840  1.00  0.00    -0.139 A  
HETATM   25  C   UNL     1     -10.536  11.188  68.084  1.00  0.00    -0.227 A  
HETATM   26  N   UNL     1      -7.823   9.237  69.602  1.00  0.00    -0.082 NA 
BRANCH  18  27
HETATM   27  C   UNL     1     -10.769   7.532  71.148  1.00  0.00    -0.242 A  
HETATM   28  N   UNL     1     -11.459   5.833  72.363  1.00  0.00    -0.300 NA 
HETATM   29  C   UNL     1     -10.357   6.358  71.749  1.00  0.00    -0.203 A  
HETATM   30  C   UNL     1     -11.533   4.608  73.119  1.00  0.00    -0.224 C  
HETATM   31  N   UNL     1     -12.568   6.578  72.202  1.00  0.00    -0.210 NA 
HETATM   32  C   UNL     1     -12.145   7.609  71.464  1.00  0.00    -0.310 A  
ENDBRANCH  18  27
ENDBRANCH   9  17
ENDBRANCH   5   9
BRANCH   8  33
HETATM   33  O   UNL     1     -12.315  15.726  70.189  1.00  0.00    -0.384 OA 
HETATM   34  C   UNL     1     -12.335  14.443  70.797  1.00  0.00    -0.347 C  
ENDBRANCH   8  33
ENDBRANCH   2   3
TORSDOF 9
ENDMDL
MODEL       79
REMARK 921   NORMALIZED FREE ENERGY PREDICTED BY IDOCK:   -5.90 KCAL/MOL
REMARK 922        TOTAL FREE ENERGY PREDICTED BY IDOCK:  -10.17 KCAL/MOL
REMARK 923 INTER-LIGAND FREE ENERGY PREDICTED BY IDOCK:   -8.83 KCAL/MOL
REMARK 924 INTRA-LIGAND FREE ENERGY PREDICTED BY IDOCK:   -1.34 KCAL/MOL
REMARK 927      BINDING AFFINITY PREDICTED BY RF-SCORE:    0.00 PKD
ROOT
HETATM    1  C   UNL     1      -9.974  16.749  66.388  1.00  0.00    -0.304 C  
HETATM    2  O   UNL     1     -10.999  16.096  67.148  1.00  0.00    -0.266 OA 
ENDROOT
BRANCH   2   3
HETATM    3  C   UNL     1     -11.214  14.787  66.787  1.00  0.00    -0.344 A  
HETATM    4  C   UNL     1     -10.473  13.803  67.482  1.00  0.00    -0.245 A  
HETATM    5  C   UNL     1     -10.694  12.423  67.304  1.00  0.00    -0.230 A  
HETATM    6  C   UNL     1     -11.625  12.125  66.292  1.00  0.00    -0.424 A  
HETATM    7  C   UNL     1     -12.099  14.421  65.780  1.00  0.00    -0.362 A  
HETATM    8  C   UNL     1     -12.302  13.081  65.524  1.00  0.00    -0.472 A  
BRANCH   5   9
HETATM    9  N   UNL     1     -10.056  11.390  68.070  1.00  0.00    -0.175 NA 
BRANCH   9  10
HETATM   10  C   UNL     1      -8.950  10.592  67.449  1.00  0.00    -0.135 C  
BRANCH  10  11
HETATM   11  C   UNL     1      -7.683  11.349  66.977  1.00  0.00    -0.154 C  
BRANCH  11  12
HETATM   12  N   UNL     1      -6.624  11.580  67.959  1.00  0.00    -0.057 NA 
HETATM   13  H   UNL     1      -5.727  11.686  67.485  1.00  0.00     0.000 HD 
BRANCH  12  14
HETATM   14  C   UNL     1      -6.841  12.700  68.873  1.00  0.00    -0.097 C  
HETATM   15  C   UNL     1      -5.973  12.633  70.132  1.00  0.00    -0.138 C  
HETATM   16  C   UNL     1      -6.517  13.986  68.104  1.00  0.00    -0.126 C  
ENDBRANCH  12  14
ENDBRANCH  11  12
ENDBRANCH  10  11
ENDBRANCH   9  10
BRANCH   9  17
HETATM   17  C   UNL     1     -10.670  10.690  69.180  1.00  0.00    -0.228 A  
HETATM   18  C   UNL     1     -11.210   6.762  71.878  1.00  0.00    -0.260 A  
HETATM   19  C   UNL     1     -11.706  11.252  69.930  1.00  0.00    -0.430 A  
HETATM   20  C   UNL     1     -12.342   7.320  72.449  1.00  0.00    -0.010 A  
HETATM   21  N   UNL     1     -10.499   7.432  70.934  1.00  0.00    -0.216 NA 
HETATM   22  C   UNL     1     -10.935   8.663  70.584  1.00  0.00    -0.240 A  
HETATM   23  C   UNL     1     -12.430  10.515  70.877  1.00  0.00    -0.488 A  
HETATM   24  C   UNL     1     -12.068   9.228  71.207  1.00  0.00    -0.337 A  
HETATM   25  C   UNL     1     -10.279   9.391  69.580  1.00  0.00    -0.225 A  
HETATM   26  N   UNL     1     -12.784   8.560  72.131  1.00  0.00    -0.358 NA 
BRANCH  18  27
HETATM   27  C   UNL     1     -10.706   5.454  72.250  1.00  0.00    -0.287 A  
HETATM   28  N   UNL     1     -10.387   3.520  73.246  1.00  0.00    -0.153 NA 
HETATM   29  C   UNL     1     -11.169   4.640  73.265  1.00  0.00    -0.325 A  
HETATM   30  C   UNL     1     -10.479   2.379  74.123  1.00  0.00    -0.142 C  
HETATM   31  N   UNL     1      -9.439   3.543  72.292  1.00  0.00    -0.115 NA 
HETATM   32  C   UNL     1      -9.635   4.720  71.688  1.00  0.00    -0.158 A  
ENDBRANCH  18  27
ENDBRANCH   9  17
ENDBRANCH   5   9
BRANCH   8  33
HETATM   33  O   UNL     1     -13.138  12.555  64.578  1.00  0.00    -0.816 OA 
HETATM   34  C   UNL     1     -12.535  11.989  63.424  1.00  0.00    -0.509 C  
ENDBRANCH   8  33
ENDBRANCH   2   3
TORSDOF 9
ENDMDL
MODEL       80
REMARK 921   NORMALIZED FREE ENERGY PREDICTED BY IDOCK:   -5.85 KCAL/MOL
REMARK 922        TOTAL FREE ENERGY PREDICTED BY IDOCK:  -10.11 KCAL/MOL
REMARK 923 INTER-LIGAND FREE ENERGY PREDICTED BY IDOCK:   -8.82 KCAL/MOL
REMARK 924 INTRA-LIGAND FREE ENERGY PREDICTED BY IDOCK:   -1.28 KCAL/MOL
REMARK 927      BINDING AFFINITY PREDICTED BY RF-SCORE:    0.00 PKD
ROOT
HETATM    1  C   UNL     1     -12.171  13.030  63.511  1.00  0.00    -0.501 C  
HETATM    2  O   UNL     1     -12.702  12.379  64.671  1.00  0.00    -0.599 OA 
ENDROOT
BRANCH   2   3
HETATM    3  C   UNL     1     -12.188  12.845  65.858  1.00  0.00    -0.407 A  
HETATM    4  C   UNL     1     -11.511  11.909  66.673  1.00  0.00    -0.382 A  
HETATM    5  C   UNL     1     -10.824  12.283  67.845  1.00  0.00    -0.218 A  
HETATM    6  C   UNL     1     -10.981  13.639  68.184  1.00  0.00    -0.273 A  
HETATM    7  C   UNL     1     -12.327  14.167  66.269  1.00  0.00    -0.451 A  
HETATM    8  C   UNL     1     -11.726  14.566  67.444  1.00  0.00    -0.400 A  
BRANCH   5   9
HETATM    9  N   UNL     1     -10.024  11.395  68.639  1.00  0.00    -0.207 NA 
BRANCH   9  10
HETATM   10  C   UNL     1      -8.631  11.066  68.195  1.00  0.00    -0.140 C  
BRANCH  10  11
HETATM   11  C   UNL     1      -7.543  12.162  68.340  1.00  0.00    -0.128 C  
BRANCH  11  12
HETATM   12  N   UNL     1      -7.391  13.116  67.242  1.00  0.00    -0.336 NA 
HETATM   13  H   UNL     1      -8.181  13.040  66.602  1.00  0.00     0.000 HD 
BRANCH  12  14
HETATM   14  C   UNL     1      -7.200  14.511  67.637  1.00  0.00    -0.187 C  
HETATM   15  C   UNL     1      -7.982  14.898  68.895  1.00  0.00    -0.163 C  
HETATM   16  C   UNL     1      -5.703  14.713  67.891  1.00  0.00    -0.129 C  
ENDBRANCH  12  14
ENDBRANCH  11  12
ENDBRANCH  10  11
ENDBRANCH   9  10
BRANCH   9  17
HETATM   17  C   UNL     1     -10.553  10.392  69.541  1.00  0.00    -0.246 A  
HETATM   18  C   UNL     1     -10.720   5.884  71.170  1.00  0.00    -0.265 A  
HETATM   19  C   UNL     1     -11.613  10.662  70.412  1.00  0.00    -0.441 A  
HETATM   20  C   UNL     1     -11.878   6.188  71.867  1.00  0.00    -0.257 A  
HETATM   21  N   UNL     1     -10.087   6.825  70.421  1.00  0.00    -0.183 NA 
HETATM   22  C   UNL     1     -10.626   8.065  70.393  1.00  0.00    -0.224 A  
HETATM   23  C   UNL     1     -12.253   9.656  71.146  1.00  0.00    -0.437 A  
HETATM   24  C   UNL     1     -11.784   8.361  71.142  1.00  0.00    -0.280 A  
HETATM   25  C   UNL     1     -10.053   9.071  69.602  1.00  0.00    -0.202 A  
HETATM   26  N   UNL     1     -12.423   7.427  71.871  1.00  0.00    -0.312 NA 
BRANCH  18  27
HETATM   27  C   UNL     1     -10.106   4.571  71.200  1.00  0.00    -0.218 A  
HETATM   28  N   UNL     1      -9.151   2.674  70.629  1.00  0.00    -0.105 NA 
HETATM   29  C   UNL     1      -9.625   3.851  70.123  1.00  0.00    -0.197 A  
HETATM   30  C   UNL     1      -8.553   1.588  69.893  1.00  0.00    -0.050 C  
HETATM   31  N   UNL     1      -9.291   2.568  71.963  1.00  0.00    -0.094 NA 
HETATM   32  C   UNL     1      -9.873   3.722  72.307  1.00  0.00    -0.163 A  
ENDBRANCH  18  27
ENDBRANCH   9  17
ENDBRANCH   5   9
BRANCH   8  33
HETATM   33  O   UNL     1     -11.759  15.822  67.984  1.00  0.00    -0.279 OA 
HETATM   34  C   UNL     1     -11.585  15.927  69.390  1.00  0.00    -0.349 C  
ENDBRANCH   8  33
ENDBRANCH   2   3
TORSDOF 9
ENDMDL
MODEL       81
REMARK 921   NORMALIZED FREE ENERGY PREDICTED BY IDOCK:   -5.83 KCAL/MOL
REMARK 922        TOTAL FREE ENERGY PREDICTED BY IDOCK:  -10.07 KCAL/MOL
REMARK 923 INTER-LIGAND FREE ENERGY PREDICTED BY IDOCK:   -9.14 KCAL/MOL
REMARK 924 INTRA-LIGAND FREE ENERGY PREDICTED BY IDOCK:   -0.93 KCAL/MOL
REMARK 927      BINDING AFFINITY PREDICTED BY RF-SCORE:    0.00 PKD
ROOT
HETATM    1  C   UNL     1      -7.262   8.654  69.887  1.00  0.00    -0.051 C  
HETATM    2  O   UNL     1      -7.721   9.682  69.000  1.00  0.00    -0.073 OA 
ENDROOT
BRANCH   2   3
HETATM    3  C   UNL     1      -8.978  10.154  69.296  1.00  0.00    -0.183 A  
HETATM    4  C   UNL     1      -9.454  11.234  68.517  1.00  0.00    -0.191 A  
HETATM    5  C   UNL     1     -10.771  11.723  68.626  1.00  0.00    -0.220 A  
HETATM    6  C   UNL     1     -11.514  11.121  69.658  1.00  0.00    -0.383 A  
HETATM    7  C   UNL     1      -9.758   9.624  70.318  1.00  0.00    -0.314 A  
HETATM    8  C   UNL     1     -11.033  10.116  70.506  1.00  0.00    -0.310 A  
BRANCH   5   9
HETATM    9  N   UNL     1     -11.338  12.733  67.778  1.00  0.00    -0.275 NA 
BRANCH   9  10
HETATM   10  C   UNL     1     -11.784  12.365  66.395  1.00  0.00    -0.391 C  
BRANCH  10  11
HETATM   11  C   UNL     1     -10.854  12.730  65.210  1.00  0.00    -0.291 C  
BRANCH  11  12
HETATM   12  N   UNL     1      -9.725  11.843  64.934  1.00  0.00    -0.392 NA 
HETATM   13  H   UNL     1      -9.154  11.735  65.772  1.00  0.00     0.000 HD 
BRANCH  12  14
HETATM   14  C   UNL     1     -10.069  10.529  64.393  1.00  0.00    -0.325 C  
HETATM   15  C   UNL     1      -9.369  10.216  63.068  1.00  0.00    -0.330 C  
HETATM   16  C   UNL     1      -9.663   9.484  65.438  1.00  0.00    -0.314 C  
ENDBRANCH  12  14
ENDBRANCH  11  12
ENDBRANCH  10  11
ENDBRANCH   9  10
BRANCH   9  17
HETATM   17  C   UNL     1     -11.081  14.153  67.902  1.00  0.00    -0.268 A  
HETATM   18  C   UNL     1      -8.422  18.033  66.965  1.00  0.00    -0.237 A  
HETATM   19  C   UNL     1     -11.848  14.976  68.732  1.00  0.00    -0.331 A  
HETATM   20  C   UNL     1      -9.116  18.733  67.939  1.00  0.00    -0.291 A  
HETATM   21  N   UNL     1      -8.716  16.734  66.694  1.00  0.00    -0.227 NA 
HETATM   22  C   UNL     1      -9.714  16.160  67.403  1.00  0.00    -0.233 A  
HETATM   23  C   UNL     1     -11.493  16.304  69.004  1.00  0.00    -0.268 A  
HETATM   24  C   UNL     1     -10.433  16.905  68.361  1.00  0.00    -0.355 A  
HETATM   25  C   UNL     1     -10.038  14.809  67.210  1.00  0.00    -0.236 A  
HETATM   26  N   UNL     1     -10.133  18.186  68.645  1.00  0.00    -0.387 NA 
BRANCH  18  27
HETATM   27  C   UNL     1      -7.363  18.627  66.174  1.00  0.00    -0.291 A  
HETATM   28  N   UNL     1      -6.152  20.012  64.967  1.00  0.00    -0.231 NA 
HETATM   29  C   UNL     1      -7.337  19.900  65.638  1.00  0.00    -0.296 A  
HETATM   30  C   UNL     1      -5.669  21.156  64.236  1.00  0.00    -0.215 C  
HETATM   31  N   UNL     1      -5.399  18.898  65.022  1.00  0.00    -0.174 NA 
HETATM   32  C   UNL     1      -6.138  18.058  65.755  1.00  0.00    -0.225 A  
ENDBRANCH  18  27
ENDBRANCH   9  17
ENDBRANCH   5   9
BRANCH   8  33
HETATM   33  O   UNL     1     -11.927   9.704  71.455  1.00  0.00    -0.358 OA 
HETATM   34  C   UNL     1     -13.031  10.558  71.718  1.00  0.00    -0.476 C  
ENDBRANCH   8  33
ENDBRANCH   2   3
TORSDOF 9
ENDMDL
MODEL       82
REMARK 921   NORMALIZED FREE ENERGY PREDICTED BY IDOCK:   -5.82 KCAL/MOL
REMARK 922        TOTAL FREE ENERGY PREDICTED BY IDOCK:  -10.05 KCAL/MOL
REMARK 923 INTER-LIGAND FREE ENERGY PREDICTED BY IDOCK:   -8.65 KCAL/MOL
REMARK 924 INTRA-LIGAND FREE ENERGY PREDICTED BY IDOCK:   -1.40 KCAL/MOL
REMARK 927      BINDING AFFINITY PREDICTED BY RF-SCORE:    0.00 PKD
ROOT
HETATM    1  C   UNL     1     -10.713   5.687  71.710  1.00  0.00    -0.244 C  
HETATM    2  O   UNL     1     -11.294   6.740  72.490  1.00  0.00    -0.262 OA 
ENDROOT
BRANCH   2   3
HETATM    3  C   UNL     1     -11.367   7.947  71.833  1.00  0.00    -0.276 A  
HETATM    4  C   UNL     1     -10.402   8.186  70.828  1.00  0.00    -0.217 A  
HETATM    5  C   UNL     1     -10.446   9.319  69.992  1.00  0.00    -0.226 A  
HETATM    6  C   UNL     1     -11.457  10.235  70.333  1.00  0.00    -0.415 A  
HETATM    7  C   UNL     1     -12.324   8.909  72.136  1.00  0.00    -0.449 A  
HETATM    8  C   UNL     1     -12.365  10.066  71.386  1.00  0.00    -0.415 A  
BRANCH   5   9
HETATM    9  N   UNL     1      -9.564   9.547  68.882  1.00  0.00    -0.153 NA 
BRANCH   9  10
HETATM   10  C   UNL     1      -8.844   8.387  68.266  1.00  0.00    -0.139 C  
BRANCH  10  11
HETATM   11  C   UNL     1      -8.512   8.457  66.753  1.00  0.00    -0.114 C  
BRANCH  11  12
HETATM   12  N   UNL     1      -9.615   8.708  65.826  1.00  0.00    -0.457 NA 
HETATM   13  H   UNL     1     -10.390   9.149  66.320  1.00  0.00     0.000 HD 
BRANCH  12  14
HETATM   14  C   UNL     1      -9.277   9.482  64.633  1.00  0.00    -0.185 C  
HETATM   15  C   UNL     1     -10.024  10.815  64.543  1.00  0.00    -0.395 C  
HETATM   16  C   UNL     1      -7.769   9.751  64.676  1.00  0.00    -0.136 C  
ENDBRANCH  12  14
ENDBRANCH  11  12
ENDBRANCH  10  11
ENDBRANCH   9  10
BRANCH   9  17
HETATM   17  C   UNL     1      -8.903  10.805  68.601  1.00  0.00    -0.152 A  
HETATM   18  C   UNL     1      -8.888  15.200  66.682  1.00  0.00    -0.286 A  
HETATM   19  C   UNL     1      -7.554  11.018  68.903  1.00  0.00    -0.134 A  
HETATM   20  C   UNL     1      -7.514  15.260  66.852  1.00  0.00     0.048 A  
HETATM   21  N   UNL     1      -9.593  14.103  67.063  1.00  0.00    -0.252 NA 
HETATM   22  C   UNL     1      -8.903  13.083  67.622  1.00  0.00    -0.191 A  
HETATM   23  C   UNL     1      -6.860  12.153  68.466  1.00  0.00    -0.086 A  
HETATM   24  C   UNL     1      -7.510  13.183  67.822  1.00  0.00    -0.150 A  
HETATM   25  C   UNL     1      -9.559  11.900  67.995  1.00  0.00    -0.193 A  
HETATM   26  N   UNL     1      -6.806  14.261  67.429  1.00  0.00    -0.251 NA 
BRANCH  18  27
HETATM   27  C   UNL     1      -9.657  16.286  66.107  1.00  0.00    -0.362 A  
HETATM   28  N   UNL     1     -10.590  18.241  65.725  1.00  0.00    -0.563 NA 
HETATM   29  C   UNL     1      -9.750  17.582  66.578  1.00  0.00    -0.295 A  
HETATM   30  C   UNL     1     -11.003  19.620  65.803  1.00  0.00    -0.166 C  
HETATM   31  N   UNL     1     -11.058  17.467  64.729  1.00  0.00    -0.812 NA 
HETATM   32  C   UNL     1     -10.490  16.280  64.964  1.00  0.00    -0.130 A  
ENDBRANCH  18  27
ENDBRANCH   9  17
ENDBRANCH   5   9
BRANCH   8  33
HETATM   33  O   UNL     1     -13.241  11.104  71.547  1.00  0.00    -0.388 OA 
HETATM   34  C   UNL     1     -12.824  12.381  71.087  1.00  0.00    -0.205 C  
ENDBRANCH   8  33
ENDBRANCH   2   3
TORSDOF 9
ENDMDL
MODEL       83
REMARK 921   NORMALIZED FREE ENERGY PREDICTED BY IDOCK:   -5.81 KCAL/MOL
REMARK 922        TOTAL FREE ENERGY PREDICTED BY IDOCK:  -10.04 KCAL/MOL
REMARK 923 INTER-LIGAND FREE ENERGY PREDICTED BY IDOCK:   -8.69 KCAL/MOL
REMARK 924 INTRA-LIGAND FREE ENERGY PREDICTED BY IDOCK:   -1.36 KCAL/MOL
REMARK 927      BINDING AFFINITY PREDICTED BY RF-SCORE:    0.00 PKD
ROOT
HETATM    1  C   UNL     1      -6.030  16.707  69.079  1.00  0.00    -0.156 C  
HETATM    2  O   UNL     1      -6.531  15.368  69.172  1.00  0.00    -0.115 OA 
ENDROOT
BRANCH   2   3
HETATM    3  C   UNL     1      -7.782  15.201  68.625  1.00  0.00    -0.126 A  
HETATM    4  C   UNL     1      -8.231  13.871  68.451  1.00  0.00    -0.153 A  
HETATM    5  C   UNL     1      -9.539  13.563  68.028  1.00  0.00    -0.221 A  
HETATM    6  C   UNL     1     -10.303  14.693  67.683  1.00  0.00    -0.233 A  
HETATM    7  C   UNL     1      -8.581  16.271  68.238  1.00  0.00    -0.196 A  
HETATM    8  C   UNL     1      -9.848  16.016  67.756  1.00  0.00    -0.231 A  
BRANCH   5   9
HETATM    9  N   UNL     1     -10.080  12.236  67.952  1.00  0.00    -0.194 NA 
BRANCH   9  10
HETATM   10  C   UNL     1     -10.511  11.693  66.623  1.00  0.00    -0.233 C  
BRANCH  10  11
HETATM   11  C   UNL     1      -9.622  11.995  65.390  1.00  0.00    -0.132 C  
BRANCH  11  12
HETATM   12  N   UNL     1     -10.211  12.773  64.301  1.00  0.00    -0.541 NA 
HETATM   13  H   UNL     1     -10.030  12.315  63.408  1.00  0.00     0.000 HD 
BRANCH  12  14
HETATM   14  C   UNL     1     -11.638  13.064  64.431  1.00  0.00    -0.369 C  
HETATM   15  C   UNL     1     -11.964  14.557  64.337  1.00  0.00    -0.467 C  
HETATM   16  C   UNL     1     -12.361  12.318  63.305  1.00  0.00    -0.518 C  
ENDBRANCH  12  14
ENDBRANCH  11  12
ENDBRANCH  10  11
ENDBRANCH   9  10
BRANCH   9  17
HETATM   17  C   UNL     1     -10.719  11.543  69.051  1.00  0.00    -0.193 A  
HETATM   18  C   UNL     1     -11.212   7.688  71.863  1.00  0.00    -0.257 A  
HETATM   19  C   UNL     1     -11.826  12.074  69.720  1.00  0.00    -0.401 A  
HETATM   20  C   UNL     1     -12.403   8.205  72.347  1.00  0.00    -0.294 A  
HETATM   21  N   UNL     1     -10.483   8.362  70.935  1.00  0.00    -0.192 NA 
HETATM   22  C   UNL     1     -10.961   9.555  70.514  1.00  0.00    -0.288 A  
HETATM   23  C   UNL     1     -12.564  11.333  70.652  1.00  0.00    -0.377 A  
HETATM   24  C   UNL     1     -12.156  10.079  71.051  1.00  0.00    -0.373 A  
HETATM   25  C   UNL     1     -10.286  10.282  69.522  1.00  0.00    -0.267 A  
HETATM   26  N   UNL     1     -12.889   9.406  71.958  1.00  0.00    -0.396 NA 
BRANCH  18  27
HETATM   27  C   UNL     1     -10.663   6.423  72.311  1.00  0.00    -0.253 A  
HETATM   28  N   UNL     1      -9.326   4.720  72.697  1.00  0.00    -0.129 NA 
HETATM   29  C   UNL     1      -9.380   5.953  72.109  1.00  0.00    -0.145 A  
HETATM   30  C   UNL     1      -8.194   3.829  72.747  1.00  0.00    -0.090 C  
HETATM   31  N   UNL     1     -10.486   4.347  73.268  1.00  0.00    -0.171 NA 
HETATM   32  C   UNL     1     -11.296   5.384  73.031  1.00  0.00    -0.293 A  
ENDBRANCH  18  27
ENDBRANCH   9  17
ENDBRANCH   5   9
BRANCH   8  33
HETATM   33  O   UNL     1     -10.759  16.948  67.341  1.00  0.00    -0.316 OA 
HETATM   34  C   UNL     1     -10.298  17.951  66.448  1.00  0.00    -0.365 C  
ENDBRANCH   8  33
ENDBRANCH   2   3
TORSDOF 9
ENDMDL
MODEL       84
REMARK 921   NORMALIZED FREE ENERGY PREDICTED BY IDOCK:   -5.80 KCAL/MOL
REMARK 922        TOTAL FREE ENERGY PREDICTED BY IDOCK:  -10.03 KCAL/MOL
REMARK 923 INTER-LIGAND FREE ENERGY PREDICTED BY IDOCK:   -9.04 KCAL/MOL
REMARK 924 INTRA-LIGAND FREE ENERGY PREDICTED BY IDOCK:   -1.00 KCAL/MOL
REMARK 927      BINDING AFFINITY PREDICTED BY RF-SCORE:    0.00 PKD
ROOT
HETATM    1  C   UNL     1     -12.952  14.080  72.335  1.00  0.00    -0.381 C  
HETATM    2  O   UNL     1     -13.299  14.469  71.000  1.00  0.00    -0.369 OA 
ENDROOT
BRANCH   2   3
HETATM    3  C   UNL     1     -12.228  14.890  70.245  1.00  0.00    -0.335 A  
HETATM    4  C   UNL     1     -11.462  13.886  69.609  1.00  0.00    -0.310 A  
HETATM    5  C   UNL     1     -10.425  14.186  68.703  1.00  0.00    -0.250 A  
HETATM    6  C   UNL     1     -10.152  15.562  68.592  1.00  0.00    -0.210 A  
HETATM    7  C   UNL     1     -11.885  16.231  70.112  1.00  0.00     0.019 A  
HETATM    8  C   UNL     1     -10.835  16.570  69.285  1.00  0.00    -0.326 A  
BRANCH   5   9
HETATM    9  N   UNL     1      -9.700  13.209  67.942  1.00  0.00    -0.215 NA 
BRANCH   9  10
HETATM   10  C   UNL     1      -8.952  13.640  66.717  1.00  0.00    -0.181 C  
BRANCH  10  11
HETATM   11  C   UNL     1      -9.726  14.434  65.633  1.00  0.00    -0.224 C  
BRANCH  11  12
HETATM   12  N   UNL     1     -10.169  13.705  64.444  1.00  0.00    -0.712 NA 
HETATM   13  H   UNL     1      -9.893  12.726  64.514  1.00  0.00     0.000 HD 
BRANCH  12  14
HETATM   14  C   UNL     1     -11.595  13.802  64.136  1.00  0.00    -0.331 C  
HETATM   15  C   UNL     1     -12.242  12.450  63.827  1.00  0.00    -0.626 C  
HETATM   16  C   UNL     1     -12.284  14.426  65.354  1.00  0.00    -0.362 C  
ENDBRANCH  12  14
ENDBRANCH  11  12
ENDBRANCH  10  11
ENDBRANCH   9  10
BRANCH   9  17
HETATM   17  C   UNL     1     -10.003  11.793  67.919  1.00  0.00    -0.181 A  
HETATM   18  C   UNL     1     -10.403   7.553  70.125  1.00  0.00    -0.216 A  
HETATM   19  C   UNL     1     -10.272  11.110  66.729  1.00  0.00    -0.272 A  
HETATM   20  C   UNL     1     -10.482   6.928  68.890  1.00  0.00    -0.208 A  
HETATM   21  N   UNL     1     -10.268   8.902  70.219  1.00  0.00    -0.192 NA 
HETATM   22  C   UNL     1     -10.225   9.605  69.064  1.00  0.00    -0.199 A  
HETATM   23  C   UNL     1     -10.377   9.715  66.674  1.00  0.00    -0.279 A  
HETATM   24  C   UNL     1     -10.347   8.951  67.821  1.00  0.00    -0.242 A  
HETATM   25  C   UNL     1     -10.038  10.995  69.085  1.00  0.00    -0.167 A  
HETATM   26  N   UNL     1     -10.464   7.613  67.723  1.00  0.00    -0.221 NA 
BRANCH  18  27
HETATM   27  C   UNL     1     -10.469   6.828  71.378  1.00  0.00    -0.238 A  
HETATM   28  N   UNL     1     -10.638   5.243  72.894  1.00  0.00    -0.212 NA 
HETATM   29  C   UNL     1     -10.618   5.465  71.546  1.00  0.00    -0.216 A  
HETATM   30  C   UNL     1     -10.780   3.975  73.566  1.00  0.00    -0.221 C  
HETATM   31  N   UNL     1     -10.518   6.367  73.624  1.00  0.00    -0.275 NA 
HETATM   32  C   UNL     1     -10.416   7.328  72.700  1.00  0.00    -0.246 A  
ENDBRANCH  18  27
ENDBRANCH   9  17
ENDBRANCH   5   9
BRANCH   8  33
HETATM   33  O   UNL     1     -10.374  17.834  69.039  1.00  0.00    -0.359 OA 
HETATM   34  C   UNL     1      -9.252  17.958  68.177  1.00  0.00    -0.278 C  
ENDBRANCH   8  33
ENDBRANCH   2   3
TORSDOF 9
ENDMDL
MODEL       85
REMARK 921   NORMALIZED FREE ENERGY PREDICTED BY IDOCK:   -5.80 KCAL/MOL
REMARK 922        TOTAL FREE ENERGY PREDICTED BY IDOCK:  -10.02 KCAL/MOL
REMARK 923 INTER-LIGAND FREE ENERGY PREDICTED BY IDOCK:   -8.75 KCAL/MOL
REMARK 924 INTRA-LIGAND FREE ENERGY PREDICTED BY IDOCK:   -1.27 KCAL/MOL
REMARK 927      BINDING AFFINITY PREDICTED BY RF-SCORE:    0.00 PKD
ROOT
HETATM    1  C   UNL     1      -9.521   7.662  69.131  1.00  0.00    -0.154 C  
HETATM    2  O   UNL     1     -10.707   8.288  68.627  1.00  0.00    -0.150 OA 
ENDROOT
BRANCH   2   3
HETATM    3  C   UNL     1     -10.467   9.279  67.705  1.00  0.00    -0.264 A  
HETATM    4  C   UNL     1     -10.555  10.613  68.164  1.00  0.00    -0.237 A  
HETATM    5  C   UNL     1     -10.203  11.716  67.360  1.00  0.00    -0.203 A  
HETATM    6  C   UNL     1      -9.880  11.369  66.036  1.00  0.00    -0.256 A  
HETATM    7  C   UNL     1     -10.168   9.010  66.374  1.00  0.00    -0.297 A  
HETATM    8  C   UNL     1      -9.879  10.063  65.530  1.00  0.00    -0.303 A  
BRANCH   5   9
HETATM    9  N   UNL     1     -10.158  13.076  67.816  1.00  0.00    -0.224 NA 
BRANCH   9  10
HETATM   10  C   UNL     1     -11.411  13.898  67.800  1.00  0.00    -0.323 C  
BRANCH  10  11
HETATM   11  C   UNL     1     -11.898  14.508  69.140  1.00  0.00    -0.319 C  
BRANCH  11  12
HETATM   12  N   UNL     1     -11.925  13.637  70.313  1.00  0.00    -0.416 NA 
HETATM   13  H   UNL     1     -10.989  13.277  70.501  1.00  0.00     0.000 HD 
BRANCH  12  14
HETATM   14  C   UNL     1     -12.486  14.226  71.528  1.00  0.00    -0.356 C  
HETATM   15  C   UNL     1     -13.144  15.588  71.294  1.00  0.00    -0.581 C  
HETATM   16  C   UNL     1     -13.531  13.246  72.071  1.00  0.00    -0.596 C  
ENDBRANCH  12  14
ENDBRANCH  11  12
ENDBRANCH  10  11
ENDBRANCH   9  10
BRANCH   9  17
HETATM   17  C   UNL     1      -8.970  13.904  67.821  1.00  0.00    -0.188 A  
HETATM   18  C   UNL     1      -6.426  17.601  66.129  1.00  0.00    -0.249 A  
HETATM   19  C   UNL     1      -7.851  13.592  68.598  1.00  0.00    -0.084 A  
HETATM   20  C   UNL     1      -5.307  17.122  66.789  1.00  0.00    -0.170 A  
HETATM   21  N   UNL     1      -7.616  16.949  66.205  1.00  0.00    -0.276 NA 
HETATM   22  C   UNL     1      -7.664  15.826  66.956  1.00  0.00    -0.232 A  
HETATM   23  C   UNL     1      -6.635  14.275  68.467  1.00  0.00    -0.095 A  
HETATM   24  C   UNL     1      -6.521  15.379  67.651  1.00  0.00    -0.165 A  
HETATM   25  C   UNL     1      -8.846  15.076  67.040  1.00  0.00    -0.257 A  
HETATM   26  N   UNL     1      -5.336  16.013  67.564  1.00  0.00    -0.237 NA 
BRANCH  18  27
HETATM   27  C   UNL     1      -6.411  18.814  65.335  1.00  0.00    -0.308 A  
HETATM   28  N   UNL     1      -5.961  20.334  63.809  1.00  0.00    -0.262 NA 
HETATM   29  C   UNL     1      -5.653  19.063  64.208  1.00  0.00    -0.276 A  
HETATM   30  C   UNL     1      -5.421  21.048  62.680  1.00  0.00    -0.216 C  
HETATM   31  N   UNL     1      -6.867  20.938  64.600  1.00  0.00    -0.085 NA 
HETATM   32  C   UNL     1      -7.138  20.013  65.526  1.00  0.00    -0.310 A  
ENDBRANCH  18  27
ENDBRANCH   9  17
ENDBRANCH   5   9
BRANCH   8  33
HETATM   33  O   UNL     1      -9.560   9.972  64.203  1.00  0.00    -0.292 OA 
HETATM   34  C   UNL     1     -10.069  10.982  63.345  1.00  0.00    -0.370 C  
ENDBRANCH   8  33
ENDBRANCH   2   3
TORSDOF 9
ENDMDL
MODEL       86
REMARK 921   NORMALIZED FREE ENERGY PREDICTED BY IDOCK:   -5.78 KCAL/MOL
REMARK 922        TOTAL FREE ENERGY PREDICTED BY IDOCK:  -10.00 KCAL/MOL
REMARK 923 INTER-LIGAND FREE ENERGY PREDICTED BY IDOCK:   -8.83 KCAL/MOL
REMARK 924 INTRA-LIGAND FREE ENERGY PREDICTED BY IDOCK:   -1.17 KCAL/MOL
REMARK 927      BINDING AFFINITY PREDICTED BY RF-SCORE:    0.00 PKD
ROOT
HETATM    1  C   UNL     1     -12.397  15.248  64.084  1.00  0.00    -0.044 C  
HETATM    2  O   UNL     1     -12.631  13.938  63.552  1.00  0.00    -0.842 OA 
ENDROOT
BRANCH   2   3
HETATM    3  C   UNL     1     -11.864  12.954  64.131  1.00  0.00    -0.414 A  
HETATM    4  C   UNL     1     -11.858  12.899  65.544  1.00  0.00    -0.455 A  
HETATM    5  C   UNL     1     -11.224  11.862  66.258  1.00  0.00    -0.337 A  
HETATM    6  C   UNL     1     -10.506  10.970  65.441  1.00  0.00    -0.306 A  
HETATM    7  C   UNL     1     -11.110  12.054  63.387  1.00  0.00    -0.476 A  
HETATM    8  C   UNL     1     -10.419  11.059  64.046  1.00  0.00    -0.366 A  
BRANCH   5   9
HETATM    9  N   UNL     1     -11.291  11.694  67.682  1.00  0.00    -0.297 NA 
BRANCH   9  10
HETATM   10  C   UNL     1     -12.001  12.722  68.510  1.00  0.00    -0.225 C  
BRANCH  10  11
HETATM   11  C   UNL     1     -11.228  14.010  68.891  1.00  0.00    -0.272 C  
BRANCH  11  12
HETATM   12  N   UNL     1     -11.464  15.207  68.085  1.00  0.00    -0.333 NA 
HETATM   13  H   UNL     1     -12.201  15.772  68.507  1.00  0.00     0.000 HD 
BRANCH  12  14
HETATM   14  C   UNL     1     -10.288  16.036  67.822  1.00  0.00    -0.279 C  
HETATM   15  C   UNL     1     -10.290  17.355  68.599  1.00  0.00    -0.364 C  
HETATM   16  C   UNL     1      -9.055  15.218  68.219  1.00  0.00    -0.181 C  
ENDBRANCH  12  14
ENDBRANCH  11  12
ENDBRANCH  10  11
ENDBRANCH   9  10
BRANCH   9  17
HETATM   17  C   UNL     1     -10.342  10.930  68.466  1.00  0.00    -0.187 A  
HETATM   18  C   UNL     1      -9.353   7.653  71.825  1.00  0.00    -0.145 A  
HETATM   19  C   UNL     1      -8.967  11.172  68.409  1.00  0.00    -0.165 A  
HETATM   20  C   UNL     1      -8.034   8.078  71.838  1.00  0.00    -0.115 A  
HETATM   21  N   UNL     1     -10.265   8.231  71.001  1.00  0.00    -0.188 NA 
HETATM   22  C   UNL     1      -9.833   9.224  70.191  1.00  0.00    -0.215 A  
HETATM   23  C   UNL     1      -8.064  10.573  69.297  1.00  0.00    -0.152 A  
HETATM   24  C   UNL     1      -8.477   9.612  70.193  1.00  0.00    -0.204 A  
HETATM   25  C   UNL     1     -10.730   9.898  69.350  1.00  0.00    -0.255 A  
HETATM   26  N   UNL     1      -7.573   9.054  71.021  1.00  0.00    -0.131 NA 
BRANCH  18  27
HETATM   27  C   UNL     1      -9.840   6.577  72.665  1.00  0.00    -0.179 A  
HETATM   28  N   UNL     1     -10.640   4.659  73.387  1.00  0.00    -0.203 NA 
HETATM   29  C   UNL     1     -10.262   5.327  72.256  1.00  0.00    -0.199 A  
HETATM   30  C   UNL     1     -11.158   3.317  73.474  1.00  0.00    -0.216 C  
HETATM   31  N   UNL     1     -10.499   5.386  74.511  1.00  0.00    -0.294 NA 
HETATM   32  C   UNL     1     -10.014   6.551  74.068  1.00  0.00    -0.299 A  
ENDBRANCH  18  27
ENDBRANCH   9  17
ENDBRANCH   5   9
BRANCH   8  33
HETATM   33  O   UNL     1      -9.639  10.095  63.468  1.00  0.00    -0.293 OA 
HETATM   34  C   UNL     1      -8.736   9.399  64.314  1.00  0.00    -0.197 C  
ENDBRANCH   8  33
ENDBRANCH   2   3
TORSDOF 9
ENDMDL
MODEL       87
REMARK 921   NORMALIZED FREE ENERGY PREDICTED BY IDOCK:   -5.76 KCAL/MOL
REMARK 922        TOTAL FREE ENERGY PREDICTED BY IDOCK:   -9.96 KCAL/MOL
REMARK 923 INTER-LIGAND FREE ENERGY PREDICTED BY IDOCK:   -8.36 KCAL/MOL
REMARK 924 INTRA-LIGAND FREE ENERGY PREDICTED BY IDOCK:   -1.60 KCAL/MOL
REMARK 927      BINDING AFFINITY PREDICTED BY RF-SCORE:    0.00 PKD
ROOT
HETATM    1  C   UNL     1      -6.679   8.252  73.610  1.00  0.00    -0.122 C  
HETATM    2  O   UNL     1      -6.057   9.106  72.642  1.00  0.00    -0.254 OA 
ENDROOT
BRANCH   2   3
HETATM    3  C   UNL     1      -6.524   8.931  71.360  1.00  0.00    -0.076 A  
HETATM    4  C   UNL     1      -7.927   8.954  71.184  1.00  0.00    -0.181 A  
HETATM    5  C   UNL     1      -8.530   8.921  69.911  1.00  0.00    -0.135 A  
HETATM    6  C   UNL     1      -7.616   8.742  68.857  1.00  0.00    -0.091 A  
HETATM    7  C   UNL     1      -5.680   8.724  70.275  1.00  0.00    -0.027 A  
HETATM    8  C   UNL     1      -6.230   8.621  69.014  1.00  0.00    -0.044 A  
BRANCH   5   9
HETATM    9  N   UNL     1      -9.938   9.063  69.672  1.00  0.00    -0.185 NA 
BRANCH   9  10
HETATM   10  C   UNL     1     -10.652   8.033  68.851  1.00  0.00    -0.140 C  
BRANCH  10  11
HETATM   11  C   UNL     1     -10.879   6.633  69.478  1.00  0.00    -0.289 C  
BRANCH  11  12
HETATM   12  N   UNL     1     -11.685   6.556  70.695  1.00  0.00    -0.390 NA 
HETATM   13  H   UNL     1     -12.342   5.779  70.629  1.00  0.00     0.000 HD 
BRANCH  12  14
HETATM   14  C   UNL     1     -10.936   6.471  71.947  1.00  0.00    -0.250 C  
HETATM   15  C   UNL     1     -11.088   7.711  72.832  1.00  0.00    -0.448 C  
HETATM   16  C   UNL     1     -11.452   5.244  72.706  1.00  0.00    -0.317 C  
ENDBRANCH  12  14
ENDBRANCH  11  12
ENDBRANCH  10  11
ENDBRANCH   9  10
BRANCH   9  17
HETATM   17  C   UNL     1     -10.656  10.321  69.702  1.00  0.00    -0.256 A  
HETATM   18  C   UNL     1     -11.236  14.855  68.247  1.00  0.00    -0.294 A  
HETATM   19  C   UNL     1     -11.705  10.557  70.595  1.00  0.00    -0.453 A  
HETATM   20  C   UNL     1     -12.138  15.061  69.278  1.00  0.00    -0.247 A  
HETATM   21  N   UNL     1     -10.637  13.648  68.073  1.00  0.00    -0.244 NA 
HETATM   22  C   UNL     1     -10.964  12.659  68.936  1.00  0.00    -0.229 A  
HETATM   23  C   UNL     1     -12.276  11.825  70.761  1.00  0.00    -0.424 A  
HETATM   24  C   UNL     1     -11.915  12.881  69.954  1.00  0.00    -0.307 A  
HETATM   25  C   UNL     1     -10.347  11.403  68.845  1.00  0.00    -0.203 A  
HETATM   26  N   UNL     1     -12.498  14.081  70.140  1.00  0.00    -0.341 NA 
BRANCH  18  27
HETATM   27  C   UNL     1     -10.883  15.888  67.293  1.00  0.00    -0.279 A  
HETATM   28  N   UNL     1     -10.412  17.818  66.350  1.00  0.00    -0.332 NA 
HETATM   29  C   UNL     1     -10.738  17.239  67.544  1.00  0.00    -0.278 A  
HETATM   30  C   UNL     1     -10.164  19.216  66.099  1.00  0.00    -0.463 C  
HETATM   31  N   UNL     1     -10.338  16.942  65.331  1.00  0.00    -0.638 NA 
HETATM   32  C   UNL     1     -10.626  15.770  65.908  1.00  0.00    -0.339 A  
ENDBRANCH  18  27
ENDBRANCH   9  17
ENDBRANCH   5   9
BRANCH   8  33
HETATM   33  O   UNL     1      -5.545   8.424  67.846  1.00  0.00    -0.034 OA 
HETATM   34  C   UNL     1      -6.298   8.446  66.643  1.00  0.00    -0.055 C  
ENDBRANCH   8  33
ENDBRANCH   2   3
TORSDOF 9
ENDMDL
MODEL       88
REMARK 921   NORMALIZED FREE ENERGY PREDICTED BY IDOCK:   -5.74 KCAL/MOL
REMARK 922        TOTAL FREE ENERGY PREDICTED BY IDOCK:   -9.94 KCAL/MOL
REMARK 923 INTER-LIGAND FREE ENERGY PREDICTED BY IDOCK:   -8.50 KCAL/MOL
REMARK 924 INTRA-LIGAND FREE ENERGY PREDICTED BY IDOCK:   -1.44 KCAL/MOL
REMARK 927      BINDING AFFINITY PREDICTED BY RF-SCORE:    0.00 PKD
ROOT
HETATM    1  C   UNL     1      -6.385   6.896  70.696  1.00  0.00    -0.046 C  
HETATM    2  O   UNL     1      -6.963   8.085  71.248  1.00  0.00    -0.051 OA 
ENDROOT
BRANCH   2   3
HETATM    3  C   UNL     1      -8.338   8.102  71.222  1.00  0.00    -0.121 A  
HETATM    4  C   UNL     1      -8.949   9.020  70.337  1.00  0.00    -0.235 A  
HETATM    5  C   UNL     1     -10.340   9.046  70.116  1.00  0.00    -0.210 A  
HETATM    6  C   UNL     1     -11.061   8.164  70.942  1.00  0.00    -0.280 A  
HETATM    7  C   UNL     1      -9.114   7.277  72.029  1.00  0.00    -0.144 A  
HETATM    8  C   UNL     1     -10.486   7.314  71.894  1.00  0.00    -0.200 A  
BRANCH   5   9
HETATM    9  N   UNL     1     -10.995   9.872  69.142  1.00  0.00    -0.220 NA 
BRANCH   9  10
HETATM   10  C   UNL     1     -10.883   9.525  67.688  1.00  0.00    -0.187 C  
BRANCH  10  11
HETATM   11  C   UNL     1     -10.309   8.134  67.315  1.00  0.00    -0.303 C  
BRANCH  11  12
HETATM   12  N   UNL     1     -11.233   7.001  67.298  1.00  0.00    -0.613 NA 
HETATM   13  H   UNL     1     -11.735   6.974  66.410  1.00  0.00     0.000 HD 
BRANCH  12  14
HETATM   14  C   UNL     1     -10.638   5.694  67.574  1.00  0.00    -0.221 C  
HETATM   15  C   UNL     1     -10.391   4.861  66.313  1.00  0.00    -0.336 C  
HETATM   16  C   UNL     1      -9.304   5.941  68.285  1.00  0.00    -0.118 C  
ENDBRANCH  12  14
ENDBRANCH  11  12
ENDBRANCH  10  11
ENDBRANCH   9  10
BRANCH   9  17
HETATM   17  C   UNL     1     -11.333  11.267  69.339  1.00  0.00    -0.292 A  
HETATM   18  C   UNL     1     -10.708  15.916  68.339  1.00  0.00    -0.281 A  
HETATM   19  C   UNL     1     -12.227  11.681  70.330  1.00  0.00    -0.434 A  
HETATM   20  C   UNL     1     -11.462  16.248  69.454  1.00  0.00    -0.238 A  
HETATM   21  N   UNL     1     -10.478  14.618  68.012  1.00  0.00    -0.234 NA 
HETATM   22  C   UNL     1     -11.020  13.669  68.809  1.00  0.00    -0.264 A  
HETATM   23  C   UNL     1     -12.414  13.031  70.653  1.00  0.00    -0.347 A  
HETATM   24  C   UNL     1     -11.817  14.030  69.915  1.00  0.00    -0.329 A  
HETATM   25  C   UNL     1     -10.782  12.309  68.559  1.00  0.00    -0.261 A  
HETATM   26  N   UNL     1     -12.033  15.316  70.252  1.00  0.00    -0.304 NA 
BRANCH  18  27
HETATM   27  C   UNL     1     -10.134  16.910  67.455  1.00  0.00    -0.279 A  
HETATM   28  N   UNL     1      -9.653  18.793  66.423  1.00  0.00    -0.335 NA 
HETATM   29  C   UNL     1     -10.426  18.260  67.417  1.00  0.00    -0.409 A  
HETATM   30  C   UNL     1      -9.608  20.169  65.998  1.00  0.00    -0.276 C  
HETATM   31  N   UNL     1      -8.878  17.885  65.803  1.00  0.00    -0.377 NA 
HETATM   32  C   UNL     1      -9.172  16.742  66.431  1.00  0.00    -0.279 A  
ENDBRANCH  18  27
ENDBRANCH   9  17
ENDBRANCH   5   9
BRANCH   8  33
HETATM   33  O   UNL     1     -11.389   6.568  72.602  1.00  0.00    -0.257 OA 
HETATM   34  C   UNL     1     -12.684   6.417  72.041  1.00  0.00    -0.017 C  
ENDBRANCH   8  33
ENDBRANCH   2   3
TORSDOF 9
ENDMDL
MODEL       89
REMARK 921   NORMALIZED FREE ENERGY PREDICTED BY IDOCK:   -5.74 KCAL/MOL
REMARK 922        TOTAL FREE ENERGY PREDICTED BY IDOCK:   -9.93 KCAL/MOL
REMARK 923 INTER-LIGAND FREE ENERGY PREDICTED BY IDOCK:   -9.02 KCAL/MOL
REMARK 924 INTRA-LIGAND FREE ENERGY PREDICTED BY IDOCK:   -0.92 KCAL/MOL
REMARK 927      BINDING AFFINITY PREDICTED BY RF-SCORE:    0.00 PKD
ROOT
HETATM    1  C   UNL     1     -12.277  15.075  64.170  1.00  0.00    -0.211 C  
HETATM    2  O   UNL     1     -12.530  13.673  64.012  1.00  0.00    -0.659 OA 
ENDROOT
BRANCH   2   3
HETATM    3  C   UNL     1     -11.912  12.884  64.953  1.00  0.00    -0.392 A  
HETATM    4  C   UNL     1     -12.127  13.221  66.309  1.00  0.00    -0.472 A  
HETATM    5  C   UNL     1     -11.663  12.418  67.371  1.00  0.00    -0.347 A  
HETATM    6  C   UNL     1     -10.872  11.332  66.955  1.00  0.00    -0.332 A  
HETATM    7  C   UNL     1     -11.095  11.811  64.614  1.00  0.00    -0.363 A  
HETATM    8  C   UNL     1     -10.565  11.033  65.622  1.00  0.00    -0.197 A  
BRANCH   5   9
HETATM    9  N   UNL     1     -11.958  12.650  68.757  1.00  0.00    -0.289 NA 
BRANCH   9  10
HETATM   10  C   UNL     1     -11.801  14.030  69.320  1.00  0.00    -0.344 C  
BRANCH  10  11
HETATM   11  C   UNL     1     -10.683  14.931  68.736  1.00  0.00    -0.252 C  
BRANCH  11  12
HETATM   12  N   UNL     1      -9.302  14.631  69.113  1.00  0.00    -0.378 NA 
HETATM   13  H   UNL     1      -9.232  13.668  69.442  1.00  0.00     0.000 HD 
BRANCH  12  14
HETATM   14  C   UNL     1      -8.295  14.881  68.083  1.00  0.00    -0.144 C  
HETATM   15  C   UNL     1      -7.253  13.766  67.970  1.00  0.00    -0.137 C  
HETATM   16  C   UNL     1      -9.034  15.019  66.747  1.00  0.00    -0.293 C  
ENDBRANCH  12  14
ENDBRANCH  11  12
ENDBRANCH  10  11
ENDBRANCH   9  10
BRANCH   9  17
HETATM   17  C   UNL     1     -11.909  11.636  69.790  1.00  0.00    -0.357 A  
HETATM   18  C   UNL     1      -9.800   7.863  71.868  1.00  0.00    -0.178 A  
HETATM   19  C   UNL     1     -12.950  11.459  70.706  1.00  0.00    -0.135 A  
HETATM   20  C   UNL     1     -10.947   7.645  72.615  1.00  0.00    -0.351 A  
HETATM   21  N   UNL     1      -9.727   8.892  70.984  1.00  0.00    -0.228 NA 
HETATM   22  C   UNL     1     -10.808   9.696  70.872  1.00  0.00    -0.339 A  
HETATM   23  C   UNL     1     -12.998  10.368  71.583  1.00  0.00    -0.581 A  
HETATM   24  C   UNL     1     -11.950   9.478  71.672  1.00  0.00    -0.401 A  
HETATM   25  C   UNL     1     -10.821  10.748  69.945  1.00  0.00    -0.264 A  
HETATM   26  N   UNL     1     -12.033   8.449  72.537  1.00  0.00    -0.389 NA 
BRANCH  18  27
HETATM   27  C   UNL     1      -8.618   7.032  71.982  1.00  0.00    -0.123 A  
HETATM   28  N   UNL     1      -6.717   5.999  71.585  1.00  0.00    -0.058 NA 
HETATM   29  C   UNL     1      -7.610   6.884  71.049  1.00  0.00    -0.087 A  
HETATM   30  C   UNL     1      -5.497   5.521  70.983  1.00  0.00    -0.009 C  
HETATM   31  N   UNL     1      -7.072   5.551  72.803  1.00  0.00    -0.087 NA 
HETATM   32  C   UNL     1      -8.227   6.180  73.041  1.00  0.00    -0.115 A  
ENDBRANCH  18  27
ENDBRANCH   9  17
ENDBRANCH   5   9
BRANCH   8  33
HETATM   33  O   UNL     1      -9.752   9.944  65.462  1.00  0.00    -0.263 OA 
HETATM   34  C   UNL     1      -9.161   9.760  64.185  1.00  0.00    -0.244 C  
ENDBRANCH   8  33
ENDBRANCH   2   3
TORSDOF 9
ENDMDL
MODEL       90
REMARK 921   NORMALIZED FREE ENERGY PREDICTED BY IDOCK:   -5.74 KCAL/MOL
REMARK 922        TOTAL FREE ENERGY PREDICTED BY IDOCK:   -9.93 KCAL/MOL
REMARK 923 INTER-LIGAND FREE ENERGY PREDICTED BY IDOCK:   -8.67 KCAL/MOL
REMARK 924 INTRA-LIGAND FREE ENERGY PREDICTED BY IDOCK:   -1.26 KCAL/MOL
REMARK 927      BINDING AFFINITY PREDICTED BY RF-SCORE:    0.00 PKD
ROOT
HETATM    1  C   UNL     1     -12.401   6.832  71.572  1.00  0.00    -0.358 C  
HETATM    2  O   UNL     1     -11.322   7.767  71.693  1.00  0.00    -0.244 OA 
ENDROOT
BRANCH   2   3
HETATM    3  C   UNL     1     -11.648   9.049  71.316  1.00  0.00    -0.317 A  
HETATM    4  C   UNL     1     -10.986   9.569  70.180  1.00  0.00    -0.302 A  
HETATM    5  C   UNL     1     -11.324  10.813  69.610  1.00  0.00    -0.294 A  
HETATM    6  C   UNL     1     -12.286  11.529  70.346  1.00  0.00    -0.442 A  
HETATM    7  C   UNL     1     -12.570   9.824  72.010  1.00  0.00    -0.432 A  
HETATM    8  C   UNL     1     -12.886  11.076  71.527  1.00  0.00    -0.450 A  
BRANCH   5   9
HETATM    9  N   UNL     1     -10.768  11.329  68.392  1.00  0.00    -0.191 NA 
BRANCH   9  10
HETATM   10  C   UNL     1     -11.033  10.613  67.102  1.00  0.00    -0.247 C  
BRANCH  10  11
HETATM   11  C   UNL     1     -10.275   9.286  66.837  1.00  0.00    -0.256 C  
BRANCH  11  12
HETATM   12  N   UNL     1      -9.808   9.031  65.475  1.00  0.00    -0.436 NA 
HETATM   13  H   UNL     1     -10.209   9.717  64.836  1.00  0.00     0.000 HD 
BRANCH  12  14
HETATM   14  C   UNL     1      -8.357   8.976  65.303  1.00  0.00    -0.149 C  
HETATM   15  C   UNL     1      -7.922   8.191  64.063  1.00  0.00    -0.139 C  
HETATM   16  C   UNL     1      -7.856  10.420  65.189  1.00  0.00    -0.122 C  
ENDBRANCH  12  14
ENDBRANCH  11  12
ENDBRANCH  10  11
ENDBRANCH   9  10
BRANCH   9  17
HETATM   17  C   UNL     1      -9.585  12.161  68.314  1.00  0.00    -0.210 A  
HETATM   18  C   UNL     1      -7.361  16.169  66.904  1.00  0.00    -0.220 A  
HETATM   19  C   UNL     1      -8.336  11.719  68.760  1.00  0.00    -0.010 A  
HETATM   20  C   UNL     1      -6.140  15.587  67.205  1.00  0.00     0.120 A  
HETATM   21  N   UNL     1      -8.524  15.494  67.095  1.00  0.00    -0.195 NA 
HETATM   22  C   UNL     1      -8.441  14.241  67.598  1.00  0.00    -0.180 A  
HETATM   23  C   UNL     1      -7.158  12.436  68.518  1.00  0.00    -0.100 A  
HETATM   24  C   UNL     1      -7.190  13.684  67.935  1.00  0.00    -0.148 A  
HETATM   25  C   UNL     1      -9.598  13.468  67.775  1.00  0.00    -0.219 A  
HETATM   26  N   UNL     1      -6.034  14.344  67.731  1.00  0.00    -0.277 NA 
BRANCH  18  27
HETATM   27  C   UNL     1      -7.482  17.517  66.385  1.00  0.00    -0.334 A  
HETATM   28  N   UNL     1      -7.076  19.455  65.426  1.00  0.00    -0.438 NA 
HETATM   29  C   UNL     1      -6.518  18.239  65.708  1.00  0.00    -0.275 A  
HETATM   30  C   UNL     1      -6.456  20.558  64.734  1.00  0.00    -0.297 C  
HETATM   31  N   UNL     1      -8.337  19.583  65.875  1.00  0.00    -0.435 NA 
HETATM   32  C   UNL     1      -8.581  18.404  66.458  1.00  0.00    -0.273 A  
ENDBRANCH  18  27
ENDBRANCH   9  17
ENDBRANCH   5   9
BRANCH   8  33
HETATM   33  O   UNL     1     -13.772  11.959  72.083  1.00  0.00    -0.273 OA 
HETATM   34  C   UNL     1     -13.366  13.317  72.165  1.00  0.00    -0.523 C  
ENDBRANCH   8  33
ENDBRANCH   2   3
TORSDOF 9
ENDMDL
MODEL       91
REMARK 921   NORMALIZED FREE ENERGY PREDICTED BY IDOCK:   -5.74 KCAL/MOL
REMARK 922        TOTAL FREE ENERGY PREDICTED BY IDOCK:   -9.93 KCAL/MOL
REMARK 923 INTER-LIGAND FREE ENERGY PREDICTED BY IDOCK:   -8.59 KCAL/MOL
REMARK 924 INTRA-LIGAND FREE ENERGY PREDICTED BY IDOCK:   -1.34 KCAL/MOL
REMARK 927      BINDING AFFINITY PREDICTED BY RF-SCORE:    0.00 PKD
ROOT
HETATM    1  C   UNL     1      -5.849   6.563  68.724  1.00  0.00    -0.021 C  
HETATM    2  O   UNL     1      -6.264   6.397  70.085  1.00  0.00    -0.032 OA 
ENDROOT
BRANCH   2   3
HETATM    3  C   UNL     1      -7.599   6.653  70.297  1.00  0.00    -0.096 A  
HETATM    4  C   UNL     1      -8.260   7.441  69.327  1.00  0.00    -0.131 A  
HETATM    5  C   UNL     1      -9.650   7.665  69.353  1.00  0.00    -0.159 A  
HETATM    6  C   UNL     1     -10.287   7.137  70.491  1.00  0.00    -0.215 A  
HETATM    7  C   UNL     1      -8.285   6.185  71.412  1.00  0.00    -0.123 A  
HETATM    8  C   UNL     1      -9.638   6.435  71.515  1.00  0.00    -0.158 A  
BRANCH   5   9
HETATM    9  N   UNL     1     -10.385   8.354  68.330  1.00  0.00    -0.208 NA 
BRANCH   9  10
HETATM   10  C   UNL     1     -10.591   7.691  67.001  1.00  0.00    -0.336 C  
BRANCH  10  11
HETATM   11  C   UNL     1     -11.036   6.206  66.990  1.00  0.00    -0.330 C  
BRANCH  11  12
HETATM   12  N   UNL     1     -10.858   5.453  65.749  1.00  0.00    -0.642 NA 
HETATM   13  H   UNL     1     -10.973   6.072  64.947  1.00  0.00     0.000 HD 
BRANCH  12  14
HETATM   14  C   UNL     1      -9.602   4.713  65.632  1.00  0.00    -0.182 C  
HETATM   15  C   UNL     1      -8.569   5.406  64.740  1.00  0.00    -0.117 C  
HETATM   16  C   UNL     1      -9.029   4.560  67.044  1.00  0.00    -0.120 C  
ENDBRANCH  12  14
ENDBRANCH  11  12
ENDBRANCH  10  11
ENDBRANCH   9  10
BRANCH   9  17
HETATM   17  C   UNL     1     -10.523   9.793  68.242  1.00  0.00    -0.216 A  
HETATM   18  C   UNL     1     -12.087  13.972  70.001  1.00  0.00    -0.348 A  
HETATM   19  C   UNL     1     -10.118  10.510  67.113  1.00  0.00    -0.253 A  
HETATM   20  C   UNL     1     -11.824  14.573  68.781  1.00  0.00    -0.315 A  
HETATM   21  N   UNL     1     -11.840  12.650  70.197  1.00  0.00    -0.296 NA 
HETATM   22  C   UNL     1     -11.318  11.954  69.161  1.00  0.00    -0.279 A  
HETATM   23  C   UNL     1     -10.419  11.867  66.940  1.00  0.00    -0.253 A  
HETATM   24  C   UNL     1     -11.022  12.597  67.942  1.00  0.00    -0.230 A  
HETATM   25  C   UNL     1     -11.083  10.576  69.277  1.00  0.00    -0.298 A  
HETATM   26  N   UNL     1     -11.282  13.903  67.738  1.00  0.00    -0.282 NA 
BRANCH  18  27
HETATM   27  C   UNL     1     -12.625  14.697  71.136  1.00  0.00    -0.404 A  
HETATM   28  N   UNL     1     -12.837  15.819  73.015  1.00  0.00    -0.453 NA 
HETATM   29  C   UNL     1     -11.914  15.248  72.184  1.00  0.00    -0.420 A  
HETATM   30  C   UNL     1     -12.582  16.515  74.252  1.00  0.00    -0.248 C  
HETATM   31  N   UNL     1     -14.104  15.676  72.588  1.00  0.00    -0.542 NA 
HETATM   32  C   UNL     1     -13.972  14.994  71.446  1.00  0.00    -0.479 A  
ENDBRANCH  18  27
ENDBRANCH   9  17
ENDBRANCH   5   9
BRANCH   8  33
HETATM   33  O   UNL     1     -10.458   6.043  72.537  1.00  0.00    -0.191 OA 
HETATM   34  C   UNL     1     -11.825   6.415  72.449  1.00  0.00    -0.213 C  
ENDBRANCH   8  33
ENDBRANCH   2   3
TORSDOF 9
ENDMDL
MODEL       92
REMARK 921   NORMALIZED FREE ENERGY PREDICTED BY IDOCK:   -5.72 KCAL/MOL
REMARK 922        TOTAL FREE ENERGY PREDICTED BY IDOCK:   -9.91 KCAL/MOL
REMARK 923 INTER-LIGAND FREE ENERGY PREDICTED BY IDOCK:   -8.25 KCAL/MOL
REMARK 924 INTRA-LIGAND FREE ENERGY PREDICTED BY IDOCK:   -1.66 KCAL/MOL
REMARK 927      BINDING AFFINITY PREDICTED BY RF-SCORE:    0.00 PKD
ROOT
HETATM    1  C   UNL     1      -7.486   8.015  63.811  1.00  0.00    -0.121 C  
HETATM    2  O   UNL     1      -6.975   7.448  65.024  1.00  0.00    -0.049 OA 
ENDROOT
BRANCH   2   3
HETATM    3  C   UNL     1      -7.888   6.680  65.709  1.00  0.00    -0.105 A  
HETATM    4  C   UNL     1      -7.939   6.849  67.112  1.00  0.00    -0.113 A  
HETATM    5  C   UNL     1      -8.915   6.226  67.914  1.00  0.00    -0.113 A  
HETATM    6  C   UNL     1      -9.743   5.335  67.207  1.00  0.00    -0.163 A  
HETATM    7  C   UNL     1      -8.720   5.762  65.079  1.00  0.00    -0.037 A  
HETATM    8  C   UNL     1      -9.650   5.078  65.834  1.00  0.00    -0.164 A  
BRANCH   5   9
HETATM    9  N   UNL     1      -9.085   6.459  69.320  1.00  0.00    -0.136 NA 
BRANCH   9  10
HETATM   10  C   UNL     1      -8.320   5.623  70.301  1.00  0.00    -0.112 C  
BRANCH  10  11
HETATM   11  C   UNL     1      -7.964   6.254  71.672  1.00  0.00    -0.102 C  
BRANCH  11  12
HETATM   12  N   UNL     1      -8.330   5.510  72.877  1.00  0.00    -0.116 NA 
HETATM   13  H   UNL     1      -7.502   5.076  73.283  1.00  0.00     0.000 HD 
BRANCH  12  14
HETATM   14  C   UNL     1      -9.047   6.271  73.899  1.00  0.00    -0.132 C  
HETATM   15  C   UNL     1      -9.271   7.737  73.518  1.00  0.00    -0.350 C  
HETATM   16  C   UNL     1     -10.404   5.591  74.107  1.00  0.00    -0.302 C  
ENDBRANCH  12  14
ENDBRANCH  11  12
ENDBRANCH  10  11
ENDBRANCH   9  10
BRANCH   9  17
HETATM   17  C   UNL     1     -10.262   7.053  69.920  1.00  0.00    -0.201 A  
HETATM   18  C   UNL     1     -12.726  10.886  71.417  1.00  0.00    -0.434 A  
HETATM   19  C   UNL     1     -11.287   6.278  70.468  1.00  0.00    -0.428 A  
HETATM   20  C   UNL     1     -13.602  10.049  72.089  1.00  0.00    -0.251 A  
HETATM   21  N   UNL     1     -11.683  10.382  70.708  1.00  0.00    -0.347 NA 
HETATM   22  C   UNL     1     -11.541   9.037  70.678  1.00  0.00    -0.224 A  
HETATM   23  C   UNL     1     -12.332   6.838  71.215  1.00  0.00    -0.395 A  
HETATM   24  C   UNL     1     -12.469   8.204  71.338  1.00  0.00    -0.292 A  
HETATM   25  C   UNL     1     -10.459   8.450  70.007  1.00  0.00    -0.224 A  
HETATM   26  N   UNL     1     -13.494   8.700  72.055  1.00  0.00    -0.379 NA 
BRANCH  18  27
HETATM   27  C   UNL     1     -12.866  12.329  71.412  1.00  0.00    -0.373 A  
HETATM   28  N   UNL     1     -13.474  14.392  71.869  1.00  0.00    -0.362 NA 
HETATM   29  C   UNL     1     -13.656  13.092  72.249  1.00  0.00    -0.581 A  
HETATM   30  C   UNL     1     -14.093  15.562  72.442  1.00  0.00    -0.536 C  
HETATM   31  N   UNL     1     -12.623  14.535  70.837  1.00  0.00    -0.323 NA 
HETATM   32  C   UNL     1     -12.255  13.279  70.562  1.00  0.00    -0.340 A  
ENDBRANCH  18  27
ENDBRANCH   9  17
ENDBRANCH   5   9
BRANCH   8  33
HETATM   33  O   UNL     1     -10.543   4.151  65.372  1.00  0.00    -0.182 OA 
HETATM   34  C   UNL     1     -10.486   3.828  63.991  1.00  0.00    -0.261 C  
ENDBRANCH   8  33
ENDBRANCH   2   3
TORSDOF 9
ENDMDL
MODEL       93
REMARK 921   NORMALIZED FREE ENERGY PREDICTED BY IDOCK:   -5.68 KCAL/MOL
REMARK 922        TOTAL FREE ENERGY PREDICTED BY IDOCK:   -9.84 KCAL/MOL
REMARK 923 INTER-LIGAND FREE ENERGY PREDICTED BY IDOCK:   -8.33 KCAL/MOL
REMARK 924 INTRA-LIGAND FREE ENERGY PREDICTED BY IDOCK:   -1.51 KCAL/MOL
REMARK 927      BINDING AFFINITY PREDICTED BY RF-SCORE:    0.00 PKD
ROOT
HETATM    1  C   UNL     1      -6.438  14.608  67.733  1.00  0.00    -0.164 C  
HETATM    2  O   UNL     1      -6.742  15.964  67.382  1.00  0.00    -0.166 OA 
ENDROOT
BRANCH   2   3
HETATM    3  C   UNL     1      -8.030  16.150  66.938  1.00  0.00    -0.244 A  
HETATM    4  C   UNL     1      -8.768  14.989  66.614  1.00  0.00    -0.289 A  
HETATM    5  C   UNL     1     -10.135  15.031  66.276  1.00  0.00    -0.282 A  
HETATM    6  C   UNL     1     -10.653  16.335  66.175  1.00  0.00    -0.272 A  
HETATM    7  C   UNL     1      -8.598  17.411  66.790  1.00  0.00    -0.284 A  
HETATM    8  C   UNL     1      -9.917  17.505  66.398  1.00  0.00    -0.325 A  
BRANCH   5   9
HETATM    9  N   UNL     1     -10.957  13.874  66.057  1.00  0.00    -0.284 NA 
BRANCH   9  10
HETATM   10  C   UNL     1     -12.040  13.547  67.039  1.00  0.00    -0.354 C  
BRANCH  10  11
HETATM   11  C   UNL     1     -11.755  13.784  68.544  1.00  0.00    -0.356 C  
BRANCH  11  12
HETATM   12  N   UNL     1     -11.019  12.747  69.268  1.00  0.00    -0.443 NA 
HETATM   13  H   UNL     1     -10.720  13.102  70.176  1.00  0.00     0.000 HD 
BRANCH  12  14
HETATM   14  C   UNL     1     -11.719  11.474  69.435  1.00  0.00    -0.346 C  
HETATM   15  C   UNL     1     -10.794  10.257  69.348  1.00  0.00    -0.282 C  
HETATM   16  C   UNL     1     -12.390  11.500  70.812  1.00  0.00    -0.472 C  
ENDBRANCH  12  14
ENDBRANCH  11  12
ENDBRANCH  10  11
ENDBRANCH   9  10
BRANCH   9  17
HETATM   17  C   UNL     1     -10.558  12.714  65.287  1.00  0.00    -0.291 A  
HETATM   18  C   UNL     1      -8.236   8.536  64.894  1.00  0.00    -0.165 A  
HETATM   19  C   UNL     1     -10.835  12.598  63.922  1.00  0.00    -0.468 A  
HETATM   20  C   UNL     1      -8.396   8.587  63.519  1.00  0.00    -0.082 A  
HETATM   21  N   UNL     1      -8.720   9.524  65.692  1.00  0.00    -0.140 NA 
HETATM   22  C   UNL     1      -9.370  10.547  65.091  1.00  0.00    -0.216 A  
HETATM   23  C   UNL     1     -10.292  11.577  63.132  1.00  0.00    -0.376 A  
HETATM   24  C   UNL     1      -9.556  10.556  63.693  1.00  0.00    -0.320 A  
HETATM   25  C   UNL     1      -9.853  11.624  65.848  1.00  0.00    -0.262 A  
HETATM   26  N   UNL     1      -9.063   9.588  62.898  1.00  0.00    -0.229 NA 
BRANCH  18  27
HETATM   27  C   UNL     1      -7.564   7.442  65.568  1.00  0.00    -0.094 A  
HETATM   28  N   UNL     1      -6.347   5.664  66.010  1.00  0.00    -0.038 NA 
HETATM   29  C   UNL     1      -6.737   6.494  64.997  1.00  0.00    -0.042 A  
HETATM   30  C   UNL     1      -5.482   4.515  65.910  1.00  0.00    -0.013 C  
HETATM   31  N   UNL     1      -6.864   5.999  67.206  1.00  0.00    -0.061 NA 
HETATM   32  C   UNL     1      -7.603   7.079  66.934  1.00  0.00    -0.094 A  
ENDBRANCH  18  27
ENDBRANCH   9  17
ENDBRANCH   5   9
BRANCH   8  33
HETATM   33  O   UNL     1     -10.625  18.661  66.212  1.00  0.00    -0.413 OA 
HETATM   34  C   UNL     1      -9.901  19.881  66.267  1.00  0.00    -0.461 C  
ENDBRANCH   8  33
ENDBRANCH   2   3
TORSDOF 9
ENDMDL
MODEL       94
REMARK 921   NORMALIZED FREE ENERGY PREDICTED BY IDOCK:   -5.67 KCAL/MOL
REMARK 922        TOTAL FREE ENERGY PREDICTED BY IDOCK:   -9.83 KCAL/MOL
REMARK 923 INTER-LIGAND FREE ENERGY PREDICTED BY IDOCK:   -8.37 KCAL/MOL
REMARK 924 INTRA-LIGAND FREE ENERGY PREDICTED BY IDOCK:   -1.45 KCAL/MOL
REMARK 927      BINDING AFFINITY PREDICTED BY RF-SCORE:    0.00 PKD
ROOT
HETATM    1  C   UNL     1      -6.755   7.844  73.703  1.00  0.00    -0.097 C  
HETATM    2  O   UNL     1      -6.282   6.868  72.766  1.00  0.00    -0.052 OA 
ENDROOT
BRANCH   2   3
HETATM    3  C   UNL     1      -7.280   6.127  72.179  1.00  0.00    -0.092 A  
HETATM    4  C   UNL     1      -8.258   6.839  71.447  1.00  0.00    -0.111 A  
HETATM    5  C   UNL     1      -9.254   6.194  70.688  1.00  0.00    -0.154 A  
HETATM    6  C   UNL     1      -9.255   4.794  70.830  1.00  0.00    -0.194 A  
HETATM    7  C   UNL     1      -7.358   4.743  72.299  1.00  0.00    -0.082 A  
HETATM    8  C   UNL     1      -8.357   4.072  71.626  1.00  0.00    -0.090 A  
BRANCH   5   9
HETATM    9  N   UNL     1     -10.191   6.866  69.834  1.00  0.00    -0.195 NA 
BRANCH   9  10
HETATM   10  C   UNL     1     -11.626   6.430  69.830  1.00  0.00    -0.327 C  
BRANCH  10  11
HETATM   11  C   UNL     1     -12.520   6.861  71.021  1.00  0.00    -0.313 C  
BRANCH  11  12
HETATM   12  N   UNL     1     -13.244   8.126  70.904  1.00  0.00    -0.447 NA 
HETATM   13  H   UNL     1     -14.231   7.983  71.119  1.00  0.00     0.000 HD 
BRANCH  12  14
HETATM   14  C   UNL     1     -12.716   9.234  71.698  1.00  0.00    -0.364 C  
HETATM   15  C   UNL     1     -11.230   9.085  72.036  1.00  0.00    -0.379 C  
HETATM   16  C   UNL     1     -12.923  10.517  70.886  1.00  0.00    -0.455 C  
ENDBRANCH  12  14
ENDBRANCH  11  12
ENDBRANCH  10  11
ENDBRANCH   9  10
BRANCH   9  17
HETATM   17  C   UNL     1      -9.839   7.572  68.619  1.00  0.00    -0.165 A  
HETATM   18  C   UNL     1     -10.490  11.176  65.522  1.00  0.00    -0.256 A  
HETATM   19  C   UNL     1      -8.896   7.071  67.716  1.00  0.00    -0.123 A  
HETATM   20  C   UNL     1      -9.682  10.522  64.606  1.00  0.00    -0.309 A  
HETATM   21  N   UNL     1     -10.742  10.635  66.743  1.00  0.00    -0.238 NA 
HETATM   22  C   UNL     1     -10.166   9.445  67.028  1.00  0.00    -0.255 A  
HETATM   23  C   UNL     1      -8.688   7.646  66.456  1.00  0.00    -0.161 A  
HETATM   24  C   UNL     1      -9.315   8.818  66.094  1.00  0.00    -0.234 A  
HETATM   25  C   UNL     1     -10.422   8.805  68.250  1.00  0.00    -0.236 A  
HETATM   26  N   UNL     1      -9.077   9.342  64.877  1.00  0.00    -0.220 NA 
BRANCH  18  27
HETATM   27  C   UNL     1     -11.103  12.462  65.254  1.00  0.00    -0.342 A  
HETATM   28  N   UNL     1     -11.437  14.600  64.861  1.00  0.00    -0.384 NA 
HETATM   29  C   UNL     1     -10.458  13.671  65.078  1.00  0.00    -0.391 A  
HETATM   30  C   UNL     1     -11.261  16.012  64.629  1.00  0.00    -0.330 C  
HETATM   31  N   UNL     1     -12.680  14.086  64.887  1.00  0.00    -0.689 NA 
HETATM   32  C   UNL     1     -12.473  12.786  65.127  1.00  0.00    -0.501 A  
ENDBRANCH  18  27
ENDBRANCH   9  17
ENDBRANCH   5   9
BRANCH   8  33
HETATM   33  O   UNL     1      -8.570   2.721  71.631  1.00  0.00    -0.066 OA 
HETATM   34  C   UNL     1      -9.296   2.175  70.540  1.00  0.00    -0.122 C  
ENDBRANCH   8  33
ENDBRANCH   2   3
TORSDOF 9
ENDMDL
MODEL       95
REMARK 921   NORMALIZED FREE ENERGY PREDICTED BY IDOCK:   -5.66 KCAL/MOL
REMARK 922        TOTAL FREE ENERGY PREDICTED BY IDOCK:   -9.82 KCAL/MOL
REMARK 923 INTER-LIGAND FREE ENERGY PREDICTED BY IDOCK:   -8.57 KCAL/MOL
REMARK 924 INTRA-LIGAND FREE ENERGY PREDICTED BY IDOCK:   -1.25 KCAL/MOL
REMARK 927      BINDING AFFINITY PREDICTED BY RF-SCORE:    0.00 PKD
ROOT
HETATM    1  C   UNL     1      -8.329   8.292  72.693  1.00  0.00    -0.173 C  
HETATM    2  O   UNL     1      -8.127   8.979  71.452  1.00  0.00    -0.266 OA 
ENDROOT
BRANCH   2   3
HETATM    3  C   UNL     1      -9.292   9.299  70.795  1.00  0.00    -0.258 A  
HETATM    4  C   UNL     1      -9.197   9.534  69.404  1.00  0.00    -0.181 A  
HETATM    5  C   UNL     1     -10.331   9.738  68.592  1.00  0.00    -0.201 A  
HETATM    6  C   UNL     1     -11.537   9.807  69.312  1.00  0.00     0.113 A  
HETATM    7  C   UNL     1     -10.516   9.409  71.447  1.00  0.00    -0.358 A  
HETATM    8  C   UNL     1     -11.646   9.672  70.702  1.00  0.00    -0.299 A  
BRANCH   5   9
HETATM    9  N   UNL     1     -10.297   9.860  67.162  1.00  0.00    -0.231 NA 
BRANCH   9  10
HETATM   10  C   UNL     1      -9.567   8.831  66.354  1.00  0.00    -0.249 C  
BRANCH  10  11
HETATM   11  C   UNL     1      -8.019   8.905  66.309  1.00  0.00    -0.103 C  
BRANCH  11  12
HETATM   12  N   UNL     1      -7.378   8.925  64.995  1.00  0.00    -0.094 NA 
HETATM   13  H   UNL     1      -6.532   8.355  65.012  1.00  0.00     0.000 HD 
BRANCH  12  14
HETATM   14  C   UNL     1      -8.224   8.530  63.870  1.00  0.00    -0.127 C  
HETATM   15  C   UNL     1      -8.226   9.546  62.726  1.00  0.00    -0.155 C  
HETATM   16  C   UNL     1      -7.697   7.187  63.353  1.00  0.00    -0.119 C  
ENDBRANCH  12  14
ENDBRANCH  11  12
ENDBRANCH  10  11
ENDBRANCH   9  10
BRANCH   9  17
HETATM   17  C   UNL     1     -10.452  11.105  66.438  1.00  0.00    -0.260 A  
HETATM   18  C   UNL     1     -10.637  15.897  66.323  1.00  0.00    -0.298 A  
HETATM   19  C   UNL     1     -10.793  11.139  65.083  1.00  0.00    -0.229 A  
HETATM   20  C   UNL     1     -11.147  15.837  65.036  1.00  0.00    -0.370 A  
HETATM   21  N   UNL     1     -10.329  14.763  67.007  1.00  0.00    -0.253 NA 
HETATM   22  C   UNL     1     -10.530  13.583  66.378  1.00  0.00    -0.287 A  
HETATM   23  C   UNL     1     -11.129  12.328  64.424  1.00  0.00    -0.381 A  
HETATM   24  C   UNL     1     -11.013  13.549  65.053  1.00  0.00    -0.335 A  
HETATM   25  C   UNL     1     -10.281  12.372  67.041  1.00  0.00    -0.232 A  
HETATM   26  N   UNL     1     -11.335  14.669  64.379  1.00  0.00    -0.282 NA 
BRANCH  18  27
HETATM   27  C   UNL     1     -10.389  17.147  67.014  1.00  0.00    -0.308 A  
HETATM   28  N   UNL     1     -10.012  19.264  67.478  1.00  0.00    -0.345 NA 
HETATM   29  C   UNL     1     -10.236  18.397  66.445  1.00  0.00    -0.410 A  
HETATM   30  C   UNL     1      -9.786  20.685  67.388  1.00  0.00    -0.411 C  
HETATM   31  N   UNL     1     -10.003  18.669  68.684  1.00  0.00    -0.379 NA 
HETATM   32  C   UNL     1     -10.232  17.383  68.399  1.00  0.00    -0.362 A  
ENDBRANCH  18  27
ENDBRANCH   9  17
ENDBRANCH   5   9
BRANCH   8  33
HETATM   33  O   UNL     1     -12.920   9.805  71.182  1.00  0.00    -0.350 OA 
HETATM   34  C   UNL     1     -13.553   8.631  71.669  1.00  0.00    -0.371 C  
ENDBRANCH   8  33
ENDBRANCH   2   3
TORSDOF 9
ENDMDL
MODEL       96
REMARK 921   NORMALIZED FREE ENERGY PREDICTED BY IDOCK:   -5.66 KCAL/MOL
REMARK 922        TOTAL FREE ENERGY PREDICTED BY IDOCK:   -9.81 KCAL/MOL
REMARK 923 INTER-LIGAND FREE ENERGY PREDICTED BY IDOCK:   -8.25 KCAL/MOL
REMARK 924 INTRA-LIGAND FREE ENERGY PREDICTED BY IDOCK:   -1.55 KCAL/MOL
REMARK 927      BINDING AFFINITY PREDICTED BY RF-SCORE:    0.00 PKD
ROOT
HETATM    1  C   UNL     1     -10.227   4.790  65.805  1.00  0.00    -0.225 C  
HETATM    2  O   UNL     1     -10.781   4.824  67.126  1.00  0.00    -0.014 OA 
ENDROOT
BRANCH   2   3
HETATM    3  C   UNL     1     -10.567   6.008  67.792  1.00  0.00    -0.267 A  
HETATM    4  C   UNL     1      -9.730   6.954  67.158  1.00  0.00    -0.197 A  
HETATM    5  C   UNL     1      -9.537   8.254  67.667  1.00  0.00    -0.152 A  
HETATM    6  C   UNL     1     -10.151   8.471  68.914  1.00  0.00    -0.213 A  
HETATM    7  C   UNL     1     -11.121   6.279  69.038  1.00  0.00    -0.446 A  
HETATM    8  C   UNL     1     -10.906   7.517  69.607  1.00  0.00    -0.202 A  
BRANCH   5   9
HETATM    9  N   UNL     1      -8.797   9.289  67.001  1.00  0.00    -0.123 NA 
BRANCH   9  10
HETATM   10  C   UNL     1      -7.406   9.608  67.458  1.00  0.00    -0.090 C  
BRANCH  10  11
HETATM   11  C   UNL     1      -6.235   9.316  66.485  1.00  0.00    -0.065 C  
BRANCH  11  12
HETATM   12  N   UNL     1      -5.882  10.354  65.517  1.00  0.00    -0.106 NA 
HETATM   13  H   UNL     1      -4.873  10.502  65.518  1.00  0.00     0.000 HD 
BRANCH  12  14
HETATM   14  C   UNL     1      -6.352  10.131  64.150  1.00  0.00    -0.126 C  
HETATM   15  C   UNL     1      -5.349  10.578  63.083  1.00  0.00    -0.164 C  
HETATM   16  C   UNL     1      -6.616   8.630  63.997  1.00  0.00    -0.076 C  
ENDBRANCH  12  14
ENDBRANCH  11  12
ENDBRANCH  10  11
ENDBRANCH   9  10
BRANCH   9  17
HETATM   17  C   UNL     1      -9.394  10.392  66.277  1.00  0.00    -0.166 A  
HETATM   18  C   UNL     1     -10.731  14.989  65.993  1.00  0.00    -0.326 A  
HETATM   19  C   UNL     1     -10.016  10.217  65.037  1.00  0.00    -0.375 A  
HETATM   20  C   UNL     1     -11.476  14.694  64.864  1.00  0.00    -0.401 A  
HETATM   21  N   UNL     1     -10.024  14.024  66.637  1.00  0.00    -0.270 NA 
HETATM   22  C   UNL     1     -10.069  12.773  66.126  1.00  0.00    -0.266 A  
HETATM   23  C   UNL     1     -10.758  11.233  64.422  1.00  0.00    -0.407 A  
HETATM   24  C   UNL     1     -10.803  12.504  64.952  1.00  0.00    -0.293 A  
HETATM   25  C   UNL     1      -9.404  11.718  66.767  1.00  0.00    -0.199 A  
HETATM   26  N   UNL     1     -11.519  13.455  64.321  1.00  0.00    -0.384 NA 
BRANCH  18  27
HETATM   27  C   UNL     1     -10.645  16.325  66.551  1.00  0.00    -0.256 A  
HETATM   28  N   UNL     1     -10.398  18.496  66.802  1.00  0.00    -0.382 NA 
HETATM   29  C   UNL     1     -10.397  17.499  65.867  1.00  0.00    -0.259 A  
HETATM   30  C   UNL     1     -10.179  19.903  66.575  1.00  0.00    -0.491 C  
HETATM   31  N   UNL     1     -10.625  18.057  68.054  1.00  0.00    -0.377 NA 
HETATM   32  C   UNL     1     -10.773  16.737  67.898  1.00  0.00    -0.347 A  
ENDBRANCH  18  27
ENDBRANCH   9  17
ENDBRANCH   5   9
BRANCH   8  33
HETATM   33  O   UNL     1     -11.382   7.946  70.816  1.00  0.00    -0.273 OA 
HETATM   34  C   UNL     1     -11.830   6.951  71.725  1.00  0.00    -0.316 C  
ENDBRANCH   8  33
ENDBRANCH   2   3
TORSDOF 9
ENDMDL
MODEL       97
REMARK 921   NORMALIZED FREE ENERGY PREDICTED BY IDOCK:   -5.63 KCAL/MOL
REMARK 922        TOTAL FREE ENERGY PREDICTED BY IDOCK:   -9.77 KCAL/MOL
REMARK 923 INTER-LIGAND FREE ENERGY PREDICTED BY IDOCK:   -8.60 KCAL/MOL
REMARK 924 INTRA-LIGAND FREE ENERGY PREDICTED BY IDOCK:   -1.17 KCAL/MOL
REMARK 927      BINDING AFFINITY PREDICTED BY RF-SCORE:    0.00 PKD
ROOT
HETATM    1  C   UNL     1     -12.176  13.140  63.581  1.00  0.00    -0.479 C  
HETATM    2  O   UNL     1     -12.570  12.383  64.732  1.00  0.00    -0.510 OA 
ENDROOT
BRANCH   2   3
HETATM    3  C   UNL     1     -12.041  12.847  65.913  1.00  0.00    -0.444 A  
HETATM    4  C   UNL     1     -11.428  11.892  66.757  1.00  0.00    -0.384 A  
HETATM    5  C   UNL     1     -10.732  12.253  67.928  1.00  0.00    -0.215 A  
HETATM    6  C   UNL     1     -10.813  13.624  68.234  1.00  0.00    -0.268 A  
HETATM    7  C   UNL     1     -12.107  14.183  66.292  1.00  0.00    -0.463 A  
HETATM    8  C   UNL     1     -11.496  14.574  67.465  1.00  0.00    -0.356 A  
BRANCH   5   9
HETATM    9  N   UNL     1      -9.992  11.339  68.750  1.00  0.00    -0.207 NA 
BRANCH   9  10
HETATM   10  C   UNL     1      -8.604  10.945  68.346  1.00  0.00    -0.146 C  
BRANCH  10  11
HETATM   11  C   UNL     1      -8.343  10.632  66.850  1.00  0.00    -0.125 C  
BRANCH  11  12
HETATM   12  N   UNL     1      -8.630   9.278  66.379  1.00  0.00    -0.128 NA 
HETATM   13  H   UNL     1      -9.579   9.012  66.642  1.00  0.00     0.000 HD 
BRANCH  12  14
HETATM   14  C   UNL     1      -8.425   9.047  64.950  1.00  0.00    -0.178 C  
HETATM   15  C   UNL     1      -7.440  10.029  64.311  1.00  0.00    -0.137 C  
HETATM   16  C   UNL     1      -7.891   7.620  64.790  1.00  0.00    -0.129 C  
ENDBRANCH  12  14
ENDBRANCH  11  12
ENDBRANCH  10  11
ENDBRANCH   9  10
BRANCH   9  17
HETATM   17  C   UNL     1     -10.589  10.369  69.646  1.00  0.00    -0.253 A  
HETATM   18  C   UNL     1     -10.879   5.925  71.426  1.00  0.00    -0.271 A  
HETATM   19  C   UNL     1     -11.710  10.669  70.425  1.00  0.00    -0.446 A  
HETATM   20  C   UNL     1     -12.087   6.252  72.022  1.00  0.00    -0.266 A  
HETATM   21  N   UNL     1     -10.191   6.838  70.692  1.00  0.00    -0.195 NA 
HETATM   22  C   UNL     1     -10.726   8.075  70.577  1.00  0.00    -0.229 A  
HETATM   23  C   UNL     1     -12.405   9.690  71.146  1.00  0.00    -0.427 A  
HETATM   24  C   UNL     1     -11.937   8.396  71.225  1.00  0.00    -0.288 A  
HETATM   25  C   UNL     1     -10.095   9.053  69.794  1.00  0.00    -0.209 A  
HETATM   26  N   UNL     1     -12.630   7.489  71.939  1.00  0.00    -0.309 NA 
BRANCH  18  27
HETATM   27  C   UNL     1     -10.271   4.615  71.551  1.00  0.00    -0.224 A  
HETATM   28  N   UNL     1      -9.500   2.712  72.339  1.00  0.00    -0.098 NA 
HETATM   29  C   UNL     1     -10.144   3.861  72.702  1.00  0.00    -0.165 A  
HETATM   30  C   UNL     1      -9.134   1.612  73.196  1.00  0.00    -0.062 C  
HETATM   31  N   UNL     1      -9.190   2.661  71.031  1.00  0.00    -0.116 NA 
HETATM   32  C   UNL     1      -9.659   3.819  70.555  1.00  0.00    -0.192 A  
ENDBRANCH  18  27
ENDBRANCH   9  17
ENDBRANCH   5   9
BRANCH   8  33
HETATM   33  O   UNL     1     -11.462  15.843  67.977  1.00  0.00    -0.328 OA 
HETATM   34  C   UNL     1     -11.247  15.971  69.374  1.00  0.00    -0.349 C  
ENDBRANCH   8  33
ENDBRANCH   2   3
TORSDOF 9
ENDMDL
MODEL       98
REMARK 921   NORMALIZED FREE ENERGY PREDICTED BY IDOCK:   -5.63 KCAL/MOL
REMARK 922        TOTAL FREE ENERGY PREDICTED BY IDOCK:   -9.77 KCAL/MOL
REMARK 923 INTER-LIGAND FREE ENERGY PREDICTED BY IDOCK:   -8.66 KCAL/MOL
REMARK 924 INTRA-LIGAND FREE ENERGY PREDICTED BY IDOCK:   -1.10 KCAL/MOL
REMARK 927      BINDING AFFINITY PREDICTED BY RF-SCORE:    0.00 PKD
ROOT
HETATM    1  C   UNL     1     -14.372   8.337  71.766  1.00  0.00    -0.483 C  
HETATM    2  O   UNL     1     -13.421   9.205  72.394  1.00  0.00    -0.442 OA 
ENDROOT
BRANCH   2   3
HETATM    3  C   UNL     1     -12.150   9.109  71.876  1.00  0.00    -0.378 A  
HETATM    4  C   UNL     1     -11.939   9.665  70.594  1.00  0.00    -0.304 A  
HETATM    5  C   UNL     1     -10.661   9.752  70.008  1.00  0.00    -0.276 A  
HETATM    6  C   UNL     1      -9.649   9.130  70.761  1.00  0.00    -0.338 A  
HETATM    7  C   UNL     1     -11.109   8.485  72.554  1.00  0.00    -0.328 A  
HETATM    8  C   UNL     1      -9.850   8.488  71.990  1.00  0.00    -0.312 A  
BRANCH   5   9
HETATM    9  N   UNL     1     -10.377  10.414  68.766  1.00  0.00    -0.184 NA 
BRANCH   9  10
HETATM   10  C   UNL     1     -10.750   9.747  67.476  1.00  0.00    -0.264 C  
BRANCH  10  11
HETATM   11  C   UNL     1      -9.738   8.753  66.852  1.00  0.00    -0.210 C  
BRANCH  11  12
HETATM   12  N   UNL     1      -9.309   7.618  67.669  1.00  0.00    -0.141 NA 
HETATM   13  H   UNL     1      -8.884   7.952  68.534  1.00  0.00     0.000 HD 
BRANCH  12  14
HETATM   14  C   UNL     1     -10.342   6.628  67.970  1.00  0.00    -0.191 C  
HETATM   15  C   UNL     1     -10.707   5.748  66.772  1.00  0.00    -0.369 C  
HETATM   16  C   UNL     1      -9.810   5.743  69.102  1.00  0.00    -0.211 C  
ENDBRANCH  12  14
ENDBRANCH  11  12
ENDBRANCH  10  11
ENDBRANCH   9  10
BRANCH   9  17
HETATM   17  C   UNL     1      -9.338  11.406  68.580  1.00  0.00    -0.180 A  
HETATM   18  C   UNL     1      -7.881  15.727  67.093  1.00  0.00    -0.212 A  
HETATM   19  C   UNL     1      -7.993  11.131  68.845  1.00  0.00    -0.126 A  
HETATM   20  C   UNL     1      -6.564  15.313  67.212  1.00  0.00     0.025 A  
HETATM   21  N   UNL     1      -8.906  14.889  67.396  1.00  0.00    -0.183 NA 
HETATM   22  C   UNL     1      -8.590  13.646  67.826  1.00  0.00    -0.182 A  
HETATM   23  C   UNL     1      -6.965  12.013  68.491  1.00  0.00    -0.090 A  
HETATM   24  C   UNL     1      -7.241  13.261  67.976  1.00  0.00    -0.121 A  
HETATM   25  C   UNL     1      -9.598  12.713  68.109  1.00  0.00    -0.219 A  
HETATM   26  N   UNL     1      -6.222  14.083  67.661  1.00  0.00    -0.302 NA 
BRANCH  18  27
HETATM   27  C   UNL     1      -8.250  17.059  66.657  1.00  0.00    -0.295 A  
HETATM   28  N   UNL     1      -9.384  18.860  66.101  1.00  0.00    -0.467 NA 
HETATM   29  C   UNL     1      -9.525  17.582  66.565  1.00  0.00    -0.272 A  
HETATM   30  C   UNL     1     -10.435  19.810  65.835  1.00  0.00    -0.486 C  
HETATM   31  N   UNL     1      -8.105  19.210  65.878  1.00  0.00    -0.460 NA 
HETATM   32  C   UNL     1      -7.418  18.114  66.216  1.00  0.00    -0.266 A  
ENDBRANCH  18  27
ENDBRANCH   9  17
ENDBRANCH   5   9
BRANCH   8  33
HETATM   33  O   UNL     1      -8.722   7.928  72.524  1.00  0.00    -0.125 OA 
HETATM   34  C   UNL     1      -8.604   7.934  73.939  1.00  0.00    -0.274 C  
ENDBRANCH   8  33
ENDBRANCH   2   3
TORSDOF 9
ENDMDL
MODEL       99
REMARK 921   NORMALIZED FREE ENERGY PREDICTED BY IDOCK:   -5.63 KCAL/MOL
REMARK 922        TOTAL FREE ENERGY PREDICTED BY IDOCK:   -9.76 KCAL/MOL
REMARK 923 INTER-LIGAND FREE ENERGY PREDICTED BY IDOCK:   -8.20 KCAL/MOL
REMARK 924 INTRA-LIGAND FREE ENERGY PREDICTED BY IDOCK:   -1.57 KCAL/MOL
REMARK 927      BINDING AFFINITY PREDICTED BY RF-SCORE:    0.00 PKD
ROOT
HETATM    1  C   UNL     1      -5.823   7.559  66.085  1.00  0.00    -0.037 C  
HETATM    2  O   UNL     1      -6.428   7.182  67.328  1.00  0.00    -0.053 OA 
ENDROOT
BRANCH   2   3
HETATM    3  C   UNL     1      -7.800   7.285  67.335  1.00  0.00    -0.112 A  
HETATM    4  C   UNL     1      -8.346   8.503  67.802  1.00  0.00    -0.130 A  
HETATM    5  C   UNL     1      -9.724   8.789  67.737  1.00  0.00    -0.158 A  
HETATM    6  C   UNL     1     -10.504   7.710  67.281  1.00  0.00    -0.396 A  
HETATM    7  C   UNL     1      -8.633   6.251  66.923  1.00  0.00    -0.113 A  
HETATM    8  C   UNL     1      -9.996   6.461  66.903  1.00  0.00    -0.167 A  
BRANCH   5   9
HETATM    9  N   UNL     1     -10.312  10.051  68.084  1.00  0.00    -0.182 NA 
BRANCH   9  10
HETATM   10  C   UNL     1     -11.366  10.103  69.148  1.00  0.00    -0.143 C  
BRANCH  10  11
HETATM   11  C   UNL     1     -10.920   9.936  70.623  1.00  0.00    -0.337 C  
BRANCH  11  12
HETATM   12  N   UNL     1     -10.820   8.576  71.152  1.00  0.00    -0.232 NA 
HETATM   13  H   UNL     1     -11.301   7.925  70.532  1.00  0.00     0.000 HD 
BRANCH  12  14
HETATM   14  C   UNL     1      -9.464   8.099  71.421  1.00  0.00    -0.166 C  
HETATM   15  C   UNL     1      -9.084   8.153  72.903  1.00  0.00    -0.337 C  
HETATM   16  C   UNL     1      -9.385   6.649  70.932  1.00  0.00    -0.159 C  
ENDBRANCH  12  14
ENDBRANCH  11  12
ENDBRANCH  10  11
ENDBRANCH   9  10
BRANCH   9  17
HETATM   17  C   UNL     1     -10.377  11.199  67.203  1.00  0.00    -0.212 A  
HETATM   18  C   UNL     1     -10.558  15.940  66.496  1.00  0.00    -0.297 A  
HETATM   19  C   UNL     1     -10.547  11.066  65.822  1.00  0.00    -0.260 A  
HETATM   20  C   UNL     1     -10.903  15.720  65.172  1.00  0.00    -0.428 A  
HETATM   21  N   UNL     1     -10.335  14.900  67.342  1.00  0.00    -0.242 NA 
HETATM   22  C   UNL     1     -10.454  13.651  66.839  1.00  0.00    -0.272 A  
HETATM   23  C   UNL     1     -10.801  12.164  64.990  1.00  0.00    -0.344 A  
HETATM   24  C   UNL     1     -10.767  13.452  65.478  1.00  0.00    -0.294 A  
HETATM   25  C   UNL     1     -10.286  12.531  67.667  1.00  0.00    -0.222 A  
HETATM   26  N   UNL     1     -11.006  14.479  64.641  1.00  0.00    -0.368 NA 
BRANCH  18  27
HETATM   27  C   UNL     1     -10.401  17.267  67.058  1.00  0.00    -0.318 A  
HETATM   28  N   UNL     1     -10.083  19.429  67.310  1.00  0.00    -0.364 NA 
HETATM   29  C   UNL     1     -10.169  18.441  66.369  1.00  0.00    -0.410 A  
HETATM   30  C   UNL     1      -9.842  20.831  67.081  1.00  0.00    -0.262 C  
HETATM   31  N   UNL     1     -10.237  18.983  68.570  1.00  0.00    -0.383 NA 
HETATM   32  C   UNL     1     -10.430  17.669  68.413  1.00  0.00    -0.359 A  
ENDBRANCH  18  27
ENDBRANCH   9  17
ENDBRANCH   5   9
BRANCH   8  33
HETATM   33  O   UNL     1     -10.949   5.557  66.522  1.00  0.00    -0.250 OA 
HETATM   34  C   UNL     1     -10.562   4.567  65.581  1.00  0.00    -0.194 C  
ENDBRANCH   8  33
ENDBRANCH   2   3
TORSDOF 9
ENDMDL
MODEL      100
REMARK 921   NORMALIZED FREE ENERGY PREDICTED BY IDOCK:   -5.61 KCAL/MOL
REMARK 922        TOTAL FREE ENERGY PREDICTED BY IDOCK:   -9.74 KCAL/MOL
REMARK 923 INTER-LIGAND FREE ENERGY PREDICTED BY IDOCK:   -8.73 KCAL/MOL
REMARK 924 INTRA-LIGAND FREE ENERGY PREDICTED BY IDOCK:   -1.01 KCAL/MOL
REMARK 927      BINDING AFFINITY PREDICTED BY RF-SCORE:    0.00 PKD
ROOT
HETATM    1  C   UNL     1      -5.967  17.847  65.889  1.00  0.00    -0.208 C  
HETATM    2  O   UNL     1      -6.413  16.846  66.812  1.00  0.00    -0.186 OA 
ENDROOT
BRANCH   2   3
HETATM    3  C   UNL     1      -7.781  16.755  66.921  1.00  0.00    -0.219 A  
HETATM    4  C   UNL     1      -8.351  15.473  66.751  1.00  0.00    -0.301 A  
HETATM    5  C   UNL     1      -9.720  15.218  66.968  1.00  0.00    -0.226 A  
HETATM    6  C   UNL     1     -10.472  16.374  67.246  1.00  0.00    -0.303 A  
HETATM    7  C   UNL     1      -8.589  17.859  67.169  1.00  0.00    -0.242 A  
HETATM    8  C   UNL     1      -9.946  17.669  67.325  1.00  0.00    -0.322 A  
BRANCH   5   9
HETATM    9  N   UNL     1     -10.323  13.917  66.928  1.00  0.00    -0.264 NA 
BRANCH   9  10
HETATM   10  C   UNL     1     -10.644  13.215  68.212  1.00  0.00    -0.248 C  
BRANCH  10  11
HETATM   11  C   UNL     1     -11.834  13.744  69.053  1.00  0.00    -0.357 C  
BRANCH  11  12
HETATM   12  N   UNL     1     -11.582  14.070  70.457  1.00  0.00    -0.512 NA 
HETATM   13  H   UNL     1     -10.762  14.672  70.533  1.00  0.00     0.000 HD 
BRANCH  12  14
HETATM   14  C   UNL     1     -12.706  14.662  71.181  1.00  0.00    -0.339 C  
HETATM   15  C   UNL     1     -13.301  13.734  72.243  1.00  0.00    -0.617 C  
HETATM   16  C   UNL     1     -12.191  15.938  71.856  1.00  0.00    -0.558 C  
ENDBRANCH  12  14
ENDBRANCH  11  12
ENDBRANCH  10  11
ENDBRANCH   9  10
BRANCH   9  17
HETATM   17  C   UNL     1     -10.207  12.989  65.821  1.00  0.00    -0.290 A  
HETATM   18  C   UNL     1      -8.278   9.093  63.796  1.00  0.00    -0.173 A  
HETATM   19  C   UNL     1     -10.860  13.202  64.603  1.00  0.00    -0.383 A  
HETATM   20  C   UNL     1      -8.814   9.473  62.576  1.00  0.00    -0.244 A  
HETATM   21  N   UNL     1      -8.475   9.845  64.911  1.00  0.00    -0.150 NA 
HETATM   22  C   UNL     1      -9.221  10.966  64.782  1.00  0.00    -0.201 A  
HETATM   23  C   UNL     1     -10.606  12.418  63.471  1.00  0.00    -0.451 A  
HETATM   24  C   UNL     1      -9.789  11.310  63.538  1.00  0.00    -0.359 A  
HETATM   25  C   UNL     1      -9.424  11.814  65.880  1.00  0.00    -0.239 A  
HETATM   26  N   UNL     1      -9.582  10.578  62.428  1.00  0.00    -0.208 NA 
BRANCH  18  27
HETATM   27  C   UNL     1      -7.494   7.886  63.969  1.00  0.00    -0.109 A  
HETATM   28  N   UNL     1      -6.855   5.830  64.417  1.00  0.00    -0.049 NA 
HETATM   29  C   UNL     1      -7.945   6.654  64.401  1.00  0.00    -0.097 A  
HETATM   30  C   UNL     1      -6.820   4.441  64.803  1.00  0.00    -0.046 C  
HETATM   31  N   UNL     1      -5.719   6.436  64.030  1.00  0.00    -0.022 NA 
HETATM   32  C   UNL     1      -6.110   7.686  63.759  1.00  0.00    -0.053 A  
ENDBRANCH  18  27
ENDBRANCH   9  17
ENDBRANCH   5   9
BRANCH   8  33
HETATM   33  O   UNL     1     -10.876  18.640  67.578  1.00  0.00    -0.435 OA 
HETATM   34  C   UNL     1     -10.854  19.790  66.745  1.00  0.00    -0.321 C  
ENDBRANCH   8  33
ENDBRANCH   2   3
TORSDOF 9
ENDMDL
MODEL      101
REMARK 921   NORMALIZED FREE ENERGY PREDICTED BY IDOCK:   -5.61 KCAL/MOL
REMARK 922        TOTAL FREE ENERGY PREDICTED BY IDOCK:   -9.73 KCAL/MOL
REMARK 923 INTER-LIGAND FREE ENERGY PREDICTED BY IDOCK:   -7.94 KCAL/MOL
REMARK 924 INTRA-LIGAND FREE ENERGY PREDICTED BY IDOCK:   -1.79 KCAL/MOL
REMARK 927      BINDING AFFINITY PREDICTED BY RF-SCORE:    0.00 PKD
ROOT
HETATM    1  C   UNL     1     -11.907   6.760  71.974  1.00  0.00    -0.314 C  
HETATM    2  O   UNL     1     -11.962   7.772  70.962  1.00  0.00    -0.299 OA 
ENDROOT
BRANCH   2   3
HETATM    3  C   UNL     1     -11.213   7.486  69.844  1.00  0.00    -0.108 A  
HETATM    4  C   UNL     1     -10.571   8.574  69.210  1.00  0.00    -0.193 A  
HETATM    5  C   UNL     1      -9.669   8.403  68.141  1.00  0.00    -0.155 A  
HETATM    6  C   UNL     1      -9.568   7.073  67.695  1.00  0.00    -0.151 A  
HETATM    7  C   UNL     1     -11.089   6.199  69.332  1.00  0.00    -0.479 A  
HETATM    8  C   UNL     1     -10.267   5.991  68.245  1.00  0.00    -0.181 A  
BRANCH   5   9
HETATM    9  N   UNL     1      -8.902   9.459  67.544  1.00  0.00    -0.119 NA 
BRANCH   9  10
HETATM   10  C   UNL     1      -7.558   9.802  68.112  1.00  0.00    -0.082 C  
BRANCH  10  11
HETATM   11  C   UNL     1      -6.328   9.719  67.171  1.00  0.00    -0.068 C  
BRANCH  11  12
HETATM   12  N   UNL     1      -6.180   8.518  66.351  1.00  0.00    -0.056 NA 
HETATM   13  H   UNL     1      -6.796   7.782  66.697  1.00  0.00     0.000 HD 
BRANCH  12  14
HETATM   14  C   UNL     1      -6.382   8.703  64.914  1.00  0.00    -0.065 C  
HETATM   15  C   UNL     1      -7.684   8.085  64.399  1.00  0.00    -0.130 C  
HETATM   16  C   UNL     1      -6.398  10.212  64.646  1.00  0.00    -0.130 C  
ENDBRANCH  12  14
ENDBRANCH  11  12
ENDBRANCH  10  11
ENDBRANCH   9  10
BRANCH   9  17
HETATM   17  C   UNL     1      -9.464  10.558  66.786  1.00  0.00    -0.163 A  
HETATM   18  C   UNL     1     -10.638  15.188  66.352  1.00  0.00    -0.305 A  
HETATM   19  C   UNL     1     -10.099  10.363  65.556  1.00  0.00    -0.352 A  
HETATM   20  C   UNL     1     -11.401  14.881  65.237  1.00  0.00    -0.358 A  
HETATM   21  N   UNL     1      -9.962  14.220  67.025  1.00  0.00    -0.254 NA 
HETATM   22  C   UNL     1     -10.055  12.955  66.557  1.00  0.00    -0.261 A  
HETATM   23  C   UNL     1     -10.808  11.384  64.910  1.00  0.00    -0.323 A  
HETATM   24  C   UNL     1     -10.805  12.673  65.396  1.00  0.00    -0.287 A  
HETATM   25  C   UNL     1      -9.423  11.899  67.231  1.00  0.00    -0.176 A  
HETATM   26  N   UNL     1     -11.490  13.626  64.737  1.00  0.00    -0.339 NA 
BRANCH  18  27
HETATM   27  C   UNL     1     -10.502  16.537  66.864  1.00  0.00    -0.282 A  
HETATM   28  N   UNL     1     -10.258  18.717  67.031  1.00  0.00    -0.359 NA 
HETATM   29  C   UNL     1     -10.363  17.698  66.127  1.00  0.00    -0.334 A  
HETATM   30  C   UNL     1     -10.091  20.120  66.746  1.00  0.00    -0.457 C  
HETATM   31  N   UNL     1     -10.314  18.306  68.311  1.00  0.00    -0.372 NA 
HETATM   32  C   UNL     1     -10.462  16.981  68.206  1.00  0.00    -0.363 A  
ENDBRANCH  18  27
ENDBRANCH   9  17
ENDBRANCH   5   9
BRANCH   8  33
HETATM   33  O   UNL     1     -10.031   4.794  67.626  1.00  0.00    -0.162 OA 
HETATM   34  C   UNL     1     -10.105   4.773  66.208  1.00  0.00    -0.264 C  
ENDBRANCH   8  33
ENDBRANCH   2   3
TORSDOF 9
ENDMDL
MODEL      102
REMARK 921   NORMALIZED FREE ENERGY PREDICTED BY IDOCK:   -5.56 KCAL/MOL
REMARK 922        TOTAL FREE ENERGY PREDICTED BY IDOCK:   -9.66 KCAL/MOL
REMARK 923 INTER-LIGAND FREE ENERGY PREDICTED BY IDOCK:   -8.60 KCAL/MOL
REMARK 924 INTRA-LIGAND FREE ENERGY PREDICTED BY IDOCK:   -1.05 KCAL/MOL
REMARK 927      BINDING AFFINITY PREDICTED BY RF-SCORE:    0.00 PKD
ROOT
HETATM    1  C   UNL     1      -5.341  17.433  66.596  1.00  0.00    -0.186 C  
HETATM    2  O   UNL     1      -6.102  16.923  67.698  1.00  0.00    -0.124 OA 
ENDROOT
BRANCH   2   3
HETATM    3  C   UNL     1      -7.462  16.957  67.500  1.00  0.00    -0.158 A  
HETATM    4  C   UNL     1      -8.115  15.714  67.331  1.00  0.00    -0.195 A  
HETATM    5  C   UNL     1      -9.517  15.599  67.255  1.00  0.00    -0.216 A  
HETATM    6  C   UNL     1     -10.185  16.837  67.239  1.00  0.00    -0.292 A  
HETATM    7  C   UNL     1      -8.184  18.145  67.448  1.00  0.00    -0.236 A  
HETATM    8  C   UNL     1      -9.555  18.086  67.309  1.00  0.00    -0.269 A  
BRANCH   5   9
HETATM    9  N   UNL     1     -10.231  14.356  67.205  1.00  0.00    -0.256 NA 
BRANCH   9  10
HETATM   10  C   UNL     1     -11.729  14.366  67.256  1.00  0.00    -0.404 C  
BRANCH  10  11
HETATM   11  C   UNL     1     -12.504  14.100  65.940  1.00  0.00    -0.453 C  
BRANCH  11  12
HETATM   12  N   UNL     1     -12.515  12.733  65.423  1.00  0.00    -0.614 NA 
HETATM   13  H   UNL     1     -13.476  12.407  65.319  1.00  0.00     0.000 HD 
BRANCH  12  14
HETATM   14  C   UNL     1     -11.779  12.521  64.177  1.00  0.00    -0.399 C  
HETATM   15  C   UNL     1     -10.500  11.701  64.360  1.00  0.00    -0.374 C  
HETATM   16  C   UNL     1     -12.716  11.787  63.212  1.00  0.00    -0.314 C  
ENDBRANCH  12  14
ENDBRANCH  11  12
ENDBRANCH  10  11
ENDBRANCH   9  10
BRANCH   9  17
HETATM   17  C   UNL     1      -9.687  13.076  67.610  1.00  0.00    -0.212 A  
HETATM   18  C   UNL     1      -9.970   9.003  70.127  1.00  0.00    -0.189 A  
HETATM   19  C   UNL     1      -8.403  12.665  67.239  1.00  0.00    -0.189 A  
HETATM   20  C   UNL     1      -8.633   8.757  69.862  1.00  0.00    -0.133 A  
HETATM   21  N   UNL     1     -10.584  10.117  69.649  1.00  0.00    -0.239 NA 
HETATM   22  C   UNL     1      -9.843  10.964  68.899  1.00  0.00    -0.192 A  
HETATM   23  C   UNL     1      -7.798  11.522  67.778  1.00  0.00    -0.126 A  
HETATM   24  C   UNL     1      -8.493  10.672  68.610  1.00  0.00    -0.142 A  
HETATM   25  C   UNL     1     -10.398  12.157  68.414  1.00  0.00    -0.236 A  
HETATM   26  N   UNL     1      -7.877   9.578  69.096  1.00  0.00    -0.079 NA 
BRANCH  18  27
HETATM   27  C   UNL     1     -10.796   8.103  70.908  1.00  0.00    -0.254 A  
HETATM   28  N   UNL     1     -11.513   6.419  72.127  1.00  0.00    -0.287 NA 
HETATM   29  C   UNL     1     -10.400   6.929  71.520  1.00  0.00    -0.203 A  
HETATM   30  C   UNL     1     -11.606   5.199  72.890  1.00  0.00    -0.205 C  
HETATM   31  N   UNL     1     -12.613   7.173  71.952  1.00  0.00    -0.316 NA 
HETATM   32  C   UNL     1     -12.174   8.195  71.210  1.00  0.00    -0.279 A  
ENDBRANCH  18  27
ENDBRANCH   9  17
ENDBRANCH   5   9
BRANCH   8  33
HETATM   33  O   UNL     1     -10.409  19.152  67.247  1.00  0.00    -0.375 OA 
HETATM   34  C   UNL     1      -9.829  20.448  67.261  1.00  0.00    -0.456 C  
ENDBRANCH   8  33
ENDBRANCH   2   3
TORSDOF 9
ENDMDL
MODEL      103
REMARK 921   NORMALIZED FREE ENERGY PREDICTED BY IDOCK:   -5.55 KCAL/MOL
REMARK 922        TOTAL FREE ENERGY PREDICTED BY IDOCK:   -9.65 KCAL/MOL
REMARK 923 INTER-LIGAND FREE ENERGY PREDICTED BY IDOCK:   -8.82 KCAL/MOL
REMARK 924 INTRA-LIGAND FREE ENERGY PREDICTED BY IDOCK:   -0.83 KCAL/MOL
REMARK 927      BINDING AFFINITY PREDICTED BY RF-SCORE:    0.00 PKD
ROOT
HETATM    1  C   UNL     1     -11.982  16.031  71.791  1.00  0.00    -0.517 C  
HETATM    2  O   UNL     1     -12.759  14.833  71.914  1.00  0.00    -0.305 OA 
ENDROOT
BRANCH   2   3
HETATM    3  C   UNL     1     -12.462  13.874  70.974  1.00  0.00    -0.377 A  
HETATM    4  C   UNL     1     -12.017  14.333  69.713  1.00  0.00    -0.394 A  
HETATM    5  C   UNL     1     -11.554  13.459  68.710  1.00  0.00    -0.325 A  
HETATM    6  C   UNL     1     -11.693  12.098  69.038  1.00  0.00    -0.377 A  
HETATM    7  C   UNL     1     -12.600  12.513  71.220  1.00  0.00    -0.332 A  
HETATM    8  C   UNL     1     -12.220  11.617  70.243  1.00  0.00    -0.318 A  
BRANCH   5   9
HETATM    9  N   UNL     1     -10.981  13.880  67.463  1.00  0.00    -0.272 NA 
BRANCH   9  10
HETATM   10  C   UNL     1     -11.135  15.306  67.028  1.00  0.00    -0.305 C  
BRANCH  10  11
HETATM   11  C   UNL     1      -9.905  16.241  67.150  1.00  0.00    -0.243 C  
BRANCH  11  12
HETATM   12  N   UNL     1      -9.119  16.492  65.943  1.00  0.00    -0.496 NA 
HETATM   13  H   UNL     1      -9.697  16.955  65.242  1.00  0.00     0.000 HD 
BRANCH  12  14
HETATM   14  C   UNL     1      -7.877  17.239  66.139  1.00  0.00    -0.270 C  
HETATM   15  C   UNL     1      -8.090  18.613  66.778  1.00  0.00    -0.275 C  
HETATM   16  C   UNL     1      -6.975  16.394  67.044  1.00  0.00    -0.254 C  
ENDBRANCH  12  14
ENDBRANCH  11  12
ENDBRANCH  10  11
ENDBRANCH   9  10
BRANCH   9  17
HETATM   17  C   UNL     1     -10.705  13.001  66.345  1.00  0.00    -0.282 A  
HETATM   18  C   UNL     1      -8.591   9.120  64.482  1.00  0.00    -0.175 A  
HETATM   19  C   UNL     1     -11.124  13.300  65.045  1.00  0.00    -0.327 A  
HETATM   20  C   UNL     1      -8.888   9.580  63.210  1.00  0.00    -0.215 A  
HETATM   21  N   UNL     1      -8.955   9.826  65.584  1.00  0.00    -0.152 NA 
HETATM   22  C   UNL     1      -9.625  10.985  65.388  1.00  0.00    -0.225 A  
HETATM   23  C   UNL     1     -10.702  12.558  63.934  1.00  0.00    -0.473 A  
HETATM   24  C   UNL     1      -9.951  11.413  64.084  1.00  0.00    -0.290 A  
HETATM   25  C   UNL     1      -9.988  11.790  66.477  1.00  0.00    -0.229 A  
HETATM   26  N   UNL     1      -9.577  10.724  62.989  1.00  0.00    -0.326 NA 
BRANCH  18  27
HETATM   27  C   UNL     1      -7.895   7.871  64.724  1.00  0.00    -0.125 A  
HETATM   28  N   UNL     1      -7.159   5.803  64.585  1.00  0.00    -0.055 NA 
HETATM   29  C   UNL     1      -7.976   6.713  63.975  1.00  0.00    -0.084 A  
HETATM   30  C   UNL     1      -6.914   4.442  64.177  1.00  0.00    -0.046 C  
HETATM   31  N   UNL     1      -6.551   6.282  65.686  1.00  0.00    -0.046 NA 
HETATM   32  C   UNL     1      -7.001   7.538  65.768  1.00  0.00    -0.061 A  
ENDBRANCH  18  27
ENDBRANCH   9  17
ENDBRANCH   5   9
BRANCH   8  33
HETATM   33  O   UNL     1     -12.284  10.253  70.325  1.00  0.00    -0.267 OA 
HETATM   34  C   UNL     1     -13.041   9.704  71.394  1.00  0.00    -0.385 C  
ENDBRANCH   8  33
ENDBRANCH   2   3
TORSDOF 9
ENDMDL
MODEL      104
REMARK 921   NORMALIZED FREE ENERGY PREDICTED BY IDOCK:   -5.55 KCAL/MOL
REMARK 922        TOTAL FREE ENERGY PREDICTED BY IDOCK:   -9.64 KCAL/MOL
REMARK 923 INTER-LIGAND FREE ENERGY PREDICTED BY IDOCK:   -8.74 KCAL/MOL
REMARK 924 INTRA-LIGAND FREE ENERGY PREDICTED BY IDOCK:   -0.90 KCAL/MOL
REMARK 927      BINDING AFFINITY PREDICTED BY RF-SCORE:    0.00 PKD
ROOT
HETATM    1  C   UNL     1      -8.127   7.615  72.834  1.00  0.00    -0.115 C  
HETATM    2  O   UNL     1      -8.088   8.444  71.665  1.00  0.00    -0.121 OA 
ENDROOT
BRANCH   2   3
HETATM    3  C   UNL     1      -9.306   8.982  71.321  1.00  0.00    -0.254 A  
HETATM    4  C   UNL     1      -9.344   9.786  70.159  1.00  0.00    -0.261 A  
HETATM    5  C   UNL     1     -10.547  10.285  69.622  1.00  0.00    -0.256 A  
HETATM    6  C   UNL     1     -11.677  10.010  70.414  1.00  0.00    -0.365 A  
HETATM    7  C   UNL     1     -10.459   8.772  72.071  1.00  0.00    -0.414 A  
HETATM    8  C   UNL     1     -11.651   9.297  71.619  1.00  0.00    -0.393 A  
BRANCH   5   9
HETATM    9  N   UNL     1     -10.651  11.003  68.383  1.00  0.00    -0.182 NA 
BRANCH   9  10
HETATM   10  C   UNL     1     -10.088  10.397  67.134  1.00  0.00    -0.208 C  
BRANCH  10  11
HETATM   11  C   UNL     1      -8.663  10.824  66.697  1.00  0.00    -0.147 C  
BRANCH  11  12
HETATM   12  N   UNL     1      -8.436  11.074  65.274  1.00  0.00    -0.365 NA 
HETATM   13  H   UNL     1      -7.546  10.665  64.986  1.00  0.00     0.000 HD 
BRANCH  12  14
HETATM   14  C   UNL     1      -9.501  10.632  64.375  1.00  0.00    -0.269 C  
HETATM   15  C   UNL     1     -10.009  11.738  63.446  1.00  0.00    -0.446 C  
HETATM   16  C   UNL     1      -8.940   9.483  63.531  1.00  0.00    -0.205 C  
ENDBRANCH  12  14
ENDBRANCH  11  12
ENDBRANCH  10  11
ENDBRANCH   9  10
BRANCH   9  17
HETATM   17  C   UNL     1     -10.785  12.441  68.273  1.00  0.00    -0.230 A  
HETATM   18  C   UNL     1      -8.887  16.845  68.318  1.00  0.00    -0.228 A  
HETATM   19  C   UNL     1     -12.031  13.065  68.162  1.00  0.00    -0.322 A  
HETATM   20  C   UNL     1     -10.161  17.384  68.390  1.00  0.00    -0.362 A  
HETATM   21  N   UNL     1      -8.698  15.501  68.268  1.00  0.00    -0.167 NA 
HETATM   22  C   UNL     1      -9.799  14.716  68.280  1.00  0.00    -0.222 A  
HETATM   23  C   UNL     1     -12.182  14.454  68.245  1.00  0.00    -0.160 A  
HETATM   24  C   UNL     1     -11.088  15.289  68.314  1.00  0.00    -0.300 A  
HETATM   25  C   UNL     1      -9.677  13.319  68.280  1.00  0.00    -0.225 A  
HETATM   26  N   UNL     1     -11.279  16.620  68.381  1.00  0.00    -0.316 NA 
BRANCH  18  27
HETATM   27  C   UNL     1      -7.690  17.662  68.281  1.00  0.00    -0.253 A  
HETATM   28  N   UNL     1      -6.254  19.315  68.490  1.00  0.00    -0.231 NA 
HETATM   29  C   UNL     1      -7.547  18.954  68.748  1.00  0.00    -0.333 A  
HETATM   30  C   UNL     1      -5.627  20.579  68.789  1.00  0.00    -0.306 C  
HETATM   31  N   UNL     1      -5.540  18.352  67.881  1.00  0.00    -0.163 NA 
HETATM   32  C   UNL     1      -6.414  17.348  67.755  1.00  0.00    -0.150 A  
ENDBRANCH  18  27
ENDBRANCH   9  17
ENDBRANCH   5   9
BRANCH   8  33
HETATM   33  O   UNL     1     -12.870   9.179  72.230  1.00  0.00    -0.392 OA 
HETATM   34  C   UNL     1     -13.827   8.335  71.607  1.00  0.00    -0.377 C  
ENDBRANCH   8  33
ENDBRANCH   2   3
TORSDOF 9
ENDMDL
MODEL      105
REMARK 921   NORMALIZED FREE ENERGY PREDICTED BY IDOCK:   -5.52 KCAL/MOL
REMARK 922        TOTAL FREE ENERGY PREDICTED BY IDOCK:   -9.60 KCAL/MOL
REMARK 923 INTER-LIGAND FREE ENERGY PREDICTED BY IDOCK:   -9.67 KCAL/MOL
REMARK 924 INTRA-LIGAND FREE ENERGY PREDICTED BY IDOCK:    0.07 KCAL/MOL
REMARK 927      BINDING AFFINITY PREDICTED BY RF-SCORE:    0.00 PKD
ROOT
HETATM    1  C   UNL     1     -10.355  18.189  67.640  1.00  0.00    -0.397 C  
HETATM    2  O   UNL     1     -10.466  16.832  67.190  1.00  0.00    -0.317 OA 
ENDROOT
BRANCH   2   3
HETATM    3  C   UNL     1     -11.058  15.989  68.101  1.00  0.00    -0.344 A  
HETATM    4  C   UNL     1     -10.960  14.602  67.844  1.00  0.00    -0.283 A  
HETATM    5  C   UNL     1     -11.404  13.629  68.762  1.00  0.00    -0.289 A  
HETATM    6  C   UNL     1     -12.056  14.168  69.886  1.00  0.00    -0.405 A  
HETATM    7  C   UNL     1     -11.740  16.452  69.221  1.00  0.00     0.005 A  
HETATM    8  C   UNL     1     -12.250  15.536  70.116  1.00  0.00    -0.376 A  
BRANCH   5   9
HETATM    9  N   UNL     1     -11.219  12.215  68.604  1.00  0.00    -0.247 NA 
BRANCH   9  10
HETATM   10  C   UNL     1     -11.322  11.608  67.237  1.00  0.00    -0.305 C  
BRANCH  10  11
HETATM   11  C   UNL     1     -11.940  12.468  66.105  1.00  0.00    -0.366 C  
BRANCH  11  12
HETATM   12  N   UNL     1     -11.024  13.119  65.169  1.00  0.00    -0.291 NA 
HETATM   13  H   UNL     1     -10.072  13.084  65.533  1.00  0.00     0.000 HD 
BRANCH  12  14
HETATM   14  C   UNL     1     -11.053  12.613  63.798  1.00  0.00    -0.453 C  
HETATM   15  C   UNL     1     -10.186  11.368  63.592  1.00  0.00    -0.448 C  
HETATM   16  C   UNL     1     -12.510  12.274  63.467  1.00  0.00    -0.642 C  
ENDBRANCH  12  14
ENDBRANCH  11  12
ENDBRANCH  10  11
ENDBRANCH   9  10
BRANCH   9  17
HETATM   17  C   UNL     1     -11.437  11.234  69.647  1.00  0.00    -0.309 A  
HETATM   18  C   UNL     1      -9.889   7.629  72.406  1.00  0.00    -0.181 A  
HETATM   19  C   UNL     1     -12.694  11.032  70.225  1.00  0.00    -0.256 A  
HETATM   20  C   UNL     1     -11.195   7.376  72.793  1.00  0.00    -0.332 A  
HETATM   21  N   UNL     1      -9.599   8.635  71.541  1.00  0.00    -0.230 NA 
HETATM   22  C   UNL     1     -10.630   9.381  71.084  1.00  0.00    -0.333 A  
HETATM   23  C   UNL     1     -12.956   9.964  71.093  1.00  0.00    -0.456 A  
HETATM   24  C   UNL     1     -11.947   9.130  71.523  1.00  0.00    -0.352 A  
HETATM   25  C   UNL     1     -10.409  10.405  70.151  1.00  0.00    -0.114 A  
HETATM   26  N   UNL     1     -12.241   8.123  72.366  1.00  0.00    -0.340 NA 
BRANCH  18  27
HETATM   27  C   UNL     1      -8.762   6.861  72.896  1.00  0.00    -0.138 A  
HETATM   28  N   UNL     1      -6.850   6.263  73.806  1.00  0.00    -0.078 NA 
HETATM   29  C   UNL     1      -7.642   7.346  73.544  1.00  0.00    -0.096 A  
HETATM   30  C   UNL     1      -5.568   6.261  74.464  1.00  0.00    -0.054 C  
HETATM   31  N   UNL     1      -7.371   5.101  73.371  1.00  0.00    -0.089 NA 
HETATM   32  C   UNL     1      -8.532   5.468  72.818  1.00  0.00    -0.120 A  
ENDBRANCH  18  27
ENDBRANCH   9  17
ENDBRANCH   5   9
BRANCH   8  33
HETATM   33  O   UNL     1     -12.938  15.822  71.264  1.00  0.00    -0.489 OA 
HETATM   34  C   UNL     1     -14.136  15.098  71.498  1.00  0.00    -0.540 C  
ENDBRANCH   8  33
ENDBRANCH   2   3
TORSDOF 9
ENDMDL
MODEL      106
REMARK 921   NORMALIZED FREE ENERGY PREDICTED BY IDOCK:   -5.52 KCAL/MOL
REMARK 922        TOTAL FREE ENERGY PREDICTED BY IDOCK:   -9.59 KCAL/MOL
REMARK 923 INTER-LIGAND FREE ENERGY PREDICTED BY IDOCK:   -8.72 KCAL/MOL
REMARK 924 INTRA-LIGAND FREE ENERGY PREDICTED BY IDOCK:   -0.87 KCAL/MOL
REMARK 927      BINDING AFFINITY PREDICTED BY RF-SCORE:    0.00 PKD
ROOT
HETATM    1  C   UNL     1     -11.532   6.038  71.935  1.00  0.00    -0.269 C  
HETATM    2  O   UNL     1     -10.666   7.160  72.148  1.00  0.00    -0.208 OA 
ENDROOT
BRANCH   2   3
HETATM    3  C   UNL     1     -11.145   8.341  71.632  1.00  0.00    -0.265 A  
HETATM    4  C   UNL     1     -10.535   8.815  70.448  1.00  0.00    -0.240 A  
HETATM    5  C   UNL     1     -11.017   9.937  69.745  1.00  0.00    -0.268 A  
HETATM    6  C   UNL     1     -12.073  10.601  70.394  1.00  0.00    -0.430 A  
HETATM    7  C   UNL     1     -12.170   9.063  72.235  1.00  0.00    -0.387 A  
HETATM    8  C   UNL     1     -12.632  10.206  71.616  1.00  0.00    -0.434 A  
BRANCH   5   9
HETATM    9  N   UNL     1     -10.509  10.385  68.479  1.00  0.00    -0.175 NA 
BRANCH   9  10
HETATM   10  C   UNL     1     -10.593   9.475  67.291  1.00  0.00    -0.248 C  
BRANCH  10  11
HETATM   11  C   UNL     1      -9.982   8.056  67.417  1.00  0.00    -0.207 C  
BRANCH  11  12
HETATM   12  N   UNL     1     -10.268   7.096  66.351  1.00  0.00    -0.470 NA 
HETATM   13  H   UNL     1      -9.457   7.002  65.740  1.00  0.00     0.000 HD 
BRANCH  12  14
HETATM   14  C   UNL     1     -10.718   5.776  66.791  1.00  0.00    -0.297 C  
HETATM   15  C   UNL     1     -10.091   4.626  65.999  1.00  0.00    -0.287 C  
HETATM   16  C   UNL     1     -10.341   5.636  68.270  1.00  0.00    -0.253 C  
ENDBRANCH  12  14
ENDBRANCH  11  12
ENDBRANCH  10  11
ENDBRANCH   9  10
BRANCH   9  17
HETATM   17  C   UNL     1      -9.487  11.397  68.313  1.00  0.00    -0.187 A  
HETATM   18  C   UNL     1      -8.170  15.959  67.632  1.00  0.00    -0.150 A  
HETATM   19  C   UNL     1      -8.132  11.072  68.199  1.00  0.00    -0.122 A  
HETATM   20  C   UNL     1      -6.881  15.535  67.352  1.00  0.00    -0.189 A  
HETATM   21  N   UNL     1      -9.147  15.067  67.943  1.00  0.00    -0.178 NA 
HETATM   22  C   UNL     1      -8.808  13.758  67.977  1.00  0.00    -0.182 A  
HETATM   23  C   UNL     1      -7.161  12.020  67.851  1.00  0.00    -0.102 A  
HETATM   24  C   UNL     1      -7.480  13.355  67.727  1.00  0.00    -0.160 A  
HETATM   25  C   UNL     1      -9.776  12.779  68.243  1.00  0.00    -0.216 A  
HETATM   26  N   UNL     1      -6.513  14.234  67.402  1.00  0.00    -0.300 NA 
BRANCH  18  27
HETATM   27  C   UNL     1      -8.558  17.355  67.625  1.00  0.00    -0.217 A  
HETATM   28  N   UNL     1      -9.476  19.289  67.118  1.00  0.00    -0.315 NA 
HETATM   29  C   UNL     1      -9.425  17.975  66.746  1.00  0.00    -0.293 A  
HETATM   30  C   UNL     1     -10.242  20.341  66.498  1.00  0.00    -0.349 C  
HETATM   31  N   UNL     1      -8.698  19.576  68.177  1.00  0.00    -0.318 NA 
HETATM   32  C   UNL     1      -8.141  18.400  68.482  1.00  0.00    -0.319 A  
ENDBRANCH  18  27
ENDBRANCH   9  17
ENDBRANCH   5   9
BRANCH   8  33
HETATM   33  O   UNL     1     -13.631  11.024  72.069  1.00  0.00    -0.281 OA 
HETATM   34  C   UNL     1     -13.390  12.422  72.031  1.00  0.00    -0.407 C  
ENDBRANCH   8  33
ENDBRANCH   2   3
TORSDOF 9
ENDMDL
MODEL      107
REMARK 921   NORMALIZED FREE ENERGY PREDICTED BY IDOCK:   -5.51 KCAL/MOL
REMARK 922        TOTAL FREE ENERGY PREDICTED BY IDOCK:   -9.58 KCAL/MOL
REMARK 923 INTER-LIGAND FREE ENERGY PREDICTED BY IDOCK:   -8.21 KCAL/MOL
REMARK 924 INTRA-LIGAND FREE ENERGY PREDICTED BY IDOCK:   -1.38 KCAL/MOL
REMARK 927      BINDING AFFINITY PREDICTED BY RF-SCORE:    0.00 PKD
ROOT
HETATM    1  C   UNL     1     -12.315  13.784  63.962  1.00  0.00    -0.317 C  
HETATM    2  O   UNL     1     -12.143  12.453  63.459  1.00  0.00    -0.492 OA 
ENDROOT
BRANCH   2   3
HETATM    3  C   UNL     1     -11.024  11.815  63.939  1.00  0.00    -0.407 A  
HETATM    4  C   UNL     1     -10.789  11.898  65.331  1.00  0.00    -0.343 A  
HETATM    5  C   UNL     1      -9.757  11.181  65.969  1.00  0.00    -0.226 A  
HETATM    6  C   UNL     1      -8.921  10.482  65.080  1.00  0.00    -0.223 A  
HETATM    7  C   UNL     1     -10.140  11.127  63.115  1.00  0.00    -0.373 A  
HETATM    8  C   UNL     1      -9.076  10.462  63.688  1.00  0.00    -0.253 A  
BRANCH   5   9
HETATM    9  N   UNL     1      -9.553  11.136  67.389  1.00  0.00    -0.168 NA 
BRANCH   9  10
HETATM   10  C   UNL     1     -10.683  10.719  68.281  1.00  0.00    -0.213 C  
BRANCH  10  11
HETATM   11  C   UNL     1     -11.748  11.782  68.653  1.00  0.00    -0.330 C  
BRANCH  11  12
HETATM   12  N   UNL     1     -11.538  12.554  69.877  1.00  0.00    -0.496 NA 
HETATM   13  H   UNL     1     -10.541  12.706  70.026  1.00  0.00     0.000 HD 
BRANCH  12  14
HETATM   14  C   UNL     1     -12.255  13.826  69.956  1.00  0.00    -0.342 C  
HETATM   15  C   UNL     1     -11.970  14.605  71.242  1.00  0.00    -0.401 C  
HETATM   16  C   UNL     1     -11.825  14.667  68.749  1.00  0.00    -0.348 C  
ENDBRANCH  12  14
ENDBRANCH  11  12
ENDBRANCH  10  11
ENDBRANCH   9  10
BRANCH   9  17
HETATM   17  C   UNL     1      -8.561  11.913  68.103  1.00  0.00    -0.165 A  
HETATM   18  C   UNL     1      -6.479  16.101  69.165  1.00  0.00    -0.166 A  
HETATM   19  C   UNL     1      -7.566  11.312  68.880  1.00  0.00    -0.126 A  
HETATM   20  C   UNL     1      -5.431  15.419  69.762  1.00  0.00    -0.106 A  
HETATM   21  N   UNL     1      -7.520  15.432  68.605  1.00  0.00    -0.123 NA 
HETATM   22  C   UNL     1      -7.497  14.081  68.663  1.00  0.00    -0.125 A  
HETATM   23  C   UNL     1      -6.495  12.037  69.416  1.00  0.00    -0.115 A  
HETATM   24  C   UNL     1      -6.439  13.410  69.311  1.00  0.00    -0.111 A  
HETATM   25  C   UNL     1      -8.514  13.325  68.063  1.00  0.00    -0.170 A  
HETATM   26  N   UNL     1      -5.397  14.069  69.852  1.00  0.00    -0.094 NA 
BRANCH  18  27
HETATM   27  C   UNL     1      -6.543  17.548  69.107  1.00  0.00    -0.246 A  
HETATM   28  N   UNL     1      -6.070  19.691  69.264  1.00  0.00    -0.267 NA 
HETATM   29  C   UNL     1      -5.561  18.442  69.487  1.00  0.00    -0.222 A  
HETATM   30  C   UNL     1      -5.419  20.953  69.512  1.00  0.00    -0.374 C  
HETATM   31  N   UNL     1      -7.320  19.679  68.768  1.00  0.00    -0.342 NA 
HETATM   32  C   UNL     1      -7.605  18.376  68.674  1.00  0.00    -0.302 A  
ENDBRANCH  18  27
ENDBRANCH   9  17
ENDBRANCH   5   9
BRANCH   8  33
HETATM   33  O   UNL     1      -8.123   9.737  63.026  1.00  0.00    -0.131 OA 
HETATM   34  C   UNL     1      -7.080   9.174  63.806  1.00  0.00    -0.093 C  
ENDBRANCH   8  33
ENDBRANCH   2   3
TORSDOF 9
ENDMDL
MODEL      108
REMARK 921   NORMALIZED FREE ENERGY PREDICTED BY IDOCK:   -5.51 KCAL/MOL
REMARK 922        TOTAL FREE ENERGY PREDICTED BY IDOCK:   -9.58 KCAL/MOL
REMARK 923 INTER-LIGAND FREE ENERGY PREDICTED BY IDOCK:   -8.29 KCAL/MOL
REMARK 924 INTRA-LIGAND FREE ENERGY PREDICTED BY IDOCK:   -1.29 KCAL/MOL
REMARK 927      BINDING AFFINITY PREDICTED BY RF-SCORE:    0.00 PKD
ROOT
HETATM    1  C   UNL     1     -13.593   9.682  72.027  1.00  0.00    -0.385 C  
HETATM    2  O   UNL     1     -12.465  10.331  71.426  1.00  0.00    -0.359 OA 
ENDROOT
BRANCH   2   3
HETATM    3  C   UNL     1     -11.599   9.472  70.791  1.00  0.00    -0.308 A  
HETATM    4  C   UNL     1     -10.992   9.939  69.603  1.00  0.00    -0.285 A  
HETATM    5  C   UNL     1      -9.988   9.214  68.930  1.00  0.00    -0.180 A  
HETATM    6  C   UNL     1      -9.743   7.944  69.481  1.00  0.00    -0.173 A  
HETATM    7  C   UNL     1     -11.329   8.193  71.265  1.00  0.00    -0.300 A  
HETATM    8  C   UNL     1     -10.400   7.419  70.601  1.00  0.00    -0.212 A  
BRANCH   5   9
HETATM    9  N   UNL     1      -9.258   9.697  67.793  1.00  0.00    -0.125 NA 
BRANCH   9  10
HETATM   10  C   UNL     1      -7.771   9.515  67.744  1.00  0.00    -0.088 C  
BRANCH  10  11
HETATM   11  C   UNL     1      -6.914  10.234  68.817  1.00  0.00    -0.067 C  
BRANCH  11  12
HETATM   12  N   UNL     1      -5.861  11.136  68.352  1.00  0.00    -0.043 NA 
HETATM   13  H   UNL     1      -6.114  11.531  67.446  1.00  0.00     0.000 HD 
BRANCH  12  14
HETATM   14  C   UNL     1      -5.490  12.207  69.276  1.00  0.00    -0.066 C  
HETATM   15  C   UNL     1      -6.463  13.389  69.257  1.00  0.00    -0.111 C  
HETATM   16  C   UNL     1      -5.456  11.604  70.684  1.00  0.00    -0.149 C  
ENDBRANCH  12  14
ENDBRANCH  11  12
ENDBRANCH  10  11
ENDBRANCH   9  10
BRANCH   9  17
HETATM   17  C   UNL     1      -9.699  10.770  66.926  1.00  0.00    -0.178 A  
HETATM   18  C   UNL     1     -10.640  15.406  66.132  1.00  0.00    -0.316 A  
HETATM   19  C   UNL     1     -10.220  10.528  65.651  1.00  0.00    -0.315 A  
HETATM   20  C   UNL     1     -11.302  15.062  64.964  1.00  0.00    -0.394 A  
HETATM   21  N   UNL     1     -10.071  14.455  66.919  1.00  0.00    -0.255 NA 
HETATM   22  C   UNL     1     -10.169  13.169  66.512  1.00  0.00    -0.277 A  
HETATM   23  C   UNL     1     -10.821  11.534  64.884  1.00  0.00    -0.345 A  
HETATM   24  C   UNL     1     -10.813  12.848  65.299  1.00  0.00    -0.292 A  
HETATM   25  C   UNL     1      -9.648  12.132  67.300  1.00  0.00    -0.185 A  
HETATM   26  N   UNL     1     -11.393  13.785  64.525  1.00  0.00    -0.375 NA 
BRANCH  18  27
HETATM   27  C   UNL     1     -10.499  16.777  66.582  1.00  0.00    -0.258 A  
HETATM   28  N   UNL     1     -10.219  18.575  67.816  1.00  0.00    -0.363 NA 
HETATM   29  C   UNL     1     -10.265  17.210  67.872  1.00  0.00    -0.330 A  
HETATM   30  C   UNL     1     -10.003  19.485  68.914  1.00  0.00    -0.448 C  
HETATM   31  N   UNL     1     -10.413  19.068  66.580  1.00  0.00    -0.422 NA 
HETATM   32  C   UNL     1     -10.583  17.973  65.832  1.00  0.00    -0.219 A  
ENDBRANCH  18  27
ENDBRANCH   9  17
ENDBRANCH   5   9
BRANCH   8  33
HETATM   33  O   UNL     1     -10.015   6.150  70.937  1.00  0.00    -0.179 OA 
HETATM   34  C   UNL     1     -10.168   5.144  69.947  1.00  0.00    -0.291 C  
ENDBRANCH   8  33
ENDBRANCH   2   3
TORSDOF 9
ENDMDL
MODEL      109
REMARK 921   NORMALIZED FREE ENERGY PREDICTED BY IDOCK:   -5.50 KCAL/MOL
REMARK 922        TOTAL FREE ENERGY PREDICTED BY IDOCK:   -9.56 KCAL/MOL
REMARK 923 INTER-LIGAND FREE ENERGY PREDICTED BY IDOCK:   -8.13 KCAL/MOL
REMARK 924 INTRA-LIGAND FREE ENERGY PREDICTED BY IDOCK:   -1.43 KCAL/MOL
REMARK 927      BINDING AFFINITY PREDICTED BY RF-SCORE:    0.00 PKD
ROOT
HETATM    1  C   UNL     1     -12.633  14.296  70.615  1.00  0.00    -0.355 C  
HETATM    2  O   UNL     1     -12.399  15.495  69.866  1.00  0.00    -0.357 OA 
ENDROOT
BRANCH   2   3
HETATM    3  C   UNL     1     -11.341  15.410  68.992  1.00  0.00    -0.316 A  
HETATM    4  C   UNL     1     -10.826  14.118  68.737  1.00  0.00    -0.271 A  
HETATM    5  C   UNL     1      -9.836  13.877  67.764  1.00  0.00    -0.237 A  
HETATM    6  C   UNL     1      -9.331  15.047  67.168  1.00  0.00    -0.225 A  
HETATM    7  C   UNL     1     -10.775  16.527  68.386  1.00  0.00    -0.339 A  
HETATM    8  C   UNL     1      -9.758  16.346  67.474  1.00  0.00    -0.231 A  
BRANCH   5   9
HETATM    9  N   UNL     1      -9.368  12.574  67.383  1.00  0.00    -0.181 NA 
BRANCH   9  10
HETATM   10  C   UNL     1      -9.949  11.910  66.171  1.00  0.00    -0.228 C  
BRANCH  10  11
HETATM   11  C   UNL     1      -9.412  12.336  64.781  1.00  0.00     0.219 C  
BRANCH  11  12
HETATM   12  N   UNL     1     -10.306  13.101  63.913  1.00  0.00    -0.677 NA 
HETATM   13  H   UNL     1     -10.324  12.688  62.980  1.00  0.00     0.000 HD 
BRANCH  12  14
HETATM   14  C   UNL     1     -11.671  13.278  64.407  1.00  0.00    -0.388 C  
HETATM   15  C   UNL     1     -12.207  14.699  64.216  1.00  0.00    -0.432 C  
HETATM   16  C   UNL     1     -12.564  12.295  63.643  1.00  0.00    -0.599 C  
ENDBRANCH  12  14
ENDBRANCH  11  12
ENDBRANCH  10  11
ENDBRANCH   9  10
BRANCH   9  17
HETATM   17  C   UNL     1      -8.772  11.616  68.290  1.00  0.00    -0.163 A  
HETATM   18  C   UNL     1      -9.156   8.013  71.432  1.00  0.00    -0.141 A  
HETATM   19  C   UNL     1      -7.407  11.629  68.593  1.00  0.00    -0.111 A  
HETATM   20  C   UNL     1      -7.838   8.211  71.808  1.00  0.00    -0.112 A  
HETATM   21  N   UNL     1      -9.735   8.785  70.476  1.00  0.00    -0.179 NA 
HETATM   22  C   UNL     1      -8.971   9.742  69.902  1.00  0.00    -0.229 A  
HETATM   23  C   UNL     1      -6.857  10.834  69.607  1.00  0.00    -0.133 A  
HETATM   24  C   UNL     1      -7.620   9.899  70.273  1.00  0.00    -0.158 A  
HETATM   25  C   UNL     1      -9.517  10.607  68.943  1.00  0.00    -0.199 A  
HETATM   26  N   UNL     1      -7.048   9.148  71.233  1.00  0.00    -0.239 NA 
BRANCH  18  27
HETATM   27  C   UNL     1      -9.992   6.980  72.013  1.00  0.00    -0.172 A  
HETATM   28  N   UNL     1     -10.707   5.196  73.082  1.00  0.00    -0.240 NA 
HETATM   29  C   UNL     1      -9.578   5.895  72.761  1.00  0.00    -0.155 A  
HETATM   30  C   UNL     1     -10.789   3.979  73.851  1.00  0.00    -0.239 C  
HETATM   31  N   UNL     1     -11.834   5.744  72.592  1.00  0.00    -0.228 NA 
HETATM   32  C   UNL     1     -11.396   6.827  71.943  1.00  0.00    -0.271 A  
ENDBRANCH  18  27
ENDBRANCH   9  17
ENDBRANCH   5   9
BRANCH   8  33
HETATM   33  O   UNL     1      -9.101  17.330  66.788  1.00  0.00    -0.235 OA 
HETATM   34  C   UNL     1      -7.839  16.998  66.228  1.00  0.00    -0.311 C  
ENDBRANCH   8  33
ENDBRANCH   2   3
TORSDOF 9
ENDMDL
MODEL      110
REMARK 921   NORMALIZED FREE ENERGY PREDICTED BY IDOCK:   -5.48 KCAL/MOL
REMARK 922        TOTAL FREE ENERGY PREDICTED BY IDOCK:   -9.53 KCAL/MOL
REMARK 923 INTER-LIGAND FREE ENERGY PREDICTED BY IDOCK:   -8.90 KCAL/MOL
REMARK 924 INTRA-LIGAND FREE ENERGY PREDICTED BY IDOCK:   -0.64 KCAL/MOL
REMARK 927      BINDING AFFINITY PREDICTED BY RF-SCORE:    0.00 PKD
ROOT
HETATM    1  C   UNL     1     -13.421  15.818  73.228  1.00  0.00    -0.487 C  
HETATM    2  O   UNL     1     -13.692  14.660  72.429  1.00  0.00    -0.404 OA 
ENDROOT
BRANCH   2   3
HETATM    3  C   UNL     1     -12.929  14.577  71.288  1.00  0.00    -0.333 A  
HETATM    4  C   UNL     1     -12.523  13.284  70.884  1.00  0.00    -0.424 A  
HETATM    5  C   UNL     1     -11.854  13.047  69.667  1.00  0.00    -0.319 A  
HETATM    6  C   UNL     1     -11.527  14.220  68.964  1.00  0.00    -0.318 A  
HETATM    7  C   UNL     1     -12.547  15.696  70.557  1.00  0.00    -0.423 A  
HETATM    8  C   UNL     1     -11.834  15.518  69.390  1.00  0.00    -0.374 A  
BRANCH   5   9
HETATM    9  N   UNL     1     -11.529  11.745  69.156  1.00  0.00    -0.271 NA 
BRANCH   9  10
HETATM   10  C   UNL     1     -11.736  11.455  67.701  1.00  0.00    -0.168 C  
BRANCH  10  11
HETATM   11  C   UNL     1     -10.491  11.434  66.778  1.00  0.00    -0.244 C  
BRANCH  11  12
HETATM   12  N   UNL     1      -9.420  12.390  67.060  1.00  0.00    -0.205 NA 
HETATM   13  H   UNL     1      -9.657  12.945  67.882  1.00  0.00     0.000 HD 
BRANCH  12  14
HETATM   14  C   UNL     1      -8.084  11.817  67.212  1.00  0.00    -0.164 C  
HETATM   15  C   UNL     1      -7.690  11.573  68.671  1.00  0.00    -0.139 C  
HETATM   16  C   UNL     1      -8.069  10.485  66.455  1.00  0.00    -0.134 C  
ENDBRANCH  12  14
ENDBRANCH  11  12
ENDBRANCH  10  11
ENDBRANCH   9  10
BRANCH   9  17
HETATM   17  C   UNL     1     -11.496  10.534  69.949  1.00  0.00    -0.310 A  
HETATM   18  C   UNL     1     -10.477   5.874  70.450  1.00  0.00    -0.259 A  
HETATM   19  C   UNL     1     -12.069  10.464  71.222  1.00  0.00    -0.461 A  
HETATM   20  C   UNL     1     -11.220   5.846  71.619  1.00  0.00    -0.237 A  
HETATM   21  N   UNL     1     -10.343   7.020  69.733  1.00  0.00    -0.205 NA 
HETATM   22  C   UNL     1     -10.953   8.129  70.211  1.00  0.00    -0.240 A  
HETATM   23  C   UNL     1     -12.210   9.255  71.915  1.00  0.00    -0.448 A  
HETATM   24  C   UNL     1     -11.671   8.085  71.425  1.00  0.00    -0.287 A  
HETATM   25  C   UNL     1     -10.898   9.335  69.498  1.00  0.00    -0.211 A  
HETATM   26  N   UNL     1     -11.820   6.947  72.129  1.00  0.00    -0.292 NA 
BRANCH  18  27
HETATM   27  C   UNL     1      -9.793   4.708  69.925  1.00  0.00    -0.296 A  
HETATM   28  N   UNL     1      -8.922   3.197  68.586  1.00  0.00    -0.120 NA 
HETATM   29  C   UNL     1      -9.605   4.380  68.597  1.00  0.00    -0.149 A  
HETATM   30  C   UNL     1      -8.497   2.447  67.430  1.00  0.00    -0.096 C  
HETATM   31  N   UNL     1      -8.653   2.722  69.816  1.00  0.00    -0.058 NA 
HETATM   32  C   UNL     1      -9.184   3.642  70.627  1.00  0.00    -0.134 A  
ENDBRANCH  18  27
ENDBRANCH   9  17
ENDBRANCH   5   9
BRANCH   8  33
HETATM   33  O   UNL     1     -11.389  16.506  68.555  1.00  0.00    -0.356 OA 
HETATM   34  C   UNL     1     -10.179  17.159  68.911  1.00  0.00    -0.332 C  
ENDBRANCH   8  33
ENDBRANCH   2   3
TORSDOF 9
ENDMDL
MODEL      111
REMARK 921   NORMALIZED FREE ENERGY PREDICTED BY IDOCK:   -5.47 KCAL/MOL
REMARK 922        TOTAL FREE ENERGY PREDICTED BY IDOCK:   -9.52 KCAL/MOL
REMARK 923 INTER-LIGAND FREE ENERGY PREDICTED BY IDOCK:   -8.69 KCAL/MOL
REMARK 924 INTRA-LIGAND FREE ENERGY PREDICTED BY IDOCK:   -0.83 KCAL/MOL
REMARK 927      BINDING AFFINITY PREDICTED BY RF-SCORE:    0.00 PKD
ROOT
HETATM    1  C   UNL     1      -5.576  16.012  69.612  1.00  0.00    -0.130 C  
HETATM    2  O   UNL     1      -6.477  17.125  69.645  1.00  0.00    -0.241 OA 
ENDROOT
BRANCH   2   3
HETATM    3  C   UNL     1      -7.303  17.207  68.548  1.00  0.00    -0.231 A  
HETATM    4  C   UNL     1      -8.016  16.038  68.197  1.00  0.00    -0.142 A  
HETATM    5  C   UNL     1      -8.993  16.023  67.181  1.00  0.00    -0.202 A  
HETATM    6  C   UNL     1      -9.097  17.238  66.480  1.00  0.00    -0.289 A  
HETATM    7  C   UNL     1      -7.436  18.367  67.793  1.00  0.00    -0.236 A  
HETATM    8  C   UNL     1      -8.334  18.382  66.747  1.00  0.00    -0.259 A  
BRANCH   5   9
HETATM    9  N   UNL     1      -9.827  14.898  66.869  1.00  0.00    -0.235 NA 
BRANCH   9  10
HETATM   10  C   UNL     1     -10.658  14.923  65.622  1.00  0.00    -0.344 C  
BRANCH  10  11
HETATM   11  C   UNL     1     -12.107  14.379  65.702  1.00  0.00    -0.354 C  
BRANCH  11  12
HETATM   12  N   UNL     1     -12.350  13.019  65.222  1.00  0.00    -0.464 NA 
HETATM   13  H   UNL     1     -13.335  12.781  65.333  1.00  0.00     0.000 HD 
BRANCH  12  14
HETATM   14  C   UNL     1     -11.922  12.744  63.851  1.00  0.00    -0.480 C  
HETATM   15  C   UNL     1     -10.491  12.207  63.758  1.00  0.00    -0.470 C  
HETATM   16  C   UNL     1     -12.889  11.708  63.270  1.00  0.00    -0.073 C  
ENDBRANCH  12  14
ENDBRANCH  11  12
ENDBRANCH  10  11
ENDBRANCH   9  10
BRANCH   9  17
HETATM   17  C   UNL     1     -10.347  13.962  67.844  1.00  0.00    -0.240 A  
HETATM   18  C   UNL     1     -10.802   9.503  69.553  1.00  0.00    -0.222 A  
HETATM   19  C   UNL     1     -11.252  14.349  68.837  1.00  0.00    -0.284 A  
HETATM   20  C   UNL     1     -11.823   9.935  70.383  1.00  0.00    -0.234 A  
HETATM   21  N   UNL     1     -10.168  10.366  68.716  1.00  0.00    -0.177 NA 
HETATM   22  C   UNL     1     -10.567  11.658  68.735  1.00  0.00    -0.212 A  
HETATM   23  C   UNL     1     -11.902  13.422  69.661  1.00  0.00    -0.394 A  
HETATM   24  C   UNL     1     -11.582  12.083  69.618  1.00  0.00    -0.301 A  
HETATM   25  C   UNL     1      -9.991  12.594  67.863  1.00  0.00    -0.228 A  
HETATM   26  N   UNL     1     -12.224  11.227  70.436  1.00  0.00    -0.351 NA 
BRANCH  18  27
HETATM   27  C   UNL     1     -10.338   8.130  69.526  1.00  0.00    -0.222 A  
HETATM   28  N   UNL     1      -9.135   6.313  69.223  1.00  0.00    -0.134 NA 
HETATM   29  C   UNL     1      -9.123   7.669  69.056  1.00  0.00    -0.144 A  
HETATM   30  C   UNL     1      -8.090   5.384  68.876  1.00  0.00    -0.094 C  
HETATM   31  N   UNL     1     -10.276   5.850  69.766  1.00  0.00    -0.198 NA 
HETATM   32  C   UNL     1     -11.005   6.956  69.948  1.00  0.00    -0.277 A  
ENDBRANCH  18  27
ENDBRANCH   9  17
ENDBRANCH   5   9
BRANCH   8  33
HETATM   33  O   UNL     1      -8.590  19.436  65.914  1.00  0.00    -0.429 OA 
HETATM   34  C   UNL     1      -9.934  19.887  65.834  1.00  0.00    -0.393 C  
ENDBRANCH   8  33
ENDBRANCH   2   3
TORSDOF 9
ENDMDL
MODEL      112
REMARK 921   NORMALIZED FREE ENERGY PREDICTED BY IDOCK:   -5.46 KCAL/MOL
REMARK 922        TOTAL FREE ENERGY PREDICTED BY IDOCK:   -9.50 KCAL/MOL
REMARK 923 INTER-LIGAND FREE ENERGY PREDICTED BY IDOCK:   -8.86 KCAL/MOL
REMARK 924 INTRA-LIGAND FREE ENERGY PREDICTED BY IDOCK:   -0.63 KCAL/MOL
REMARK 927      BINDING AFFINITY PREDICTED BY RF-SCORE:    0.00 PKD
ROOT
HETATM    1  C   UNL     1     -12.529  15.463  63.973  1.00  0.00     0.239 C  
HETATM    2  O   UNL     1     -12.648  14.133  63.453  1.00  0.00    -0.818 OA 
ENDROOT
BRANCH   2   3
HETATM    3  C   UNL     1     -11.962  13.186  64.178  1.00  0.00    -0.436 A  
HETATM    4  C   UNL     1     -12.110  13.227  65.583  1.00  0.00    -0.488 A  
HETATM    5  C   UNL     1     -11.572  12.238  66.430  1.00  0.00    -0.383 A  
HETATM    6  C   UNL     1     -10.781  11.288  65.758  1.00  0.00    -0.284 A  
HETATM    7  C   UNL     1     -11.143  12.234  63.583  1.00  0.00    -0.537 A  
HETATM    8  C   UNL     1     -10.541  11.282  64.379  1.00  0.00    -0.345 A  
BRANCH   5   9
HETATM    9  N   UNL     1     -11.795  12.168  67.846  1.00  0.00    -0.490 NA 
BRANCH   9  10
HETATM   10  C   UNL     1     -11.901  13.437  68.637  1.00  0.00    -0.362 C  
BRANCH  10  11
HETATM   11  C   UNL     1     -11.169  14.693  68.099  1.00  0.00    -0.289 C  
BRANCH  11  12
HETATM   12  N   UNL     1      -9.847  14.996  68.647  1.00  0.00    -0.215 NA 
HETATM   13  H   UNL     1      -9.696  14.465  69.505  1.00  0.00     0.000 HD 
BRANCH  12  14
HETATM   14  C   UNL     1      -8.722  14.799  67.734  1.00  0.00    -0.172 C  
HETATM   15  C   UNL     1      -8.249  13.345  67.658  1.00  0.00    -0.177 C  
HETATM   16  C   UNL     1      -9.177  15.255  66.344  1.00  0.00    -0.342 C  
ENDBRANCH  12  14
ENDBRANCH  11  12
ENDBRANCH  10  11
ENDBRANCH   9  10
BRANCH   9  17
HETATM   17  C   UNL     1     -11.437  11.040  68.682  1.00  0.00    -0.308 A  
HETATM   18  C   UNL     1     -10.218   6.432  69.211  1.00  0.00    -0.192 A  
HETATM   19  C   UNL     1     -11.474  11.108  70.077  1.00  0.00    -0.376 A  
HETATM   20  C   UNL     1     -10.453   6.535  70.572  1.00  0.00    -0.207 A  
HETATM   21  N   UNL     1     -10.392   7.499  68.388  1.00  0.00    -0.194 NA 
HETATM   22  C   UNL     1     -10.791   8.661  68.952  1.00  0.00     0.008 A  
HETATM   23  C   UNL     1     -11.315   9.977  70.887  1.00  0.00    -0.439 A  
HETATM   24  C   UNL     1     -10.985   8.753  70.346  1.00  0.00    -0.235 A  
HETATM   25  C   UNL     1     -11.037   9.790  68.156  1.00  0.00    -0.169 A  
HETATM   26  N   UNL     1     -10.830   7.693  71.162  1.00  0.00    -0.232 NA 
BRANCH  18  27
HETATM   27  C   UNL     1      -9.768   5.205  68.582  1.00  0.00    -0.210 A  
HETATM   28  N   UNL     1      -8.985   3.732  67.148  1.00  0.00    -0.131 NA 
HETATM   29  C   UNL     1      -9.263   5.061  67.304  1.00  0.00    -0.121 A  
HETATM   30  C   UNL     1      -8.444   3.087  65.978  1.00  0.00    -0.111 C  
HETATM   31  N   UNL     1      -9.277   2.993  68.234  1.00  0.00    -0.173 NA 
HETATM   32  C   UNL     1      -9.753   3.891  69.103  1.00  0.00    -0.073 A  
ENDBRANCH  18  27
ENDBRANCH   9  17
ENDBRANCH   5   9
BRANCH   8  33
HETATM   33  O   UNL     1      -9.715  10.277  63.955  1.00  0.00    -0.306 OA 
HETATM   34  C   UNL     1      -9.394  10.242  62.573  1.00  0.00    -0.296 C  
ENDBRANCH   8  33
ENDBRANCH   2   3
TORSDOF 9
ENDMDL
MODEL      113
REMARK 921   NORMALIZED FREE ENERGY PREDICTED BY IDOCK:   -5.42 KCAL/MOL
REMARK 922        TOTAL FREE ENERGY PREDICTED BY IDOCK:   -9.45 KCAL/MOL
REMARK 923 INTER-LIGAND FREE ENERGY PREDICTED BY IDOCK:   -8.45 KCAL/MOL
REMARK 924 INTRA-LIGAND FREE ENERGY PREDICTED BY IDOCK:   -1.00 KCAL/MOL
REMARK 927      BINDING AFFINITY PREDICTED BY RF-SCORE:    0.00 PKD
ROOT
HETATM    1  C   UNL     1     -10.413   5.292  66.215  1.00  0.00    -0.255 C  
HETATM    2  O   UNL     1      -9.907   6.611  66.455  1.00  0.00    -0.166 OA 
ENDROOT
BRANCH   2   3
HETATM    3  C   UNL     1     -10.233   7.117  67.692  1.00  0.00    -0.198 A  
HETATM    4  C   UNL     1     -10.128   8.517  67.857  1.00  0.00    -0.258 A  
HETATM    5  C   UNL     1     -10.557   9.176  69.026  1.00  0.00    -0.199 A  
HETATM    6  C   UNL     1     -10.979   8.303  70.044  1.00  0.00    -0.197 A  
HETATM    7  C   UNL     1     -10.633   6.311  68.752  1.00  0.00    -0.313 A  
HETATM    8  C   UNL     1     -11.002   6.906  69.939  1.00  0.00    -0.277 A  
BRANCH   5   9
HETATM    9  N   UNL     1     -10.584  10.601  69.195  1.00  0.00    -0.213 NA 
BRANCH   9  10
HETATM   10  C   UNL     1     -11.901  11.316  69.198  1.00  0.00    -0.355 C  
BRANCH  10  11
HETATM   11  C   UNL     1     -12.326  12.055  70.493  1.00  0.00    -0.282 C  
BRANCH  11  12
HETATM   12  N   UNL     1     -12.507  13.504  70.420  1.00  0.00    -0.305 NA 
HETATM   13  H   UNL     1     -13.163  13.735  69.673  1.00  0.00     0.000 HD 
BRANCH  12  14
HETATM   14  C   UNL     1     -12.917  14.155  71.663  1.00  0.00    -0.347 C  
HETATM   15  C   UNL     1     -13.687  15.459  71.441  1.00  0.00    -0.591 C  
HETATM   16  C   UNL     1     -13.807  13.167  72.424  1.00  0.00    -0.583 C  
ENDBRANCH  12  14
ENDBRANCH  11  12
ENDBRANCH  10  11
ENDBRANCH   9  10
BRANCH   9  17
HETATM   17  C   UNL     1      -9.488  11.491  68.868  1.00  0.00    -0.013 A  
HETATM   18  C   UNL     1      -7.834  15.672  67.201  1.00  0.00    -0.217 A  
HETATM   19  C   UNL     1      -8.153  11.082  68.942  1.00  0.00    -0.135 A  
HETATM   20  C   UNL     1      -6.560  15.131  67.133  1.00  0.00     0.256 A  
HETATM   21  N   UNL     1      -8.885  14.934  67.642  1.00  0.00    -0.175 NA 
HETATM   22  C   UNL     1      -8.635  13.659  68.021  1.00  0.00    -0.175 A  
HETATM   23  C   UNL     1      -7.102  11.866  68.450  1.00  0.00    -0.086 A  
HETATM   24  C   UNL     1      -7.323  13.143  67.981  1.00  0.00    -0.125 A  
HETATM   25  C   UNL     1      -9.681  12.824  68.441  1.00  0.00    -0.186 A  
HETATM   26  N   UNL     1      -6.282  13.867  67.528  1.00  0.00    -0.335 NA 
BRANCH  18  27
HETATM   27  C   UNL     1      -8.127  17.041  66.823  1.00  0.00    -0.277 A  
HETATM   28  N   UNL     1      -9.081  19.010  66.596  1.00  0.00    -0.318 NA 
HETATM   29  C   UNL     1      -9.225  17.791  67.197  1.00  0.00    -0.253 A  
HETATM   30  C   UNL     1      -9.979  20.135  66.681  1.00  0.00    -0.463 C  
HETATM   31  N   UNL     1      -7.966  19.110  65.850  1.00  0.00    -0.458 NA 
HETATM   32  C   UNL     1      -7.389  17.912  65.989  1.00  0.00    -0.271 A  
ENDBRANCH  18  27
ENDBRANCH   9  17
ENDBRANCH   5   9
BRANCH   8  33
HETATM   33  O   UNL     1     -11.424   6.263  71.071  1.00  0.00    -0.319 OA 
HETATM   34  C   UNL     1     -12.509   6.844  71.779  1.00  0.00    -0.356 C  
ENDBRANCH   8  33
ENDBRANCH   2   3
TORSDOF 9
ENDMDL
MODEL      114
REMARK 921   NORMALIZED FREE ENERGY PREDICTED BY IDOCK:   -5.42 KCAL/MOL
REMARK 922        TOTAL FREE ENERGY PREDICTED BY IDOCK:   -9.44 KCAL/MOL
REMARK 923 INTER-LIGAND FREE ENERGY PREDICTED BY IDOCK:   -8.18 KCAL/MOL
REMARK 924 INTRA-LIGAND FREE ENERGY PREDICTED BY IDOCK:   -1.26 KCAL/MOL
REMARK 927      BINDING AFFINITY PREDICTED BY RF-SCORE:    0.00 PKD
ROOT
HETATM    1  C   UNL     1     -13.811   9.139  71.952  1.00  0.00    -0.395 C  
HETATM    2  O   UNL     1     -12.893  10.001  71.270  1.00  0.00    -0.345 OA 
ENDROOT
BRANCH   2   3
HETATM    3  C   UNL     1     -11.627   9.480  71.142  1.00  0.00    -0.367 A  
HETATM    4  C   UNL     1     -10.996   9.635  69.886  1.00  0.00    -0.281 A  
HETATM    5  C   UNL     1      -9.655   9.268  69.662  1.00  0.00    -0.183 A  
HETATM    6  C   UNL     1      -9.053   8.627  70.761  1.00  0.00    -0.214 A  
HETATM    7  C   UNL     1     -10.982   8.812  72.177  1.00  0.00    -0.404 A  
HETATM    8  C   UNL     1      -9.688   8.375  71.983  1.00  0.00    -0.283 A  
BRANCH   5   9
HETATM    9  N   UNL     1      -8.934   9.515  68.446  1.00  0.00    -0.127 NA 
BRANCH   9  10
HETATM   10  C   UNL     1      -7.464   9.227  68.391  1.00  0.00    -0.078 C  
BRANCH  10  11
HETATM   11  C   UNL     1      -7.018   7.793  68.005  1.00  0.00    -0.080 C  
BRANCH  11  12
HETATM   12  N   UNL     1      -7.840   7.062  67.041  1.00  0.00    -0.107 NA 
HETATM   13  H   UNL     1      -8.605   7.654  66.716  1.00  0.00     0.000 HD 
BRANCH  12  14
HETATM   14  C   UNL     1      -7.125   6.498  65.897  1.00  0.00    -0.062 C  
HETATM   15  C   UNL     1      -8.024   6.246  64.684  1.00  0.00    -0.120 C  
HETATM   16  C   UNL     1      -6.024   7.492  65.512  1.00  0.00    -0.038 C  
ENDBRANCH  12  14
ENDBRANCH  11  12
ENDBRANCH  10  11
ENDBRANCH   9  10
BRANCH   9  17
HETATM   17  C   UNL     1      -9.335  10.466  67.430  1.00  0.00    -0.145 A  
HETATM   18  C   UNL     1      -9.883  14.973  65.884  1.00  0.00    -0.338 A  
HETATM   19  C   UNL     1      -9.973  10.068  66.251  1.00  0.00    -0.310 A  
HETATM   20  C   UNL     1     -10.663  14.510  64.837  1.00  0.00    -0.429 A  
HETATM   21  N   UNL     1      -9.350  14.115  66.792  1.00  0.00    -0.272 NA 
HETATM   22  C   UNL     1      -9.602  12.796  66.626  1.00  0.00    -0.255 A  
HETATM   23  C   UNL     1     -10.532  10.988  65.355  1.00  0.00    -0.306 A  
HETATM   24  C   UNL     1     -10.366  12.345  65.530  1.00  0.00    -0.271 A  
HETATM   25  C   UNL     1      -9.124  11.858  67.553  1.00  0.00    -0.178 A  
HETATM   26  N   UNL     1     -10.910  13.194  64.637  1.00  0.00    -0.345 NA 
BRANCH  18  27
HETATM   27  C   UNL     1      -9.577  16.377  66.074  1.00  0.00    -0.352 A  
HETATM   28  N   UNL     1      -9.669  18.575  66.092  1.00  0.00    -0.493 NA 
HETATM   29  C   UNL     1     -10.370  17.457  65.737  1.00  0.00    -0.216 A  
HETATM   30  C   UNL     1     -10.081  19.947  65.933  1.00  0.00    -0.421 C  
HETATM   31  N   UNL     1      -8.468  18.305  66.634  1.00  0.00    -0.258 NA 
HETATM   32  C   UNL     1      -8.414  16.969  66.622  1.00  0.00    -0.248 A  
ENDBRANCH  18  27
ENDBRANCH   9  17
ENDBRANCH   5   9
BRANCH   8  33
HETATM   33  O   UNL     1      -8.913   7.712  72.894  1.00  0.00    -0.140 OA 
HETATM   34  C   UNL     1      -7.521   7.990  72.885  1.00  0.00    -0.119 C  
ENDBRANCH   8  33
ENDBRANCH   2   3
TORSDOF 9
ENDMDL
MODEL      115
REMARK 921   NORMALIZED FREE ENERGY PREDICTED BY IDOCK:   -5.41 KCAL/MOL
REMARK 922        TOTAL FREE ENERGY PREDICTED BY IDOCK:   -9.42 KCAL/MOL
REMARK 923 INTER-LIGAND FREE ENERGY PREDICTED BY IDOCK:   -8.19 KCAL/MOL
REMARK 924 INTRA-LIGAND FREE ENERGY PREDICTED BY IDOCK:   -1.24 KCAL/MOL
REMARK 927      BINDING AFFINITY PREDICTED BY RF-SCORE:    0.00 PKD
ROOT
HETATM    1  C   UNL     1      -6.171  13.517  70.175  1.00  0.00    -0.077 C  
HETATM    2  O   UNL     1      -6.347  14.881  70.578  1.00  0.00    -0.142 OA 
ENDROOT
BRANCH   2   3
HETATM    3  C   UNL     1      -7.136  15.618  69.726  1.00  0.00    -0.107 A  
HETATM    4  C   UNL     1      -8.351  15.028  69.309  1.00  0.00    -0.169 A  
HETATM    5  C   UNL     1      -9.309  15.726  68.547  1.00  0.00    -0.198 A  
HETATM    6  C   UNL     1      -8.888  17.006  68.145  1.00  0.00    -0.227 A  
HETATM    7  C   UNL     1      -6.771  16.879  69.268  1.00  0.00    -0.238 A  
HETATM    8  C   UNL     1      -7.649  17.576  68.466  1.00  0.00    -0.266 A  
BRANCH   5   9
HETATM    9  N   UNL     1     -10.605  15.215  68.202  1.00  0.00    -0.241 NA 
BRANCH   9  10
HETATM   10  C   UNL     1     -11.622  15.003  69.282  1.00  0.00    -0.315 C  
BRANCH  10  11
HETATM   11  C   UNL     1     -12.292  13.608  69.386  1.00  0.00    -0.153 C  
BRANCH  11  12
HETATM   12  N   UNL     1     -12.095  12.851  70.622  1.00  0.00    -0.508 NA 
HETATM   13  H   UNL     1     -12.915  12.944  71.222  1.00  0.00     0.000 HD 
BRANCH  12  14
HETATM   14  C   UNL     1     -11.758  11.439  70.453  1.00  0.00    -0.268 C  
HETATM   15  C   UNL     1     -12.637  10.501  71.285  1.00  0.00    -0.531 C  
HETATM   16  C   UNL     1     -11.928  11.104  68.967  1.00  0.00    -0.389 C  
ENDBRANCH  12  14
ENDBRANCH  11  12
ENDBRANCH  10  11
ENDBRANCH   9  10
BRANCH   9  17
HETATM   17  C   UNL     1     -10.889  14.416  67.028  1.00  0.00    -0.297 A  
HETATM   18  C   UNL     1      -9.747  10.907  63.964  1.00  0.00    -0.301 A  
HETATM   19  C   UNL     1     -11.965  14.697  66.181  1.00  0.00    -0.250 A  
HETATM   20  C   UNL     1     -10.722  11.364  63.092  1.00  0.00    -0.155 A  
HETATM   21  N   UNL     1      -9.529  11.524  65.154  1.00  0.00    -0.206 NA 
HETATM   22  C   UNL     1     -10.306  12.590  65.455  1.00  0.00    -0.282 A  
HETATM   23  C   UNL     1     -12.137  14.054  64.949  1.00  0.00    -0.435 A  
HETATM   24  C   UNL     1     -11.318  13.013  64.568  1.00  0.00    -0.339 A  
HETATM   25  C   UNL     1     -10.103  13.306  66.644  1.00  0.00    -0.266 A  
HETATM   26  N   UNL     1     -11.526  12.414  63.380  1.00  0.00    -0.462 NA 
BRANCH  18  27
HETATM   27  C   UNL     1      -8.916   9.754  63.680  1.00  0.00    -0.270 A  
HETATM   28  N   UNL     1      -7.537   8.049  63.860  1.00  0.00    -0.120 NA 
HETATM   29  C   UNL     1      -8.154   9.034  64.579  1.00  0.00    -0.143 A  
HETATM   30  C   UNL     1      -6.632   7.044  64.357  1.00  0.00    -0.045 C  
HETATM   31  N   UNL     1      -7.838   8.076  62.549  1.00  0.00    -0.133 NA 
HETATM   32  C   UNL     1      -8.676   9.113  62.442  1.00  0.00    -0.222 A  
ENDBRANCH  18  27
ENDBRANCH   9  17
ENDBRANCH   5   9
BRANCH   8  33
HETATM   33  O   UNL     1      -7.449  18.823  67.939  1.00  0.00    -0.236 OA 
HETATM   34  C   UNL     1      -6.776  18.898  66.691  1.00  0.00    -0.194 C  
ENDBRANCH   8  33
ENDBRANCH   2   3
TORSDOF 9
ENDMDL
MODEL      116
REMARK 921   NORMALIZED FREE ENERGY PREDICTED BY IDOCK:   -5.41 KCAL/MOL
REMARK 922        TOTAL FREE ENERGY PREDICTED BY IDOCK:   -9.42 KCAL/MOL
REMARK 923 INTER-LIGAND FREE ENERGY PREDICTED BY IDOCK:   -8.11 KCAL/MOL
REMARK 924 INTRA-LIGAND FREE ENERGY PREDICTED BY IDOCK:   -1.31 KCAL/MOL
REMARK 927      BINDING AFFINITY PREDICTED BY RF-SCORE:    0.00 PKD
ROOT
HETATM    1  C   UNL     1     -12.819  14.203  72.077  1.00  0.00    -0.338 C  
HETATM    2  O   UNL     1     -13.207  14.351  70.706  1.00  0.00    -0.353 OA 
ENDROOT
BRANCH   2   3
HETATM    3  C   UNL     1     -12.167  14.665  69.862  1.00  0.00    -0.316 A  
HETATM    4  C   UNL     1     -11.284  13.617  69.518  1.00  0.00    -0.205 A  
HETATM    5  C   UNL     1     -10.261  13.771  68.561  1.00  0.00    -0.235 A  
HETATM    6  C   UNL     1     -10.131  15.087  68.081  1.00  0.00    -0.220 A  
HETATM    7  C   UNL     1     -11.962  15.950  69.369  1.00  0.00    -0.268 A  
HETATM    8  C   UNL     1     -10.932  16.165  68.478  1.00  0.00    -0.338 A  
BRANCH   5   9
HETATM    9  N   UNL     1      -9.419  12.709  68.090  1.00  0.00    -0.215 NA 
BRANCH   9  10
HETATM   10  C   UNL     1      -8.184  13.042  67.308  1.00  0.00    -0.172 C  
BRANCH  10  11
HETATM   11  C   UNL     1      -6.946  13.555  68.087  1.00  0.00    -0.118 C  
BRANCH  11  12
HETATM   12  N   UNL     1      -6.051  14.487  67.402  1.00  0.00    -0.314 NA 
HETATM   13  H   UNL     1      -6.208  14.445  66.395  1.00  0.00     0.000 HD 
BRANCH  12  14
HETATM   14  C   UNL     1      -6.111  15.875  67.859  1.00  0.00    -0.134 C  
HETATM   15  C   UNL     1      -6.809  16.810  66.868  1.00  0.00    -0.255 C  
HETATM   16  C   UNL     1      -6.875  15.886  69.187  1.00  0.00    -0.170 C  
ENDBRANCH  12  14
ENDBRANCH  11  12
ENDBRANCH  10  11
ENDBRANCH   9  10
BRANCH   9  17
HETATM   17  C   UNL     1      -9.864  11.353  67.843  1.00  0.00    -0.179 A  
HETATM   18  C   UNL     1     -10.432   6.803  69.251  1.00  0.00    -0.215 A  
HETATM   19  C   UNL     1     -10.337  10.942  66.594  1.00  0.00    -0.289 A  
HETATM   20  C   UNL     1     -10.717   6.444  67.944  1.00  0.00    -0.299 A  
HETATM   21  N   UNL     1     -10.151   8.092  69.577  1.00  0.00    -0.191 NA 
HETATM   22  C   UNL     1     -10.172   9.005  68.579  1.00  0.00    -0.200 A  
HETATM   23  C   UNL     1     -10.589   9.598  66.294  1.00  0.00    -0.051 A  
HETATM   24  C   UNL     1     -10.504   8.622  67.263  1.00  0.00    -0.289 A  
HETATM   25  C   UNL     1      -9.844  10.345  68.834  1.00  0.00    -0.206 A  
HETATM   26  N   UNL     1     -10.766   7.343  66.934  1.00  0.00    -0.334 NA 
BRANCH  18  27
HETATM   27  C   UNL     1     -10.425   5.851  70.345  1.00  0.00    -0.324 A  
HETATM   28  N   UNL     1     -10.688   4.882  72.301  1.00  0.00    -0.186 NA 
HETATM   29  C   UNL     1     -10.926   6.041  71.618  1.00  0.00    -0.272 A  
HETATM   30  C   UNL     1     -11.024   4.595  73.674  1.00  0.00    -0.316 C  
HETATM   31  N   UNL     1     -10.061   3.945  71.566  1.00  0.00    -0.132 NA 
HETATM   32  C   UNL     1      -9.902   4.538  70.378  1.00  0.00    -0.232 A  
ENDBRANCH  18  27
ENDBRANCH   9  17
ENDBRANCH   5   9
BRANCH   8  33
HETATM   33  O   UNL     1     -10.600  17.358  67.897  1.00  0.00    -0.367 OA 
HETATM   34  C   UNL     1      -9.851  18.274  68.683  1.00  0.00    -0.380 C  
ENDBRANCH   8  33
ENDBRANCH   2   3
TORSDOF 9
ENDMDL
MODEL      117
REMARK 921   NORMALIZED FREE ENERGY PREDICTED BY IDOCK:   -5.40 KCAL/MOL
REMARK 922        TOTAL FREE ENERGY PREDICTED BY IDOCK:   -9.41 KCAL/MOL
REMARK 923 INTER-LIGAND FREE ENERGY PREDICTED BY IDOCK:   -7.99 KCAL/MOL
REMARK 924 INTRA-LIGAND FREE ENERGY PREDICTED BY IDOCK:   -1.42 KCAL/MOL
REMARK 927      BINDING AFFINITY PREDICTED BY RF-SCORE:    0.00 PKD
ROOT
HETATM    1  C   UNL     1     -12.554  11.975  63.335  1.00  0.00    -0.469 C  
HETATM    2  O   UNL     1     -13.114  12.542  64.526  1.00  0.00    -0.816 OA 
ENDROOT
BRANCH   2   3
HETATM    3  C   UNL     1     -12.193  12.768  65.523  1.00  0.00    -0.463 A  
HETATM    4  C   UNL     1     -11.126  11.847  65.627  1.00  0.00    -0.362 A  
HETATM    5  C   UNL     1     -10.048  12.036  66.514  1.00  0.00    -0.201 A  
HETATM    6  C   UNL     1     -10.198  13.151  67.359  1.00  0.00    -0.232 A  
HETATM    7  C   UNL     1     -12.294  13.835  66.409  1.00  0.00    -0.460 A  
HETATM    8  C   UNL     1     -11.293  14.024  67.339  1.00  0.00    -0.329 A  
BRANCH   5   9
HETATM    9  N   UNL     1      -8.884  11.197  66.573  1.00  0.00    -0.165 NA 
BRANCH   9  10
HETATM   10  C   UNL     1      -8.531  10.347  65.390  1.00  0.00    -0.168 C  
BRANCH  10  11
HETATM   11  C   UNL     1      -8.487   8.810  65.586  1.00  0.00    -0.160 C  
BRANCH  11  12
HETATM   12  N   UNL     1      -9.760   8.108  65.738  1.00  0.00    -0.401 NA 
HETATM   13  H   UNL     1     -10.207   7.995  64.828  1.00  0.00     0.000 HD 
BRANCH  12  14
HETATM   14  C   UNL     1      -9.695   6.819  66.426  1.00  0.00    -0.064 C  
HETATM   15  C   UNL     1      -8.402   6.619  67.220  1.00  0.00    -0.120 C  
HETATM   16  C   UNL     1     -10.891   6.751  67.382  1.00  0.00    -0.417 C  
ENDBRANCH  12  14
ENDBRANCH  11  12
ENDBRANCH  10  11
ENDBRANCH   9  10
BRANCH   9  17
HETATM   17  C   UNL     1      -8.293  10.693  67.795  1.00  0.00    -0.115 A  
HETATM   18  C   UNL     1      -8.594   8.207  71.886  1.00  0.00    -0.152 A  
HETATM   19  C   UNL     1      -7.010  11.063  68.207  1.00  0.00    -0.069 A  
HETATM   20  C   UNL     1      -7.395   8.762  72.301  1.00  0.00     0.083 A  
HETATM   21  N   UNL     1      -9.132   8.525  70.679  1.00  0.00    -0.151 NA 
HETATM   22  C   UNL     1      -8.446   9.393  69.901  1.00  0.00    -0.177 A  
HETATM   23  C   UNL     1      -6.505  10.735  69.472  1.00  0.00    -0.089 A  
HETATM   24  C   UNL     1      -7.207   9.915  70.329  1.00  0.00    -0.154 A  
HETATM   25  C   UNL     1      -8.966   9.804  68.665  1.00  0.00    -0.130 A  
HETATM   26  N   UNL     1      -6.680   9.616  71.531  1.00  0.00    -0.312 NA 
BRANCH  18  27
HETATM   27  C   UNL     1      -9.340   7.257  72.688  1.00  0.00    -0.176 A  
HETATM   28  N   UNL     1     -10.617   5.590  73.341  1.00  0.00    -0.238 NA 
HETATM   29  C   UNL     1     -10.095   6.193  72.232  1.00  0.00    -0.179 A  
HETATM   30  C   UNL     1     -11.480   4.435  73.380  1.00  0.00    -0.203 C  
HETATM   31  N   UNL     1     -10.262   6.186  74.494  1.00  0.00    -0.320 NA 
HETATM   32  C   UNL     1      -9.486   7.199  74.093  1.00  0.00    -0.241 A  
ENDBRANCH  18  27
ENDBRANCH   9  17
ENDBRANCH   5   9
BRANCH   8  33
HETATM   33  O   UNL     1     -11.235  15.021  68.274  1.00  0.00    -0.273 OA 
HETATM   34  C   UNL     1     -10.406  16.135  67.981  1.00  0.00    -0.271 C  
ENDBRANCH   8  33
ENDBRANCH   2   3
TORSDOF 9
ENDMDL
MODEL      118
REMARK 921   NORMALIZED FREE ENERGY PREDICTED BY IDOCK:   -5.39 KCAL/MOL
REMARK 922        TOTAL FREE ENERGY PREDICTED BY IDOCK:   -9.39 KCAL/MOL
REMARK 923 INTER-LIGAND FREE ENERGY PREDICTED BY IDOCK:   -8.15 KCAL/MOL
REMARK 924 INTRA-LIGAND FREE ENERGY PREDICTED BY IDOCK:   -1.24 KCAL/MOL
REMARK 927      BINDING AFFINITY PREDICTED BY RF-SCORE:    0.00 PKD
ROOT
HETATM    1  C   UNL     1      -5.748   9.306  65.786  1.00  0.00    -0.049 C  
HETATM    2  O   UNL     1      -6.052   8.019  66.338  1.00  0.00    -0.043 OA 
ENDROOT
BRANCH   2   3
HETATM    3  C   UNL     1      -7.386   7.830  66.614  1.00  0.00    -0.088 A  
HETATM    4  C   UNL     1      -8.106   8.952  67.086  1.00  0.00    -0.103 A  
HETATM    5  C   UNL     1      -9.501   8.929  67.278  1.00  0.00    -0.154 A  
HETATM    6  C   UNL     1     -10.080   7.663  67.074  1.00  0.00    -0.338 A  
HETATM    7  C   UNL     1      -8.018   6.601  66.460  1.00  0.00    -0.106 A  
HETATM    8  C   UNL     1      -9.373   6.514  66.699  1.00  0.00    -0.158 A  
BRANCH   5   9
HETATM    9  N   UNL     1     -10.293  10.071  67.639  1.00  0.00    -0.207 NA 
BRANCH   9  10
HETATM   10  C   UNL     1     -11.373   9.921  68.667  1.00  0.00     0.012 C  
BRANCH  10  11
HETATM   11  C   UNL     1     -11.158  10.586  70.050  1.00  0.00    -0.308 C  
BRANCH  11  12
HETATM   12  N   UNL     1     -11.893  11.819  70.333  1.00  0.00    -0.499 NA 
HETATM   13  H   UNL     1     -12.596  11.978  69.612  1.00  0.00     0.000 HD 
BRANCH  12  14
HETATM   14  C   UNL     1     -12.508  11.901  71.657  1.00  0.00     0.005 C  
HETATM   15  C   UNL     1     -13.404  13.129  71.836  1.00  0.00    -0.546 C  
HETATM   16  C   UNL     1     -13.346  10.632  71.850  1.00  0.00    -0.454 C  
ENDBRANCH  12  14
ENDBRANCH  11  12
ENDBRANCH  10  11
ENDBRANCH   9  10
BRANCH   9  17
HETATM   17  C   UNL     1     -10.514  11.222  66.787  1.00  0.00    -0.248 A  
HETATM   18  C   UNL     1     -10.207  15.932  65.935  1.00  0.00    -0.352 A  
HETATM   19  C   UNL     1     -11.226  11.131  65.588  1.00  0.00     0.008 A  
HETATM   20  C   UNL     1     -11.069  15.785  64.861  1.00  0.00    -0.399 A  
HETATM   21  N   UNL     1      -9.839  14.862  66.688  1.00  0.00    -0.250 NA 
HETATM   22  C   UNL     1     -10.339  13.655  66.342  1.00  0.00    -0.286 A  
HETATM   23  C   UNL     1     -11.607  12.264  64.856  1.00  0.00    -0.395 A  
HETATM   24  C   UNL     1     -11.184  13.523  65.220  1.00  0.00    -0.292 A  
HETATM   25  C   UNL     1     -10.042  12.516  67.104  1.00  0.00    -0.219 A  
HETATM   26  N   UNL     1     -11.564  14.583  64.481  1.00  0.00    -0.393 NA 
BRANCH  18  27
HETATM   27  C   UNL     1      -9.637  17.209  66.317  1.00  0.00    -0.273 A  
HETATM   28  N   UNL     1      -9.373  19.317  66.885  1.00  0.00    -0.306 NA 
HETATM   29  C   UNL     1     -10.320  18.381  66.577  1.00  0.00    -0.400 A  
HETATM   30  C   UNL     1      -9.594  20.701  67.226  1.00  0.00    -0.417 C  
HETATM   31  N   UNL     1      -8.115  18.842  66.840  1.00  0.00    -0.258 NA 
HETATM   32  C   UNL     1      -8.279  17.561  66.494  1.00  0.00    -0.276 A  
ENDBRANCH  18  27
ENDBRANCH   9  17
ENDBRANCH   5   9
BRANCH   8  33
HETATM   33  O   UNL     1     -10.144   5.389  66.589  1.00  0.00    -0.172 OA 
HETATM   34  C   UNL     1      -9.467   4.157  66.397  1.00  0.00    -0.189 C  
ENDBRANCH   8  33
ENDBRANCH   2   3
TORSDOF 9
ENDMDL
MODEL      119
REMARK 921   NORMALIZED FREE ENERGY PREDICTED BY IDOCK:   -5.36 KCAL/MOL
REMARK 922        TOTAL FREE ENERGY PREDICTED BY IDOCK:   -9.35 KCAL/MOL
REMARK 923 INTER-LIGAND FREE ENERGY PREDICTED BY IDOCK:   -8.10 KCAL/MOL
REMARK 924 INTRA-LIGAND FREE ENERGY PREDICTED BY IDOCK:   -1.25 KCAL/MOL
REMARK 927      BINDING AFFINITY PREDICTED BY RF-SCORE:    0.00 PKD
ROOT
HETATM    1  C   UNL     1      -8.105  18.615  66.420  1.00  0.00    -0.281 C  
HETATM    2  O   UNL     1      -8.184  17.452  65.586  1.00  0.00    -0.491 OA 
ENDROOT
BRANCH   2   3
HETATM    3  C   UNL     1      -8.194  16.266  66.281  1.00  0.00    -0.277 A  
HETATM    4  C   UNL     1      -9.382  15.502  66.224  1.00  0.00    -0.355 A  
HETATM    5  C   UNL     1      -9.478  14.210  66.778  1.00  0.00    -0.279 A  
HETATM    6  C   UNL     1      -8.331  13.812  67.489  1.00  0.00    -0.197 A  
HETATM    7  C   UNL     1      -7.106  15.823  67.025  1.00  0.00    -0.169 A  
HETATM    8  C   UNL     1      -7.177  14.591  67.640  1.00  0.00    -0.187 A  
BRANCH   5   9
HETATM    9  N   UNL     1     -10.618  13.348  66.642  1.00  0.00    -0.280 NA 
BRANCH   9  10
HETATM   10  C   UNL     1     -11.962  13.829  67.100  1.00  0.00    -0.405 C  
BRANCH  10  11
HETATM   11  C   UNL     1     -12.086  14.368  68.548  1.00  0.00    -0.243 C  
BRANCH  11  12
HETATM   12  N   UNL     1     -12.247  13.392  69.625  1.00  0.00    -0.265 NA 
HETATM   13  H   UNL     1     -11.334  13.047  69.921  1.00  0.00     0.000 HD 
BRANCH  12  14
HETATM   14  C   UNL     1     -13.008  13.850  70.787  1.00  0.00    -0.196 C  
HETATM   15  C   UNL     1     -12.548  13.216  72.102  1.00  0.00     0.008 C  
HETATM   16  C   UNL     1     -12.840  15.370  70.873  1.00  0.00    -0.536 C  
ENDBRANCH  12  14
ENDBRANCH  11  12
ENDBRANCH  10  11
ENDBRANCH   9  10
BRANCH   9  17
HETATM   17  C   UNL     1     -10.555  11.902  66.581  1.00  0.00    -0.238 A  
HETATM   18  C   UNL     1     -10.588   7.608  68.717  1.00  0.00    -0.145 A  
HETATM   19  C   UNL     1     -10.281  11.220  65.392  1.00  0.00    -0.323 A  
HETATM   20  C   UNL     1     -10.139   7.029  67.541  1.00  0.00    -0.185 A  
HETATM   21  N   UNL     1     -10.811   8.945  68.798  1.00  0.00    -0.075 NA 
HETATM   22  C   UNL     1     -10.589   9.683  67.686  1.00  0.00    -0.275 A  
HETATM   23  C   UNL     1     -10.031   9.843  65.359  1.00  0.00    -0.349 A  
HETATM   24  C   UNL     1     -10.170   9.065  66.488  1.00  0.00    -0.248 A  
HETATM   25  C   UNL     1     -10.751  11.075  67.711  1.00  0.00    -0.270 A  
HETATM   26  N   UNL     1      -9.931   7.743  66.410  1.00  0.00    -0.157 NA 
BRANCH  18  27
HETATM   27  C   UNL     1     -10.857   6.841  69.918  1.00  0.00    -0.310 A  
HETATM   28  N   UNL     1     -10.750   5.377  71.556  1.00  0.00    -0.223 NA 
HETATM   29  C   UNL     1     -10.111   5.792  70.421  1.00  0.00    -0.210 A  
HETATM   30  C   UNL     1     -10.356   4.302  72.433  1.00  0.00    -0.160 C  
HETATM   31  N   UNL     1     -11.866   6.077  71.830  1.00  0.00    -0.210 NA 
HETATM   32  C   UNL     1     -11.928   6.965  70.832  1.00  0.00    -0.381 A  
ENDBRANCH  18  27
ENDBRANCH   9  17
ENDBRANCH   5   9
BRANCH   8  33
HETATM   33  O   UNL     1      -6.200  14.007  68.400  1.00  0.00    -0.085 OA 
HETATM   34  C   UNL     1      -5.811  14.684  69.586  1.00  0.00    -0.104 C  
ENDBRANCH   8  33
ENDBRANCH   2   3
TORSDOF 9
ENDMDL
MODEL      120
REMARK 921   NORMALIZED FREE ENERGY PREDICTED BY IDOCK:   -5.32 KCAL/MOL
REMARK 922        TOTAL FREE ENERGY PREDICTED BY IDOCK:   -9.29 KCAL/MOL
REMARK 923 INTER-LIGAND FREE ENERGY PREDICTED BY IDOCK:   -8.15 KCAL/MOL
REMARK 924 INTRA-LIGAND FREE ENERGY PREDICTED BY IDOCK:   -1.14 KCAL/MOL
REMARK 927      BINDING AFFINITY PREDICTED BY RF-SCORE:    0.00 PKD
ROOT
HETATM    1  C   UNL     1     -13.022  11.956  63.587  1.00  0.00    -0.187 C  
HETATM    2  O   UNL     1     -11.733  12.423  63.172  1.00  0.00    -0.402 OA 
ENDROOT
BRANCH   2   3
HETATM    3  C   UNL     1     -10.694  11.952  63.940  1.00  0.00    -0.395 A  
HETATM    4  C   UNL     1     -10.514  12.553  65.207  1.00  0.00    -0.313 A  
HETATM    5  C   UNL     1      -9.575  12.076  66.144  1.00  0.00    -0.239 A  
HETATM    6  C   UNL     1      -8.763  11.038  65.653  1.00  0.00    -0.162 A  
HETATM    7  C   UNL     1      -9.836  10.946  63.509  1.00  0.00    -0.407 A  
HETATM    8  C   UNL     1      -8.859  10.490  64.368  1.00  0.00    -0.197 A  
BRANCH   5   9
HETATM    9  N   UNL     1      -9.438  12.572  67.484  1.00  0.00    -0.180 NA 
BRANCH   9  10
HETATM   10  C   UNL     1     -10.409  12.127  68.536  1.00  0.00    -0.221 C  
BRANCH  10  11
HETATM   11  C   UNL     1     -11.882  12.594  68.410  1.00  0.00    -0.301 C  
BRANCH  11  12
HETATM   12  N   UNL     1     -12.240  13.881  69.006  1.00  0.00    -0.452 NA 
HETATM   13  H   UNL     1     -13.203  14.118  68.769  1.00  0.00     0.000 HD 
BRANCH  12  14
HETATM   14  C   UNL     1     -12.040  13.988  70.450  1.00  0.00    -0.356 C  
HETATM   15  C   UNL     1     -12.565  15.299  71.040  1.00  0.00    -0.469 C  
HETATM   16  C   UNL     1     -12.775  12.811  71.101  1.00  0.00    -0.355 C  
ENDBRANCH  12  14
ENDBRANCH  11  12
ENDBRANCH  10  11
ENDBRANCH   9  10
BRANCH   9  17
HETATM   17  C   UNL     1      -8.793  13.820  67.839  1.00  0.00    -0.186 A  
HETATM   18  C   UNL     1      -6.708  17.961  66.612  1.00  0.00    -0.200 A  
HETATM   19  C   UNL     1      -8.455  14.132  69.159  1.00  0.00     0.201 A  
HETATM   20  C   UNL     1      -6.254  18.107  67.913  1.00  0.00    -0.174 A  
HETATM   21  N   UNL     1      -7.448  16.882  66.247  1.00  0.00    -0.284 NA 
HETATM   22  C   UNL     1      -7.730  15.968  67.203  1.00  0.00    -0.207 A  
HETATM   23  C   UNL     1      -7.667  15.242  69.488  1.00  0.00    -0.212 A  
HETATM   24  C   UNL     1      -7.291  16.158  68.530  1.00  0.00    -0.161 A  
HETATM   25  C   UNL     1      -8.448  14.805  66.886  1.00  0.00    -0.230 A  
HETATM   26  N   UNL     1      -6.542  17.218  68.891  1.00  0.00    -0.201 NA 
BRANCH  18  27
HETATM   27  C   UNL     1      -6.441  18.935  65.572  1.00  0.00    -0.312 A  
HETATM   28  N   UNL     1      -5.749  19.925  63.734  1.00  0.00    -0.265 NA 
HETATM   29  C   UNL     1      -5.762  18.725  64.388  1.00  0.00    -0.185 A  
HETATM   30  C   UNL     1      -5.150  20.212  62.454  1.00  0.00    -0.204 C  
HETATM   31  N   UNL     1      -6.368  20.910  64.409  1.00  0.00    -0.309 NA 
HETATM   32  C   UNL     1      -6.787  20.306  65.526  1.00  0.00    -0.284 A  
ENDBRANCH  18  27
ENDBRANCH   9  17
ENDBRANCH   5   9
BRANCH   8  33
HETATM   33  O   UNL     1      -7.943   9.509  64.104  1.00  0.00    -0.122 OA 
HETATM   34  C   UNL     1      -8.226   8.633  63.024  1.00  0.00    -0.179 C  
ENDBRANCH   8  33
ENDBRANCH   2   3
TORSDOF 9
ENDMDL
MODEL      121
REMARK 921   NORMALIZED FREE ENERGY PREDICTED BY IDOCK:   -5.31 KCAL/MOL
REMARK 922        TOTAL FREE ENERGY PREDICTED BY IDOCK:   -9.28 KCAL/MOL
REMARK 923 INTER-LIGAND FREE ENERGY PREDICTED BY IDOCK:   -7.80 KCAL/MOL
REMARK 924 INTRA-LIGAND FREE ENERGY PREDICTED BY IDOCK:   -1.48 KCAL/MOL
REMARK 927      BINDING AFFINITY PREDICTED BY RF-SCORE:    0.00 PKD
ROOT
HETATM    1  C   UNL     1      -5.689  14.273  71.411  1.00  0.00    -0.196 C  
HETATM    2  O   UNL     1      -5.696  15.579  70.821  1.00  0.00    -0.107 OA 
ENDROOT
BRANCH   2   3
HETATM    3  C   UNL     1      -6.267  15.624  69.570  1.00  0.00    -0.152 A  
HETATM    4  C   UNL     1      -7.506  14.962  69.409  1.00  0.00    -0.174 A  
HETATM    5  C   UNL     1      -8.258  15.044  68.221  1.00  0.00    -0.146 A  
HETATM    6  C   UNL     1      -7.606  15.736  67.185  1.00  0.00    -0.259 A  
HETATM    7  C   UNL     1      -5.666  16.267  68.494  1.00  0.00    -0.109 A  
HETATM    8  C   UNL     1      -6.336  16.318  67.290  1.00  0.00    -0.179 A  
BRANCH   5   9
HETATM    9  N   UNL     1      -9.573  14.494  68.049  1.00  0.00    -0.212 NA 
BRANCH   9  10
HETATM   10  C   UNL     1     -10.736  15.140  68.740  1.00  0.00    -0.239 C  
BRANCH  10  11
HETATM   11  C   UNL     1     -10.846  16.686  68.686  1.00  0.00    -0.344 C  
BRANCH  11  12
HETATM   12  N   UNL     1     -10.857  17.321  67.369  1.00  0.00    -0.236 NA 
HETATM   13  H   UNL     1     -11.806  17.605  67.127  1.00  0.00     0.000 HD 
BRANCH  12  14
HETATM   14  C   UNL     1      -9.940  18.448  67.202  1.00  0.00    -0.337 C  
HETATM   15  C   UNL     1     -10.612  19.695  66.622  1.00  0.00    -0.599 C  
HETATM   16  C   UNL     1      -9.368  18.780  68.584  1.00  0.00    -0.392 C  
ENDBRANCH  12  14
ENDBRANCH  11  12
ENDBRANCH  10  11
ENDBRANCH   9  10
BRANCH   9  17
HETATM   17  C   UNL     1      -9.850  13.115  67.702  1.00  0.00    -0.219 A  
HETATM   18  C   UNL     1     -10.525   8.531  68.942  1.00  0.00    -0.188 A  
HETATM   19  C   UNL     1      -9.928  12.685  66.374  1.00  0.00    -0.262 A  
HETATM   20  C   UNL     1     -10.408   8.164  67.611  1.00  0.00    -0.247 A  
HETATM   21  N   UNL     1     -10.423   9.832  69.319  1.00  0.00    -0.208 NA 
HETATM   22  C   UNL     1     -10.215  10.749  68.347  1.00  0.00    -0.175 A  
HETATM   23  C   UNL     1     -10.006  11.330  66.030  1.00  0.00    -0.273 A  
HETATM   24  C   UNL     1     -10.139  10.355  66.994  1.00  0.00    -0.215 A  
HETATM   25  C   UNL     1     -10.051  12.104  68.669  1.00  0.00    -0.161 A  
HETATM   26  N   UNL     1     -10.223   9.065  66.618  1.00  0.00    -0.275 NA 
BRANCH  18  27
HETATM   27  C   UNL     1     -10.770   7.575  70.003  1.00  0.00    -0.248 A  
HETATM   28  N   UNL     1     -10.646   5.846  71.357  1.00  0.00    -0.243 NA 
HETATM   29  C   UNL     1     -10.040   6.436  70.284  1.00  0.00    -0.181 A  
HETATM   30  C   UNL     1     -10.253   4.626  72.017  1.00  0.00    -0.190 C  
HETATM   31  N   UNL     1     -11.726   6.516  71.798  1.00  0.00    -0.311 NA 
HETATM   32  C   UNL     1     -11.799   7.565  70.973  1.00  0.00    -0.293 A  
ENDBRANCH  18  27
ENDBRANCH   9  17
ENDBRANCH   5   9
BRANCH   8  33
HETATM   33  O   UNL     1      -5.892  16.913  66.140  1.00  0.00    -0.251 OA 
HETATM   34  C   UNL     1      -5.787  18.329  66.144  1.00  0.00    -0.181 C  
ENDBRANCH   8  33
ENDBRANCH   2   3
TORSDOF 9
ENDMDL
MODEL      122
REMARK 921   NORMALIZED FREE ENERGY PREDICTED BY IDOCK:   -5.31 KCAL/MOL
REMARK 922        TOTAL FREE ENERGY PREDICTED BY IDOCK:   -9.28 KCAL/MOL
REMARK 923 INTER-LIGAND FREE ENERGY PREDICTED BY IDOCK:   -8.18 KCAL/MOL
REMARK 924 INTRA-LIGAND FREE ENERGY PREDICTED BY IDOCK:   -1.10 KCAL/MOL
REMARK 927      BINDING AFFINITY PREDICTED BY RF-SCORE:    0.00 PKD
ROOT
HETATM    1  C   UNL     1      -6.614   4.655  69.637  1.00  0.00    -0.033 C  
HETATM    2  O   UNL     1      -7.055   5.583  70.637  1.00  0.00    -0.058 OA 
ENDROOT
BRANCH   2   3
HETATM    3  C   UNL     1      -8.401   5.859  70.589  1.00  0.00    -0.124 A  
HETATM    4  C   UNL     1      -8.875   6.532  69.440  1.00  0.00    -0.133 A  
HETATM    5  C   UNL     1     -10.246   6.755  69.204  1.00  0.00    -0.181 A  
HETATM    6  C   UNL     1     -11.075   6.356  70.269  1.00  0.00    -0.416 A  
HETATM    7  C   UNL     1      -9.274   5.517  71.616  1.00  0.00    -0.159 A  
HETATM    8  C   UNL     1     -10.620   5.774  71.459  1.00  0.00    -0.246 A  
BRANCH   5   9
HETATM    9  N   UNL     1     -10.785   7.324  68.002  1.00  0.00    -0.179 NA 
BRANCH   9  10
HETATM   10  C   UNL     1     -11.157   6.421  66.865  1.00  0.00    -0.272 C  
BRANCH  10  11
HETATM   11  C   UNL     1     -10.346   5.113  66.679  1.00  0.00    -0.281 C  
BRANCH  11  12
HETATM   12  N   UNL     1     -10.709   4.241  65.562  1.00  0.00    -0.519 NA 
HETATM   13  H   UNL     1     -11.322   4.739  64.917  1.00  0.00     0.000 HD 
BRANCH  12  14
HETATM   14  C   UNL     1      -9.590   3.648  64.831  1.00  0.00    -0.173 C  
HETATM   15  C   UNL     1     -10.030   2.708  63.706  1.00  0.00    -0.147 C  
HETATM   16  C   UNL     1      -8.773   4.800  64.236  1.00  0.00    -0.143 C  
ENDBRANCH  12  14
ENDBRANCH  11  12
ENDBRANCH  10  11
ENDBRANCH   9  10
BRANCH   9  17
HETATM   17  C   UNL     1     -10.553   8.683  67.558  1.00  0.00    -0.222 A  
HETATM   18  C   UNL     1     -10.769  13.421  68.266  1.00  0.00    -0.258 A  
HETATM   19  C   UNL     1     -10.106   8.976  66.266  1.00  0.00    -0.311 A  
HETATM   20  C   UNL     1     -10.498  13.626  66.922  1.00  0.00    -0.272 A  
HETATM   21  N   UNL     1     -10.852  12.167  68.779  1.00  0.00    -0.227 NA 
HETATM   22  C   UNL     1     -10.651  11.132  67.932  1.00  0.00    -0.198 A  
HETATM   23  C   UNL     1     -10.061  10.284  65.768  1.00  0.00    -0.325 A  
HETATM   24  C   UNL     1     -10.337  11.365  66.577  1.00  0.00    -0.236 A  
HETATM   25  C   UNL     1     -10.770   9.809  68.383  1.00  0.00    -0.262 A  
HETATM   26  N   UNL     1     -10.270  12.607  66.061  1.00  0.00    -0.266 NA 
BRANCH  18  27
HETATM   27  C   UNL     1     -10.967  14.511  69.202  1.00  0.00    -0.286 A  
HETATM   28  N   UNL     1     -11.613  15.732  70.913  1.00  0.00    -0.370 NA 
HETATM   29  C   UNL     1     -11.703  14.481  70.371  1.00  0.00    -0.290 A  
HETATM   30  C   UNL     1     -12.220  16.197  72.135  1.00  0.00    -0.473 C  
HETATM   31  N   UNL     1     -10.874  16.583  70.178  1.00  0.00    -0.284 NA 
HETATM   32  C   UNL     1     -10.483  15.838  69.139  1.00  0.00    -0.240 A  
ENDBRANCH  18  27
ENDBRANCH   9  17
ENDBRANCH   5   9
BRANCH   8  33
HETATM   33  O   UNL     1     -11.608   5.497  72.364  1.00  0.00    -0.255 OA 
HETATM   34  C   UNL     1     -11.282   4.617  73.429  1.00  0.00    -0.338 C  
ENDBRANCH   8  33
ENDBRANCH   2   3
TORSDOF 9
ENDMDL
MODEL      123
REMARK 921   NORMALIZED FREE ENERGY PREDICTED BY IDOCK:   -5.31 KCAL/MOL
REMARK 922        TOTAL FREE ENERGY PREDICTED BY IDOCK:   -9.27 KCAL/MOL
REMARK 923 INTER-LIGAND FREE ENERGY PREDICTED BY IDOCK:   -8.26 KCAL/MOL
REMARK 924 INTRA-LIGAND FREE ENERGY PREDICTED BY IDOCK:   -1.02 KCAL/MOL
REMARK 927      BINDING AFFINITY PREDICTED BY RF-SCORE:    0.00 PKD
ROOT
HETATM    1  C   UNL     1     -13.795   8.486  71.379  1.00  0.00    -0.252 C  
HETATM    2  O   UNL     1     -12.688   8.284  72.266  1.00  0.00    -0.333 OA 
ENDROOT
BRANCH   2   3
HETATM    3  C   UNL     1     -11.465   8.571  71.706  1.00  0.00    -0.310 A  
HETATM    4  C   UNL     1     -11.463   8.995  70.358  1.00  0.00    -0.202 A  
HETATM    5  C   UNL     1     -10.297   9.446  69.708  1.00  0.00    -0.223 A  
HETATM    6  C   UNL     1      -9.131   9.319  70.485  1.00  0.00    -0.307 A  
HETATM    7  C   UNL     1     -10.270   8.443  72.407  1.00  0.00    -0.399 A  
HETATM    8  C   UNL     1      -9.094   8.812  71.790  1.00  0.00    -0.235 A  
BRANCH   5   9
HETATM    9  N   UNL     1     -10.264   9.999  68.383  1.00  0.00    -0.165 NA 
BRANCH   9  10
HETATM   10  C   UNL     1      -9.470   9.306  67.318  1.00  0.00    -0.144 C  
BRANCH  10  11
HETATM   11  C   UNL     1      -9.867   9.552  65.839  1.00  0.00    -0.290 C  
BRANCH  11  12
HETATM   12  N   UNL     1      -8.848   9.322  64.816  1.00  0.00    -0.246 NA 
HETATM   13  H   UNL     1      -9.072   8.482  64.283  1.00  0.00     0.000 HD 
BRANCH  12  14
HETATM   14  C   UNL     1      -8.602  10.439  63.905  1.00  0.00    -0.176 C  
HETATM   15  C   UNL     1      -7.438  10.192  62.941  1.00  0.00    -0.143 C  
HETATM   16  C   UNL     1      -9.886  10.663  63.099  1.00  0.00    -0.351 C  
ENDBRANCH  12  14
ENDBRANCH  11  12
ENDBRANCH  10  11
ENDBRANCH   9  10
BRANCH   9  17
HETATM   17  C   UNL     1     -10.489  11.395  68.068  1.00  0.00    -0.188 A  
HETATM   18  C   UNL     1      -9.144  15.997  68.208  1.00  0.00    -0.191 A  
HETATM   19  C   UNL     1     -11.678  11.842  67.485  1.00  0.00    -0.335 A  
HETATM   20  C   UNL     1     -10.414  16.371  67.799  1.00  0.00    -0.300 A  
HETATM   21  N   UNL     1      -8.822  14.688  68.381  1.00  0.00    -0.175 NA 
HETATM   22  C   UNL     1      -9.784  13.771  68.127  1.00  0.00    -0.227 A  
HETATM   23  C   UNL     1     -11.980  13.203  67.351  1.00  0.00    -0.379 A  
HETATM   24  C   UNL     1     -11.057  14.174  67.672  1.00  0.00    -0.282 A  
HETATM   25  C   UNL     1      -9.537  12.406  68.331  1.00  0.00    -0.180 A  
HETATM   26  N   UNL     1     -11.385  15.471  67.517  1.00  0.00    -0.282 NA 
BRANCH  18  27
HETATM   27  C   UNL     1      -8.087  16.955  68.466  1.00  0.00    -0.244 A  
HETATM   28  N   UNL     1      -6.865  18.782  68.536  1.00  0.00    -0.254 NA 
HETATM   29  C   UNL     1      -8.055  18.282  68.086  1.00  0.00    -0.285 A  
HETATM   30  C   UNL     1      -6.370  20.127  68.377  1.00  0.00    -0.291 C  
HETATM   31  N   UNL     1      -6.112  17.874  69.181  1.00  0.00    -0.215 NA 
HETATM   32  C   UNL     1      -6.857  16.764  69.137  1.00  0.00    -0.227 A  
ENDBRANCH  18  27
ENDBRANCH   9  17
ENDBRANCH   5   9
BRANCH   8  33
HETATM   33  O   UNL     1      -7.840   8.755  72.336  1.00  0.00    -0.351 OA 
HETATM   34  C   UNL     1      -7.193   7.492  72.340  1.00  0.00    -0.073 C  
ENDBRANCH   8  33
ENDBRANCH   2   3
TORSDOF 9
ENDMDL
MODEL      124
REMARK 921   NORMALIZED FREE ENERGY PREDICTED BY IDOCK:   -5.30 KCAL/MOL
REMARK 922        TOTAL FREE ENERGY PREDICTED BY IDOCK:   -9.26 KCAL/MOL
REMARK 923 INTER-LIGAND FREE ENERGY PREDICTED BY IDOCK:   -8.23 KCAL/MOL
REMARK 924 INTRA-LIGAND FREE ENERGY PREDICTED BY IDOCK:   -1.03 KCAL/MOL
REMARK 927      BINDING AFFINITY PREDICTED BY RF-SCORE:    0.00 PKD
ROOT
HETATM    1  C   UNL     1     -10.330   4.782  65.971  1.00  0.00    -0.293 C  
HETATM    2  O   UNL     1      -9.068   5.290  65.519  1.00  0.00    -0.159 OA 
ENDROOT
BRANCH   2   3
HETATM    3  C   UNL     1      -8.510   6.226  66.357  1.00  0.00    -0.125 A  
HETATM    4  C   UNL     1      -9.244   7.418  66.561  1.00  0.00    -0.206 A  
HETATM    5  C   UNL     1      -8.852   8.397  67.496  1.00  0.00    -0.135 A  
HETATM    6  C   UNL     1      -7.612   8.132  68.106  1.00  0.00    -0.105 A  
HETATM    7  C   UNL     1      -7.278   6.043  66.974  1.00  0.00    -0.075 A  
HETATM    8  C   UNL     1      -6.821   7.006  67.849  1.00  0.00    -0.077 A  
BRANCH   5   9
HETATM    9  N   UNL     1      -9.622   9.562  67.827  1.00  0.00    -0.132 NA 
BRANCH   9  10
HETATM   10  C   UNL     1     -10.698   9.461  68.865  1.00  0.00    -0.178 C  
BRANCH  10  11
HETATM   11  C   UNL     1     -10.332   9.818  70.329  1.00  0.00    -0.291 C  
BRANCH  11  12
HETATM   12  N   UNL     1     -11.308   9.499  71.370  1.00  0.00    -0.376 NA 
HETATM   13  H   UNL     1     -11.066   9.983  72.234  1.00  0.00     0.000 HD 
BRANCH  12  14
HETATM   14  C   UNL     1     -12.706   9.759  71.028  1.00  0.00    -0.304 C  
HETATM   15  C   UNL     1     -13.686   8.797  71.706  1.00  0.00    -0.461 C  
HETATM   16  C   UNL     1     -13.024  11.193  71.464  1.00  0.00    -0.542 C  
ENDBRANCH  12  14
ENDBRANCH  11  12
ENDBRANCH  10  11
ENDBRANCH   9  10
BRANCH   9  17
HETATM   17  C   UNL     1      -9.830  10.691  66.942  1.00  0.00    -0.188 A  
HETATM   18  C   UNL     1      -9.885  15.414  66.110  1.00  0.00    -0.311 A  
HETATM   19  C   UNL     1     -10.339  10.537  65.650  1.00  0.00    -0.274 A  
HETATM   20  C   UNL     1     -10.556  15.187  64.919  1.00  0.00    -0.365 A  
HETATM   21  N   UNL     1      -9.527  14.382  66.918  1.00  0.00    -0.247 NA 
HETATM   22  C   UNL     1      -9.842  13.132  66.509  1.00  0.00    -0.265 A  
HETATM   23  C   UNL     1     -10.720  11.629  64.860  1.00  0.00    -0.352 A  
HETATM   24  C   UNL     1     -10.490  12.923  65.274  1.00  0.00    -0.296 A  
HETATM   25  C   UNL     1      -9.546  12.024  67.317  1.00  0.00    -0.185 A  
HETATM   26  N   UNL     1     -10.861  13.944  64.478  1.00  0.00    -0.395 NA 
BRANCH  18  27
HETATM   27  C   UNL     1      -9.514  16.740  66.563  1.00  0.00    -0.287 A  
HETATM   28  N   UNL     1      -9.544  18.753  67.447  1.00  0.00    -0.302 NA 
HETATM   29  C   UNL     1     -10.311  17.642  67.241  1.00  0.00    -0.354 A  
HETATM   30  C   UNL     1      -9.936  19.971  68.111  1.00  0.00    -0.403 C  
HETATM   31  N   UNL     1      -8.300  18.646  66.947  1.00  0.00    -0.256 NA 
HETATM   32  C   UNL     1      -8.285  17.422  66.410  1.00  0.00    -0.271 A  
ENDBRANCH  18  27
ENDBRANCH   9  17
ENDBRANCH   5   9
BRANCH   8  33
HETATM   33  O   UNL     1      -5.640   6.977  68.540  1.00  0.00    -0.016 OA 
HETATM   34  C   UNL     1      -5.415   5.863  69.391  1.00  0.00    -0.004 C  
ENDBRANCH   8  33
ENDBRANCH   2   3
TORSDOF 9
ENDMDL
MODEL      125
REMARK 921   NORMALIZED FREE ENERGY PREDICTED BY IDOCK:   -5.29 KCAL/MOL
REMARK 922        TOTAL FREE ENERGY PREDICTED BY IDOCK:   -9.24 KCAL/MOL
REMARK 923 INTER-LIGAND FREE ENERGY PREDICTED BY IDOCK:   -8.07 KCAL/MOL
REMARK 924 INTRA-LIGAND FREE ENERGY PREDICTED BY IDOCK:   -1.18 KCAL/MOL
REMARK 927      BINDING AFFINITY PREDICTED BY RF-SCORE:    0.00 PKD
ROOT
HETATM    1  C   UNL     1      -7.041  15.342  69.676  1.00  0.00    -0.180 C  
HETATM    2  O   UNL     1      -7.160  15.786  68.318  1.00  0.00    -0.108 OA 
ENDROOT
BRANCH   2   3
HETATM    3  C   UNL     1      -8.017  15.028  67.556  1.00  0.00    -0.178 A  
HETATM    4  C   UNL     1      -8.020  13.635  67.793  1.00  0.00    -0.172 A  
HETATM    5  C   UNL     1      -8.942  12.764  67.178  1.00  0.00    -0.214 A  
HETATM    6  C   UNL     1      -9.765  13.393  66.226  1.00  0.00    -0.280 A  
HETATM    7  C   UNL     1      -8.841  15.579  66.580  1.00  0.00    -0.348 A  
HETATM    8  C   UNL     1      -9.716  14.755  65.904  1.00  0.00    -0.323 A  
BRANCH   5   9
HETATM    9  N   UNL     1      -9.065  11.365  67.475  1.00  0.00    -0.155 NA 
BRANCH   9  10
HETATM   10  C   UNL     1      -8.762  10.358  66.407  1.00  0.00    -0.141 C  
BRANCH  10  11
HETATM   11  C   UNL     1      -9.866  10.050  65.363  1.00  0.00    -0.314 C  
BRANCH  11  12
HETATM   12  N   UNL     1      -9.460   9.404  64.115  1.00  0.00    -0.339 NA 
HETATM   13  H   UNL     1     -10.030   8.574  63.952  1.00  0.00     0.000 HD 
BRANCH  12  14
HETATM   14  C   UNL     1      -9.470  10.257  62.928  1.00  0.00    -0.301 C  
HETATM   15  C   UNL     1     -10.219  11.576  63.134  1.00  0.00    -0.389 C  
HETATM   16  C   UNL     1      -8.011  10.556  62.569  1.00  0.00    -0.193 C  
ENDBRANCH  12  14
ENDBRANCH  11  12
ENDBRANCH  10  11
ENDBRANCH   9  10
BRANCH   9  17
HETATM   17  C   UNL     1      -9.915  10.815  68.510  1.00  0.00    -0.178 A  
HETATM   18  C   UNL     1     -11.251   7.194  71.357  1.00  0.00    -0.251 A  
HETATM   19  C   UNL     1     -11.007  11.519  69.027  1.00  0.00    -0.285 A  
HETATM   20  C   UNL     1     -12.407   7.886  71.680  1.00  0.00    -0.315 A  
HETATM   21  N   UNL     1     -10.336   7.721  70.503  1.00  0.00    -0.203 NA 
HETATM   22  C   UNL     1     -10.593   8.947  69.993  1.00  0.00    -0.220 A  
HETATM   23  C   UNL     1     -11.941  10.927  69.885  1.00  0.00    -0.430 A  
HETATM   24  C   UNL     1     -11.758   9.649  70.367  1.00  0.00    -0.202 A  
HETATM   25  C   UNL     1      -9.716   9.531  69.067  1.00  0.00    -0.170 A  
HETATM   26  N   UNL     1     -12.675   9.123  71.200  1.00  0.00    -0.261 NA 
BRANCH  18  27
HETATM   27  C   UNL     1     -10.937   5.889  71.905  1.00  0.00    -0.321 A  
HETATM   28  N   UNL     1     -10.197   3.836  72.177  1.00  0.00    -0.148 NA 
HETATM   29  C   UNL     1     -10.235   4.872  71.287  1.00  0.00    -0.178 A  
HETATM   30  C   UNL     1      -9.578   2.547  71.987  1.00  0.00    -0.131 C  
HETATM   31  N   UNL     1     -10.829   4.100  73.335  1.00  0.00    -0.222 NA 
HETATM   32  C   UNL     1     -11.278   5.348  73.167  1.00  0.00    -0.297 A  
ENDBRANCH  18  27
ENDBRANCH   9  17
ENDBRANCH   5   9
BRANCH   8  33
HETATM   33  O   UNL     1     -10.593  15.135  64.926  1.00  0.00    -0.411 OA 
HETATM   34  C   UNL     1     -11.136  16.444  65.015  1.00  0.00    -0.208 C  
ENDBRANCH   8  33
ENDBRANCH   2   3
TORSDOF 9
ENDMDL
MODEL      126
REMARK 921   NORMALIZED FREE ENERGY PREDICTED BY IDOCK:   -5.26 KCAL/MOL
REMARK 922        TOTAL FREE ENERGY PREDICTED BY IDOCK:   -9.19 KCAL/MOL
REMARK 923 INTER-LIGAND FREE ENERGY PREDICTED BY IDOCK:   -7.99 KCAL/MOL
REMARK 924 INTRA-LIGAND FREE ENERGY PREDICTED BY IDOCK:   -1.20 KCAL/MOL
REMARK 927      BINDING AFFINITY PREDICTED BY RF-SCORE:    0.00 PKD
ROOT
HETATM    1  C   UNL     1     -10.631   4.786  65.964  1.00  0.00    -0.254 C  
HETATM    2  O   UNL     1      -9.457   5.265  66.631  1.00  0.00    -0.130 OA 
ENDROOT
BRANCH   2   3
HETATM    3  C   UNL     1      -9.060   6.520  66.231  1.00  0.00    -0.148 A  
HETATM    4  C   UNL     1      -9.724   7.618  66.824  1.00  0.00    -0.290 A  
HETATM    5  C   UNL     1      -9.325   8.952  66.605  1.00  0.00    -0.185 A  
HETATM    6  C   UNL     1      -8.295   9.085  65.655  1.00  0.00    -0.137 A  
HETATM    7  C   UNL     1      -8.067   6.726  65.280  1.00  0.00    -0.130 A  
HETATM    8  C   UNL     1      -7.687   8.018  64.983  1.00  0.00    -0.112 A  
BRANCH   5   9
HETATM    9  N   UNL     1      -9.886  10.091  67.275  1.00  0.00    -0.174 NA 
BRANCH   9  10
HETATM   10  C   UNL     1     -10.750   9.882  68.481  1.00  0.00    -0.226 C  
BRANCH  10  11
HETATM   11  C   UNL     1     -10.070   9.888  69.874  1.00  0.00    -0.257 C  
BRANCH  11  12
HETATM   12  N   UNL     1     -10.930   9.768  71.050  1.00  0.00    -0.339 NA 
HETATM   13  H   UNL     1     -11.214  10.694  71.370  1.00  0.00     0.000 HD 
BRANCH  12  14
HETATM   14  C   UNL     1     -12.106   8.913  70.891  1.00  0.00    -0.177 C  
HETATM   15  C   UNL     1     -11.967   7.555  71.583  1.00  0.00    -0.333 C  
HETATM   16  C   UNL     1     -13.301   9.664  71.488  1.00  0.00    -0.468 C  
ENDBRANCH  12  14
ENDBRANCH  11  12
ENDBRANCH  10  11
ENDBRANCH   9  10
BRANCH   9  17
HETATM   17  C   UNL     1     -10.131  11.375  66.650  1.00  0.00    -0.212 A  
HETATM   18  C   UNL     1      -9.557  16.133  66.476  1.00  0.00    -0.262 A  
HETATM   19  C   UNL     1     -11.015  11.521  65.577  1.00  0.00    -0.290 A  
HETATM   20  C   UNL     1     -10.576  16.213  65.541  1.00  0.00    -0.377 A  
HETATM   21  N   UNL     1      -9.175  14.937  66.994  1.00  0.00    -0.221 NA 
HETATM   22  C   UNL     1      -9.820  13.832  66.553  1.00  0.00    -0.290 A  
HETATM   23  C   UNL     1     -11.402  12.777  65.093  1.00  0.00    -0.346 A  
HETATM   24  C   UNL     1     -10.827  13.934  65.570  1.00  0.00    -0.306 A  
HETATM   25  C   UNL     1      -9.511  12.570  67.080  1.00  0.00    -0.217 A  
HETATM   26  N   UNL     1     -11.220  15.120  65.068  1.00  0.00    -0.395 NA 
BRANCH  18  27
HETATM   27  C   UNL     1      -8.834  17.296  66.951  1.00  0.00    -0.259 A  
HETATM   28  N   UNL     1      -7.544  19.073  67.078  1.00  0.00    -0.225 NA 
HETATM   29  C   UNL     1      -8.012  18.125  66.212  1.00  0.00    -0.236 A  
HETATM   30  C   UNL     1      -6.644  20.159  66.777  1.00  0.00    -0.215 C  
HETATM   31  N   UNL     1      -7.997  18.921  68.336  1.00  0.00    -0.326 NA 
HETATM   32  C   UNL     1      -8.780  17.840  68.255  1.00  0.00    -0.277 A  
ENDBRANCH  18  27
ENDBRANCH   9  17
ENDBRANCH   5   9
BRANCH   8  33
HETATM   33  O   UNL     1      -6.729   8.393  64.082  1.00  0.00    -0.070 OA 
HETATM   34  C   UNL     1      -6.812   9.710  63.559  1.00  0.00    -0.110 C  
ENDBRANCH   8  33
ENDBRANCH   2   3
TORSDOF 9
ENDMDL
MODEL      127
REMARK 921   NORMALIZED FREE ENERGY PREDICTED BY IDOCK:   -5.26 KCAL/MOL
REMARK 922        TOTAL FREE ENERGY PREDICTED BY IDOCK:   -9.19 KCAL/MOL
REMARK 923 INTER-LIGAND FREE ENERGY PREDICTED BY IDOCK:   -7.66 KCAL/MOL
REMARK 924 INTRA-LIGAND FREE ENERGY PREDICTED BY IDOCK:   -1.53 KCAL/MOL
REMARK 927      BINDING AFFINITY PREDICTED BY RF-SCORE:    0.00 PKD
ROOT
HETATM    1  C   UNL     1      -9.091  18.461  66.515  1.00  0.00    -0.290 C  
HETATM    2  O   UNL     1      -9.219  17.161  65.927  1.00  0.00    -0.506 OA 
ENDROOT
BRANCH   2   3
HETATM    3  C   UNL     1      -9.742  16.213  66.775  1.00  0.00    -0.242 A  
HETATM    4  C   UNL     1      -9.430  14.863  66.493  1.00  0.00    -0.307 A  
HETATM    5  C   UNL     1      -9.789  13.808  67.355  1.00  0.00    -0.238 A  
HETATM    6  C   UNL     1     -10.583  14.212  68.444  1.00  0.00    -0.263 A  
HETATM    7  C   UNL     1     -10.554  16.539  67.855  1.00  0.00    -0.329 A  
HETATM    8  C   UNL     1     -10.985  15.531  68.692  1.00  0.00    -0.279 A  
BRANCH   5   9
HETATM    9  N   UNL     1      -9.393  12.439  67.178  1.00  0.00    -0.193 NA 
BRANCH   9  10
HETATM   10  C   UNL     1     -10.213  11.546  66.297  1.00  0.00    -0.230 C  
BRANCH  10  11
HETATM   11  C   UNL     1      -9.819  11.438  64.801  1.00  0.00    -0.259 C  
BRANCH  11  12
HETATM   12  N   UNL     1     -10.492  12.328  63.855  1.00  0.00    -0.394 NA 
HETATM   13  H   UNL     1     -10.455  11.930  62.917  1.00  0.00     0.000 HD 
BRANCH  12  14
HETATM   14  C   UNL     1     -11.868  12.686  64.192  1.00  0.00    -0.410 C  
HETATM   15  C   UNL     1     -12.148  14.188  64.089  1.00  0.00    -0.437 C  
HETATM   16  C   UNL     1     -12.786  11.934  63.222  1.00  0.00    -0.303 C  
ENDBRANCH  12  14
ENDBRANCH  11  12
ENDBRANCH  10  11
ENDBRANCH   9  10
BRANCH   9  17
HETATM   17  C   UNL     1      -8.598  11.683  68.122  1.00  0.00    -0.158 A  
HETATM   18  C   UNL     1      -8.183   8.294  71.491  1.00  0.00    -0.132 A  
HETATM   19  C   UNL     1      -7.259  11.991  68.380  1.00  0.00    -0.092 A  
HETATM   20  C   UNL     1      -6.925   8.778  71.811  1.00  0.00    -0.056 A  
HETATM   21  N   UNL     1      -8.924   8.868  70.508  1.00  0.00    -0.174 NA 
HETATM   22  C   UNL     1      -8.382   9.919  69.852  1.00  0.00    -0.183 A  
HETATM   23  C   UNL     1      -6.540  11.392  69.422  1.00  0.00    -0.119 A  
HETATM   24  C   UNL     1      -7.083  10.370  70.168  1.00  0.00    -0.117 A  
HETATM   25  C   UNL     1      -9.111  10.591  68.859  1.00  0.00    -0.180 A  
HETATM   26  N   UNL     1      -6.353   9.814  71.153  1.00  0.00    -0.262 NA 
BRANCH  18  27
HETATM   27  C   UNL     1      -8.781   7.155  72.160  1.00  0.00    -0.132 A  
HETATM   28  N   UNL     1      -9.764   5.235  72.589  1.00  0.00    -0.150 NA 
HETATM   29  C   UNL     1      -9.309   6.024  71.570  1.00  0.00    -0.149 A  
HETATM   30  C   UNL     1     -10.405   3.949  72.475  1.00  0.00    -0.138 C  
HETATM   31  N   UNL     1      -9.576   5.773  73.808  1.00  0.00    -0.140 NA 
HETATM   32  C   UNL     1      -8.979   6.940  73.544  1.00  0.00    -0.141 A  
ENDBRANCH  18  27
ENDBRANCH   9  17
ENDBRANCH   5   9
BRANCH   8  33
HETATM   33  O   UNL     1     -11.779  15.679  69.796  1.00  0.00    -0.314 OA 
HETATM   34  C   UNL     1     -12.473  14.528  70.254  1.00  0.00    -0.348 C  
ENDBRANCH   8  33
ENDBRANCH   2   3
TORSDOF 9
ENDMDL
MODEL      128
REMARK 921   NORMALIZED FREE ENERGY PREDICTED BY IDOCK:   -5.26 KCAL/MOL
REMARK 922        TOTAL FREE ENERGY PREDICTED BY IDOCK:   -9.19 KCAL/MOL
REMARK 923 INTER-LIGAND FREE ENERGY PREDICTED BY IDOCK:   -7.67 KCAL/MOL
REMARK 924 INTRA-LIGAND FREE ENERGY PREDICTED BY IDOCK:   -1.52 KCAL/MOL
REMARK 927      BINDING AFFINITY PREDICTED BY RF-SCORE:    0.00 PKD
ROOT
HETATM    1  C   UNL     1     -10.001   5.282  66.550  1.00  0.00    -0.204 C  
HETATM    2  O   UNL     1     -10.260   5.050  67.941  1.00  0.00    -0.148 OA 
ENDROOT
BRANCH   2   3
HETATM    3  C   UNL     1     -10.440   6.200  68.674  1.00  0.00    -0.236 A  
HETATM    4  C   UNL     1      -9.608   7.297  68.355  1.00  0.00    -0.139 A  
HETATM    5  C   UNL     1      -9.778   8.570  68.936  1.00  0.00    -0.170 A  
HETATM    6  C   UNL     1     -10.764   8.606  69.939  1.00  0.00    -0.227 A  
HETATM    7  C   UNL     1     -11.377   6.299  69.697  1.00  0.00    -0.492 A  
HETATM    8  C   UNL     1     -11.535   7.508  70.340  1.00  0.00    -0.198 A  
BRANCH   5   9
HETATM    9  N   UNL     1      -9.041   9.743  68.560  1.00  0.00    -0.127 NA 
BRANCH   9  10
HETATM   10  C   UNL     1      -7.901  10.201  69.417  1.00  0.00    -0.150 C  
BRANCH  10  11
HETATM   11  C   UNL     1      -7.174   9.144  70.287  1.00  0.00    -0.075 C  
BRANCH  11  12
HETATM   12  N   UNL     1      -7.563   9.036  71.692  1.00  0.00    -0.333 NA 
HETATM   13  H   UNL     1      -8.549   9.273  71.800  1.00  0.00     0.000 HD 
BRANCH  12  14
HETATM   14  C   UNL     1      -7.288   7.749  72.329  1.00  0.00    -0.082 C  
HETATM   15  C   UNL     1      -8.496   6.809  72.345  1.00  0.00    -0.121 C  
HETATM   16  C   UNL     1      -6.146   7.089  71.549  1.00  0.00    -0.037 C  
ENDBRANCH  12  14
ENDBRANCH  11  12
ENDBRANCH  10  11
ENDBRANCH   9  10
BRANCH   9  17
HETATM   17  C   UNL     1      -9.565  10.816  67.739  1.00  0.00    -0.162 A  
HETATM   18  C   UNL     1     -10.302  15.480  66.903  1.00  0.00    -0.290 A  
HETATM   19  C   UNL     1     -10.341  10.570  66.603  1.00  0.00    -0.295 A  
HETATM   20  C   UNL     1     -11.203  15.150  65.904  1.00  0.00    -0.280 A  
HETATM   21  N   UNL     1      -9.661  14.516  67.614  1.00  0.00    -0.213 NA 
HETATM   22  C   UNL     1      -9.930  13.228  67.300  1.00  0.00    -0.231 A  
HETATM   23  C   UNL     1     -11.006  11.593  65.915  1.00  0.00    -0.334 A  
HETATM   24  C   UNL     1     -10.822  12.916  66.252  1.00  0.00    -0.275 A  
HETATM   25  C   UNL     1      -9.342  12.182  68.025  1.00  0.00    -0.197 A  
HETATM   26  N   UNL     1     -11.472  13.869  65.557  1.00  0.00    -0.310 NA 
BRANCH  18  27
HETATM   27  C   UNL     1      -9.977  16.851  67.245  1.00  0.00    -0.277 A  
HETATM   28  N   UNL     1      -8.936  18.670  67.913  1.00  0.00    -0.282 NA 
HETATM   29  C   UNL     1      -8.772  17.326  67.726  1.00  0.00    -0.226 A  
HETATM   30  C   UNL     1      -7.957  19.606  68.408  1.00  0.00    -0.322 C  
HETATM   31  N   UNL     1     -10.167  19.109  67.594  1.00  0.00    -0.377 NA 
HETATM   32  C   UNL     1     -10.797  18.002  67.189  1.00  0.00    -0.167 A  
ENDBRANCH  18  27
ENDBRANCH   9  17
ENDBRANCH   5   9
BRANCH   8  33
HETATM   33  O   UNL     1     -12.411   7.776  71.356  1.00  0.00    -0.316 OA 
HETATM   34  C   UNL     1     -11.865   8.281  72.565  1.00  0.00    -0.373 C  
ENDBRANCH   8  33
ENDBRANCH   2   3
TORSDOF 9
ENDMDL
MODEL      129
REMARK 921   NORMALIZED FREE ENERGY PREDICTED BY IDOCK:   -5.23 KCAL/MOL
REMARK 922        TOTAL FREE ENERGY PREDICTED BY IDOCK:   -9.16 KCAL/MOL
REMARK 923 INTER-LIGAND FREE ENERGY PREDICTED BY IDOCK:   -7.96 KCAL/MOL
REMARK 924 INTRA-LIGAND FREE ENERGY PREDICTED BY IDOCK:   -1.20 KCAL/MOL
REMARK 927      BINDING AFFINITY PREDICTED BY RF-SCORE:    0.00 PKD
ROOT
HETATM    1  C   UNL     1     -12.008  15.615  63.955  1.00  0.00     0.087 C  
HETATM    2  O   UNL     1     -11.379  16.882  64.189  1.00  0.00    -1.208 OA 
ENDROOT
BRANCH   2   3
HETATM    3  C   UNL     1     -10.836  17.012  65.446  1.00  0.00    -0.073 A  
HETATM    4  C   UNL     1     -10.653  15.823  66.189  1.00  0.00    -0.318 A  
HETATM    5  C   UNL     1      -9.986  15.801  67.430  1.00  0.00    -0.237 A  
HETATM    6  C   UNL     1      -9.636  17.078  67.906  1.00  0.00    -0.249 A  
HETATM    7  C   UNL     1     -10.489  18.244  65.990  1.00  0.00    -0.380 A  
HETATM    8  C   UNL     1      -9.892  18.278  67.233  1.00  0.00    -0.321 A  
BRANCH   5   9
HETATM    9  N   UNL     1      -9.669  14.609  68.164  1.00  0.00    -0.214 NA 
BRANCH   9  10
HETATM   10  C   UNL     1      -8.640  14.668  69.252  1.00  0.00     0.035 C  
BRANCH  10  11
HETATM   11  C   UNL     1      -7.225  14.113  68.944  1.00  0.00    -0.118 C  
BRANCH  11  12
HETATM   12  N   UNL     1      -6.640  13.175  69.902  1.00  0.00    -0.355 NA 
HETATM   13  H   UNL     1      -7.294  13.006  70.667  1.00  0.00     0.000 HD 
BRANCH  12  14
HETATM   14  C   UNL     1      -6.184  11.903  69.345  1.00  0.00    -0.108 C  
HETATM   15  C   UNL     1      -6.921  10.690  69.918  1.00  0.00    -0.148 C  
HETATM   16  C   UNL     1      -6.408  11.961  67.830  1.00  0.00    -0.064 C  
ENDBRANCH  12  14
ENDBRANCH  11  12
ENDBRANCH  10  11
ENDBRANCH   9  10
BRANCH   9  17
HETATM   17  C   UNL     1      -9.850  13.262  67.664  1.00  0.00    -0.230 A  
HETATM   18  C   UNL     1     -10.344   8.547  68.395  1.00  0.00    -0.202 A  
HETATM   19  C   UNL     1      -9.827  12.967  66.298  1.00  0.00    -0.278 A  
HETATM   20  C   UNL     1     -10.130   8.325  67.044  1.00  0.00    -0.283 A  
HETATM   21  N   UNL     1     -10.335   9.806  68.906  1.00  0.00    -0.201 NA 
HETATM   22  C   UNL     1     -10.122  10.827  68.045  1.00  0.00    -0.176 A  
HETATM   23  C   UNL     1      -9.811  11.653  65.815  1.00  0.00    -0.268 A  
HETATM   24  C   UNL     1      -9.947  10.578  66.667  1.00  0.00    -0.211 A  
HETATM   25  C   UNL     1     -10.051  12.148  68.511  1.00  0.00    -0.192 A  
HETATM   26  N   UNL     1      -9.937   9.331  66.160  1.00  0.00    -0.290 NA 
BRANCH  18  27
HETATM   27  C   UNL     1     -10.597   7.475  69.337  1.00  0.00    -0.225 A  
HETATM   28  N   UNL     1     -11.204   6.322  71.109  1.00  0.00    -0.296 NA 
HETATM   29  C   UNL     1     -11.183   7.583  70.584  1.00  0.00    -0.268 A  
HETATM   30  C   UNL     1     -11.715   5.923  72.397  1.00  0.00    -0.253 C  
HETATM   31  N   UNL     1     -10.667   5.394  70.296  1.00  0.00    -0.263 NA 
HETATM   32  C   UNL     1     -10.299   6.098  69.221  1.00  0.00    -0.221 A  
ENDBRANCH  18  27
ENDBRANCH   9  17
ENDBRANCH   5   9
BRANCH   8  33
HETATM   33  O   UNL     1      -9.485  19.399  67.904  1.00  0.00    -0.308 OA 
HETATM   34  C   UNL     1     -10.466  20.091  68.662  1.00  0.00    -0.120 C  
ENDBRANCH   8  33
ENDBRANCH   2   3
TORSDOF 9
ENDMDL
MODEL      130
REMARK 921   NORMALIZED FREE ENERGY PREDICTED BY IDOCK:   -5.22 KCAL/MOL
REMARK 922        TOTAL FREE ENERGY PREDICTED BY IDOCK:   -9.13 KCAL/MOL
REMARK 923 INTER-LIGAND FREE ENERGY PREDICTED BY IDOCK:   -7.92 KCAL/MOL
REMARK 924 INTRA-LIGAND FREE ENERGY PREDICTED BY IDOCK:   -1.21 KCAL/MOL
REMARK 927      BINDING AFFINITY PREDICTED BY RF-SCORE:    0.00 PKD
ROOT
HETATM    1  C   UNL     1      -9.634  10.311  62.819  1.00  0.00    -0.239 C  
HETATM    2  O   UNL     1      -8.228  10.281  63.094  1.00  0.00    -0.154 OA 
ENDROOT
BRANCH   2   3
HETATM    3  C   UNL     1      -7.923  10.207  64.433  1.00  0.00    -0.153 A  
HETATM    4  C   UNL     1      -9.002  10.306  65.341  1.00  0.00    -0.205 A  
HETATM    5  C   UNL     1      -8.844  10.112  66.727  1.00  0.00    -0.132 A  
HETATM    6  C   UNL     1      -7.507   9.936  67.125  1.00  0.00    -0.091 A  
HETATM    7  C   UNL     1      -6.621  10.059  64.899  1.00  0.00    -0.126 A  
HETATM    8  C   UNL     1      -6.410   9.930  66.255  1.00  0.00    -0.072 A  
BRANCH   5   9
HETATM    9  N   UNL     1      -9.923  10.082  67.674  1.00  0.00    -0.169 NA 
BRANCH   9  10
HETATM   10  C   UNL     1     -10.807   8.873  67.742  1.00  0.00    -0.036 C  
BRANCH  10  11
HETATM   11  C   UNL     1     -10.300   7.645  68.541  1.00  0.00    -0.198 C  
BRANCH  11  12
HETATM   12  N   UNL     1     -11.293   6.835  69.245  1.00  0.00    -0.561 NA 
HETATM   13  H   UNL     1     -11.087   5.844  69.119  1.00  0.00     0.000 HD 
BRANCH  12  14
HETATM   14  C   UNL     1     -11.462   7.134  70.666  1.00  0.00    -0.308 C  
HETATM   15  C   UNL     1     -11.316   5.904  71.566  1.00  0.00    -0.256 C  
HETATM   16  C   UNL     1     -10.395   8.167  71.045  1.00  0.00    -0.229 C  
ENDBRANCH  12  14
ENDBRANCH  11  12
ENDBRANCH  10  11
ENDBRANCH   9  10
BRANCH   9  17
HETATM   17  C   UNL     1     -10.571  11.256  68.222  1.00  0.00    -0.197 A  
HETATM   18  C   UNL     1     -10.935  16.016  68.684  1.00  0.00    -0.323 A  
HETATM   19  C   UNL     1     -11.589  11.164  69.176  1.00  0.00    -0.393 A  
HETATM   20  C   UNL     1     -11.804  15.837  69.748  1.00  0.00    -0.341 A  
HETATM   21  N   UNL     1     -10.405  14.951  68.028  1.00  0.00    -0.241 NA 
HETATM   22  C   UNL     1     -10.768  13.717  68.447  1.00  0.00    -0.258 A  
HETATM   23  C   UNL     1     -12.087  12.287  69.848  1.00  0.00    -0.319 A  
HETATM   24  C   UNL     1     -11.685  13.560  69.506  1.00  0.00    -0.322 A  
HETATM   25  C   UNL     1     -10.222  12.573  67.847  1.00  0.00    -0.219 A  
HETATM   26  N   UNL     1     -12.199  14.613  70.171  1.00  0.00    -0.318 NA 
BRANCH  18  27
HETATM   27  C   UNL     1     -10.546  17.325  68.199  1.00  0.00    -0.386 A  
HETATM   28  N   UNL     1     -10.135  19.065  66.918  1.00  0.00    -0.346 NA 
HETATM   29  C   UNL     1     -10.618  17.787  66.899  1.00  0.00    -0.244 A  
HETATM   30  C   UNL     1     -10.004  19.963  65.798  1.00  0.00    -0.302 C  
HETATM   31  N   UNL     1      -9.745  19.473  68.140  1.00  0.00    -0.364 NA 
HETATM   32  C   UNL     1      -9.995  18.413  68.916  1.00  0.00    -0.345 A  
ENDBRANCH  18  27
ENDBRANCH   9  17
ENDBRANCH   5   9
BRANCH   8  33
HETATM   33  O   UNL     1      -5.200   9.771  66.875  1.00  0.00    -0.040 OA 
HETATM   34  C   UNL     1      -5.211   9.622  68.287  1.00  0.00    -0.033 C  
ENDBRANCH   8  33
ENDBRANCH   2   3
TORSDOF 9
ENDMDL
MODEL      131
REMARK 921   NORMALIZED FREE ENERGY PREDICTED BY IDOCK:   -5.21 KCAL/MOL
REMARK 922        TOTAL FREE ENERGY PREDICTED BY IDOCK:   -9.12 KCAL/MOL
REMARK 923 INTER-LIGAND FREE ENERGY PREDICTED BY IDOCK:   -7.77 KCAL/MOL
REMARK 924 INTRA-LIGAND FREE ENERGY PREDICTED BY IDOCK:   -1.35 KCAL/MOL
REMARK 927      BINDING AFFINITY PREDICTED BY RF-SCORE:    0.00 PKD
ROOT
HETATM    1  C   UNL     1     -11.252   4.756  72.806  1.00  0.00    -0.135 C  
HETATM    2  O   UNL     1     -11.541   6.083  72.350  1.00  0.00    -0.301 OA 
ENDROOT
BRANCH   2   3
HETATM    3  C   UNL     1     -10.531   6.653  71.611  1.00  0.00    -0.207 A  
HETATM    4  C   UNL     1     -10.322   6.138  70.311  1.00  0.00    -0.270 A  
HETATM    5  C   UNL     1      -9.414   6.718  69.404  1.00  0.00    -0.147 A  
HETATM    6  C   UNL     1      -8.657   7.768  69.955  1.00  0.00    -0.140 A  
HETATM    7  C   UNL     1      -9.727   7.677  72.101  1.00  0.00    -0.220 A  
HETATM    8  C   UNL     1      -8.778   8.234  71.270  1.00  0.00    -0.152 A  
BRANCH   5   9
HETATM    9  N   UNL     1      -9.253   6.310  68.037  1.00  0.00    -0.118 NA 
BRANCH   9  10
HETATM   10  C   UNL     1      -8.836   4.902  67.735  1.00  0.00    -0.104 C  
BRANCH  10  11
HETATM   11  C   UNL     1      -9.840   3.991  66.984  1.00  0.00    -0.110 C  
BRANCH  11  12
HETATM   12  N   UNL     1      -9.300   2.849  66.246  1.00  0.00    -0.346 NA 
HETATM   13  H   UNL     1      -9.855   2.016  66.440  1.00  0.00     0.000 HD 
BRANCH  12  14
HETATM   14  C   UNL     1      -9.165   3.034  64.802  1.00  0.00    -0.146 C  
HETATM   15  C   UNL     1     -10.161   4.043  64.224  1.00  0.00    -0.187 C  
HETATM   16  C   UNL     1      -7.738   3.524  64.536  1.00  0.00    -0.077 C  
ENDBRANCH  12  14
ENDBRANCH  11  12
ENDBRANCH  10  11
ENDBRANCH   9  10
BRANCH   9  17
HETATM   17  C   UNL     1      -8.960   7.207  66.938  1.00  0.00    -0.134 A  
HETATM   18  C   UNL     1     -10.045  11.009  64.223  1.00  0.00    -0.339 A  
HETATM   19  C   UNL     1      -7.899   6.979  66.057  1.00  0.00    -0.104 A  
HETATM   20  C   UNL     1      -9.090  10.612  63.301  1.00  0.00    -0.257 A  
HETATM   21  N   UNL     1     -10.267  10.289  65.354  1.00  0.00    -0.281 NA 
HETATM   22  C   UNL     1      -9.514   9.182  65.546  1.00  0.00    -0.206 A  
HETATM   23  C   UNL     1      -7.724   7.730  64.888  1.00  0.00    -0.110 A  
HETATM   24  C   UNL     1      -8.520   8.820  64.613  1.00  0.00    -0.151 A  
HETATM   25  C   UNL     1      -9.723   8.365  66.667  1.00  0.00    -0.320 A  
HETATM   26  N   UNL     1      -8.309   9.521  63.483  1.00  0.00    -0.163 NA 
BRANCH  18  27
HETATM   27  C   UNL     1     -10.851  12.202  64.056  1.00  0.00    -0.436 A  
HETATM   28  N   UNL     1     -11.605  14.267  64.123  1.00  0.00    -0.262 NA 
HETATM   29  C   UNL     1     -10.555  13.476  64.499  1.00  0.00    -0.424 A  
HETATM   30  C   UNL     1     -11.761  15.680  64.365  1.00  0.00    -0.218 C  
HETATM   31  N   UNL     1     -12.571  13.599  63.468  1.00  0.00    -0.784 NA 
HETATM   32  C   UNL     1     -12.111  12.345  63.429  1.00  0.00    -0.524 A  
ENDBRANCH  18  27
ENDBRANCH   9  17
ENDBRANCH   5   9
BRANCH   8  33
HETATM   33  O   UNL     1      -7.915   9.246  71.591  1.00  0.00    -0.321 OA 
HETATM   34  C   UNL     1      -6.528   8.947  71.563  1.00  0.00    -0.076 C  
ENDBRANCH   8  33
ENDBRANCH   2   3
TORSDOF 9
ENDMDL
MODEL      132
REMARK 921   NORMALIZED FREE ENERGY PREDICTED BY IDOCK:   -5.20 KCAL/MOL
REMARK 922        TOTAL FREE ENERGY PREDICTED BY IDOCK:   -9.10 KCAL/MOL
REMARK 923 INTER-LIGAND FREE ENERGY PREDICTED BY IDOCK:   -8.29 KCAL/MOL
REMARK 924 INTRA-LIGAND FREE ENERGY PREDICTED BY IDOCK:   -0.81 KCAL/MOL
REMARK 927      BINDING AFFINITY PREDICTED BY RF-SCORE:    0.00 PKD
ROOT
HETATM    1  C   UNL     1     -10.693  17.913  67.835  1.00  0.00    -0.316 C  
HETATM    2  O   UNL     1     -10.039  16.666  68.103  1.00  0.00    -0.249 OA 
ENDROOT
BRANCH   2   3
HETATM    3  C   UNL     1     -10.818  15.763  68.788  1.00  0.00    -0.274 A  
HETATM    4  C   UNL     1     -10.747  14.414  68.372  1.00  0.00    -0.250 A  
HETATM    5  C   UNL     1     -11.388  13.372  69.071  1.00  0.00    -0.287 A  
HETATM    6  C   UNL     1     -12.193  13.816  70.135  1.00  0.00    -0.425 A  
HETATM    7  C   UNL     1     -11.656  16.136  69.833  1.00  0.00    -0.244 A  
HETATM    8  C   UNL     1     -12.355  15.157  70.507  1.00  0.00    -0.358 A  
BRANCH   5   9
HETATM    9  N   UNL     1     -11.249  11.977  68.762  1.00  0.00    -0.243 NA 
BRANCH   9  10
HETATM   10  C   UNL     1     -11.429  11.516  67.347  1.00  0.00    -0.274 C  
BRANCH  10  11
HETATM   11  C   UNL     1     -10.178  11.464  66.434  1.00  0.00    -0.230 C  
BRANCH  11  12
HETATM   12  N   UNL     1      -8.867  11.595  67.069  1.00  0.00    -0.171 NA 
HETATM   13  H   UNL     1      -8.926  11.319  68.049  1.00  0.00     0.000 HD 
BRANCH  12  14
HETATM   14  C   UNL     1      -7.772  10.881  66.415  1.00  0.00    -0.154 C  
HETATM   15  C   UNL     1      -6.598  10.580  67.351  1.00  0.00    -0.067 C  
HETATM   16  C   UNL     1      -8.342   9.563  65.879  1.00  0.00    -0.124 C  
ENDBRANCH  12  14
ENDBRANCH  11  12
ENDBRANCH  10  11
ENDBRANCH   9  10
BRANCH   9  17
HETATM   17  C   UNL     1     -11.448  10.899  69.710  1.00  0.00    -0.313 A  
HETATM   18  C   UNL     1     -10.392   6.526  71.372  1.00  0.00    -0.206 A  
HETATM   19  C   UNL     1     -12.468  10.930  70.665  1.00  0.00    -0.460 A  
HETATM   20  C   UNL     1     -11.530   6.561  72.161  1.00  0.00    -0.292 A  
HETATM   21  N   UNL     1     -10.066   7.572  70.568  1.00  0.00    -0.188 NA 
HETATM   22  C   UNL     1     -10.889   8.645  70.578  1.00  0.00    -0.228 A  
HETATM   23  C   UNL     1     -12.787   9.818  71.455  1.00  0.00    -0.502 A  
HETATM   24  C   UNL     1     -12.021   8.674  71.419  1.00  0.00    -0.304 A  
HETATM   25  C   UNL     1     -10.641   9.739  69.736  1.00  0.00    -0.285 A  
HETATM   26  N   UNL     1     -12.356   7.633  72.204  1.00  0.00    -0.273 NA 
BRANCH  18  27
HETATM   27  C   UNL     1      -9.479   5.400  71.358  1.00  0.00    -0.188 A  
HETATM   28  N   UNL     1      -7.719   4.106  71.610  1.00  0.00    -0.068 NA 
HETATM   29  C   UNL     1      -8.190   5.365  71.854  1.00  0.00    -0.119 A  
HETATM   30  C   UNL     1      -6.415   3.585  71.939  1.00  0.00    -0.015 C  
HETATM   31  N   UNL     1      -8.607   3.312  70.984  1.00  0.00    -0.069 NA 
HETATM   32  C   UNL     1      -9.676   4.102  70.832  1.00  0.00    -0.189 A  
ENDBRANCH  18  27
ENDBRANCH   9  17
ENDBRANCH   5   9
BRANCH   8  33
HETATM   33  O   UNL     1     -13.212  15.350  71.556  1.00  0.00    -0.422 OA 
HETATM   34  C   UNL     1     -13.967  14.229  71.991  1.00  0.00    -0.504 C  
ENDBRANCH   8  33
ENDBRANCH   2   3
TORSDOF 9
ENDMDL
MODEL      133
REMARK 921   NORMALIZED FREE ENERGY PREDICTED BY IDOCK:   -5.19 KCAL/MOL
REMARK 922        TOTAL FREE ENERGY PREDICTED BY IDOCK:   -9.09 KCAL/MOL
REMARK 923 INTER-LIGAND FREE ENERGY PREDICTED BY IDOCK:   -7.54 KCAL/MOL
REMARK 924 INTRA-LIGAND FREE ENERGY PREDICTED BY IDOCK:   -1.55 KCAL/MOL
REMARK 927      BINDING AFFINITY PREDICTED BY RF-SCORE:    0.00 PKD
ROOT
HETATM    1  C   UNL     1     -12.109   8.196  71.925  1.00  0.00    -0.323 C  
HETATM    2  O   UNL     1     -11.543   7.638  70.733  1.00  0.00    -0.287 OA 
ENDROOT
BRANCH   2   3
HETATM    3  C   UNL     1     -10.390   8.262  70.317  1.00  0.00    -0.209 A  
HETATM    4  C   UNL     1     -10.306   8.599  68.946  1.00  0.00    -0.228 A  
HETATM    5  C   UNL     1      -9.242   9.357  68.418  1.00  0.00    -0.127 A  
HETATM    6  C   UNL     1      -8.227   9.634  69.351  1.00  0.00    -0.132 A  
HETATM    7  C   UNL     1      -9.336   8.544  71.178  1.00  0.00    -0.249 A  
HETATM    8  C   UNL     1      -8.242   9.228  70.691  1.00  0.00    -0.190 A  
BRANCH   5   9
HETATM    9  N   UNL     1      -9.171   9.828  67.063  1.00  0.00    -0.141 NA 
BRANCH   9  10
HETATM   10  C   UNL     1      -8.101   9.298  66.157  1.00  0.00    -0.110 C  
BRANCH  10  11
HETATM   11  C   UNL     1      -7.945   7.761  66.036  1.00  0.00    -0.108 C  
BRANCH  11  12
HETATM   12  N   UNL     1      -9.107   6.993  65.591  1.00  0.00    -0.378 NA 
HETATM   13  H   UNL     1      -8.951   6.641  64.646  1.00  0.00     0.000 HD 
BRANCH  12  14
HETATM   14  C   UNL     1      -9.519   5.899  66.469  1.00  0.00    -0.155 C  
HETATM   15  C   UNL     1      -9.711   4.570  65.734  1.00  0.00    -0.209 C  
HETATM   16  C   UNL     1      -8.429   5.734  67.534  1.00  0.00    -0.103 C  
ENDBRANCH  12  14
ENDBRANCH  11  12
ENDBRANCH  10  11
ENDBRANCH   9  10
BRANCH   9  17
HETATM   17  C   UNL     1      -9.681  11.104  66.607  1.00  0.00    -0.196 A  
HETATM   18  C   UNL     1      -9.433  15.889  66.397  1.00  0.00    -0.295 A  
HETATM   19  C   UNL     1     -10.893  11.216  65.919  1.00  0.00    -0.223 A  
HETATM   20  C   UNL     1     -10.719  15.924  65.882  1.00  0.00    -0.296 A  
HETATM   21  N   UNL     1      -8.837  14.709  66.708  1.00  0.00    -0.255 NA 
HETATM   22  C   UNL     1      -9.542  13.577  66.486  1.00  0.00    -0.277 A  
HETATM   23  C   UNL     1     -11.486  12.454  65.642  1.00  0.00    -0.412 A  
HETATM   24  C   UNL     1     -10.835  13.635  65.924  1.00  0.00    -0.275 A  
HETATM   25  C   UNL     1      -9.007  12.326  66.829  1.00  0.00    -0.209 A  
HETATM   26  N   UNL     1     -11.436  14.804  65.630  1.00  0.00    -0.346 NA 
BRANCH  18  27
HETATM   27  C   UNL     1      -8.645  17.084  66.624  1.00  0.00    -0.285 A  
HETATM   28  N   UNL     1      -6.979  18.489  66.923  1.00  0.00    -0.194 NA 
HETATM   29  C   UNL     1      -7.268  17.176  66.679  1.00  0.00    -0.247 A  
HETATM   30  C   UNL     1      -5.673  19.081  67.071  1.00  0.00    -0.155 C  
HETATM   31  N   UNL     1      -8.072  19.266  67.037  1.00  0.00    -0.258 NA 
HETATM   32  C   UNL     1      -9.082  18.409  66.856  1.00  0.00    -0.286 A  
ENDBRANCH  18  27
ENDBRANCH   9  17
ENDBRANCH   5   9
BRANCH   8  33
HETATM   33  O   UNL     1      -7.130   9.589  71.402  1.00  0.00    -0.323 OA 
HETATM   34  C   UNL     1      -5.906   9.675  70.688  1.00  0.00    -0.066 C  
ENDBRANCH   8  33
ENDBRANCH   2   3
TORSDOF 9
ENDMDL
MODEL      134
REMARK 921   NORMALIZED FREE ENERGY PREDICTED BY IDOCK:   -5.18 KCAL/MOL
REMARK 922        TOTAL FREE ENERGY PREDICTED BY IDOCK:   -9.08 KCAL/MOL
REMARK 923 INTER-LIGAND FREE ENERGY PREDICTED BY IDOCK:   -8.13 KCAL/MOL
REMARK 924 INTRA-LIGAND FREE ENERGY PREDICTED BY IDOCK:   -0.95 KCAL/MOL
REMARK 927      BINDING AFFINITY PREDICTED BY RF-SCORE:    0.00 PKD
ROOT
HETATM    1  C   UNL     1     -13.661   9.402  72.200  1.00  0.00    -0.457 C  
HETATM    2  O   UNL     1     -12.622   9.365  71.214  1.00  0.00    -0.316 OA 
ENDROOT
BRANCH   2   3
HETATM    3  C   UNL     1     -11.956   8.164  71.148  1.00  0.00    -0.273 A  
HETATM    4  C   UNL     1     -11.023   8.007  70.098  1.00  0.00    -0.226 A  
HETATM    5  C   UNL     1     -10.180   6.883  69.996  1.00  0.00    -0.196 A  
HETATM    6  C   UNL     1     -10.441   5.891  70.958  1.00  0.00    -0.296 A  
HETATM    7  C   UNL     1     -12.182   7.130  72.050  1.00  0.00    -0.314 A  
HETATM    8  C   UNL     1     -11.425   5.981  71.950  1.00  0.00    -0.269 A  
BRANCH   5   9
HETATM    9  N   UNL     1      -9.136   6.733  69.021  1.00  0.00    -0.138 NA 
BRANCH   9  10
HETATM   10  C   UNL     1      -7.820   6.150  69.439  1.00  0.00    -0.100 C  
BRANCH  10  11
HETATM   11  C   UNL     1      -7.035   6.863  70.570  1.00  0.00    -0.063 C  
BRANCH  11  12
HETATM   12  N   UNL     1      -6.944   6.187  71.864  1.00  0.00    -0.075 NA 
HETATM   13  H   UNL     1      -6.049   5.704  71.942  1.00  0.00     0.000 HD 
BRANCH  12  14
HETATM   14  C   UNL     1      -7.158   7.033  73.037  1.00  0.00    -0.073 C  
HETATM   15  C   UNL     1      -8.115   8.200  72.778  1.00  0.00    -0.221 C  
HETATM   16  C   UNL     1      -7.736   6.142  74.142  1.00  0.00    -0.096 C  
ENDBRANCH  12  14
ENDBRANCH  11  12
ENDBRANCH  10  11
ENDBRANCH   9  10
BRANCH   9  17
HETATM   17  C   UNL     1      -9.018   7.522  67.813  1.00  0.00    -0.131 A  
HETATM   18  C   UNL     1     -10.378  11.204  65.057  1.00  0.00    -0.301 A  
HETATM   19  C   UNL     1      -8.184   7.142  66.757  1.00  0.00    -0.114 A  
HETATM   20  C   UNL     1      -9.668  10.662  63.998  1.00  0.00    -0.315 A  
HETATM   21  N   UNL     1     -10.408  10.588  66.267  1.00  0.00    -0.230 NA 
HETATM   22  C   UNL     1      -9.711   9.436  66.397  1.00  0.00    -0.250 A  
HETATM   23  C   UNL     1      -8.206   7.791  65.516  1.00  0.00    -0.137 A  
HETATM   24  C   UNL     1      -8.963   8.924  65.316  1.00  0.00    -0.162 A  
HETATM   25  C   UNL     1      -9.737   8.721  67.603  1.00  0.00    -0.210 A  
HETATM   26  N   UNL     1      -8.945   9.523  64.110  1.00  0.00    -0.225 NA 
BRANCH  18  27
HETATM   27  C   UNL     1     -11.115  12.449  64.955  1.00  0.00    -0.344 A  
HETATM   28  N   UNL     1     -11.670  14.554  64.644  1.00  0.00    -0.421 NA 
HETATM   29  C   UNL     1     -10.617  13.684  64.589  1.00  0.00    -0.430 A  
HETATM   30  C   UNL     1     -11.649  15.966  64.354  1.00  0.00    -0.234 C  
HETATM   31  N   UNL     1     -12.823  13.976  65.025  1.00  0.00    -0.732 NA 
HETATM   32  C   UNL     1     -12.483  12.697  65.213  1.00  0.00    -0.416 A  
ENDBRANCH  18  27
ENDBRANCH   9  17
ENDBRANCH   5   9
BRANCH   8  33
HETATM   33  O   UNL     1     -11.516   4.879  72.756  1.00  0.00    -0.203 OA 
HETATM   34  C   UNL     1     -10.415   3.983  72.753  1.00  0.00    -0.159 C  
ENDBRANCH   8  33
ENDBRANCH   2   3
TORSDOF 9
ENDMDL
MODEL      135
REMARK 921   NORMALIZED FREE ENERGY PREDICTED BY IDOCK:   -5.18 KCAL/MOL
REMARK 922        TOTAL FREE ENERGY PREDICTED BY IDOCK:   -9.07 KCAL/MOL
REMARK 923 INTER-LIGAND FREE ENERGY PREDICTED BY IDOCK:   -7.90 KCAL/MOL
REMARK 924 INTRA-LIGAND FREE ENERGY PREDICTED BY IDOCK:   -1.18 KCAL/MOL
REMARK 927      BINDING AFFINITY PREDICTED BY RF-SCORE:    0.00 PKD
ROOT
HETATM    1  C   UNL     1      -9.156   3.604  66.804  1.00  0.00    -0.164 C  
HETATM    2  O   UNL     1      -9.907   4.601  66.099  1.00  0.00    -0.181 OA 
ENDROOT
BRANCH   2   3
HETATM    3  C   UNL     1      -9.280   5.823  66.025  1.00  0.00    -0.141 A  
HETATM    4  C   UNL     1      -9.673   6.800  66.969  1.00  0.00    -0.200 A  
HETATM    5  C   UNL     1      -9.019   8.042  67.088  1.00  0.00    -0.135 A  
HETATM    6  C   UNL     1      -8.033   8.259  66.109  1.00  0.00    -0.100 A  
HETATM    7  C   UNL     1      -8.316   6.115  65.068  1.00  0.00    -0.112 A  
HETATM    8  C   UNL     1      -7.692   7.345  65.104  1.00  0.00    -0.112 A  
BRANCH   5   9
HETATM    9  N   UNL     1      -9.298   9.016  68.105  1.00  0.00    -0.141 NA 
BRANCH   9  10
HETATM   10  C   UNL     1     -10.571   8.915  68.890  1.00  0.00    -0.165 C  
BRANCH  10  11
HETATM   11  C   UNL     1     -10.487   9.041  70.432  1.00  0.00    -0.213 C  
BRANCH  11  12
HETATM   12  N   UNL     1     -11.501   9.854  71.103  1.00  0.00    -0.375 NA 
HETATM   13  H   UNL     1     -12.163  10.220  70.419  1.00  0.00     0.000 HD 
BRANCH  12  14
HETATM   14  C   UNL     1     -12.223   9.195  72.192  1.00  0.00    -0.338 C  
HETATM   15  C   UNL     1     -13.739   9.170  71.987  1.00  0.00    -0.508 C  
HETATM   16  C   UNL     1     -11.701   7.757  72.281  1.00  0.00    -0.390 C  
ENDBRANCH  12  14
ENDBRANCH  11  12
ENDBRANCH  10  11
ENDBRANCH   9  10
BRANCH   9  17
HETATM   17  C   UNL     1      -8.753  10.358  68.133  1.00  0.00    -0.125 A  
HETATM   18  C   UNL     1      -8.859  14.958  66.782  1.00  0.00    -0.261 A  
HETATM   19  C   UNL     1      -7.543  10.654  68.769  1.00  0.00    -0.109 A  
HETATM   20  C   UNL     1      -7.576  15.125  67.279  1.00  0.00    -0.203 A  
HETATM   21  N   UNL     1      -9.488  13.757  66.859  1.00  0.00    -0.253 NA 
HETATM   22  C   UNL     1      -8.819  12.739  67.447  1.00  0.00    -0.190 A  
HETATM   23  C   UNL     1      -6.916  11.900  68.640  1.00  0.00    -0.095 A  
HETATM   24  C   UNL     1      -7.529  12.943  67.981  1.00  0.00    -0.125 A  
HETATM   25  C   UNL     1      -9.388  11.460  67.517  1.00  0.00    -0.166 A  
HETATM   26  N   UNL     1      -6.895  14.128  67.891  1.00  0.00    -0.148 NA 
BRANCH  18  27
HETATM   27  C   UNL     1      -9.610  16.036  66.168  1.00  0.00    -0.366 A  
HETATM   28  N   UNL     1     -10.434  18.009  65.654  1.00  0.00    -0.621 NA 
HETATM   29  C   UNL     1      -9.547  17.380  66.481  1.00  0.00    -0.280 A  
HETATM   30  C   UNL     1     -10.730  19.419  65.606  1.00  0.00    -0.286 C  
HETATM   31  N   UNL     1     -11.078  17.171  64.822  1.00  0.00    -0.925 NA 
HETATM   32  C   UNL     1     -10.576  15.973  65.137  1.00  0.00    -0.370 A  
ENDBRANCH  18  27
ENDBRANCH   9  17
ENDBRANCH   5   9
BRANCH   8  33
HETATM   33  O   UNL     1      -6.723   7.787  64.245  1.00  0.00    -0.055 OA 
HETATM   34  C   UNL     1      -6.159   6.832  63.359  1.00  0.00    -0.042 C  
ENDBRANCH   8  33
ENDBRANCH   2   3
TORSDOF 9
ENDMDL
MODEL      136
REMARK 921   NORMALIZED FREE ENERGY PREDICTED BY IDOCK:   -5.17 KCAL/MOL
REMARK 922        TOTAL FREE ENERGY PREDICTED BY IDOCK:   -9.07 KCAL/MOL
REMARK 923 INTER-LIGAND FREE ENERGY PREDICTED BY IDOCK:   -7.59 KCAL/MOL
REMARK 924 INTRA-LIGAND FREE ENERGY PREDICTED BY IDOCK:   -1.48 KCAL/MOL
REMARK 927      BINDING AFFINITY PREDICTED BY RF-SCORE:    0.00 PKD
ROOT
HETATM    1  C   UNL     1     -13.662   9.625  71.922  1.00  0.00    -0.295 C  
HETATM    2  O   UNL     1     -12.322  10.079  71.697  1.00  0.00    -0.378 OA 
ENDROOT
BRANCH   2   3
HETATM    3  C   UNL     1     -11.604   9.292  70.827  1.00  0.00    -0.285 A  
HETATM    4  C   UNL     1     -10.719   9.956  69.947  1.00  0.00    -0.318 A  
HETATM    5  C   UNL     1      -9.830   9.262  69.102  1.00  0.00    -0.167 A  
HETATM    6  C   UNL     1      -9.996   7.865  69.131  1.00  0.00    -0.184 A  
HETATM    7  C   UNL     1     -11.736   7.908  70.784  1.00  0.00    -0.230 A  
HETATM    8  C   UNL     1     -10.931   7.189  69.924  1.00  0.00    -0.253 A  
BRANCH   5   9
HETATM    9  N   UNL     1      -8.832   9.886  68.281  1.00  0.00    -0.119 NA 
BRANCH   9  10
HETATM   10  C   UNL     1      -8.042   9.049  67.321  1.00  0.00    -0.103 C  
BRANCH  10  11
HETATM   11  C   UNL     1      -8.568   8.916  65.869  1.00  0.00    -0.158 C  
BRANCH  11  12
HETATM   12  N   UNL     1      -9.881   9.485  65.567  1.00  0.00    -0.402 NA 
HETATM   13  H   UNL     1     -10.476   9.446  66.394  1.00  0.00     0.000 HD 
BRANCH  12  14
HETATM   14  C   UNL     1      -9.873  10.842  65.022  1.00  0.00    -0.281 C  
HETATM   15  C   UNL     1     -10.147  10.894  63.517  1.00  0.00    -0.406 C  
HETATM   16  C   UNL     1     -10.956  11.636  65.760  1.00  0.00    -0.329 C  
ENDBRANCH  12  14
ENDBRANCH  11  12
ENDBRANCH  10  11
ENDBRANCH   9  10
BRANCH   9  17
HETATM   17  C   UNL     1      -8.147  11.119  68.611  1.00  0.00    -0.150 A  
HETATM   18  C   UNL     1      -7.676  15.879  68.259  1.00  0.00    -0.137 A  
HETATM   19  C   UNL     1      -6.953  11.134  69.338  1.00  0.00    -0.124 A  
HETATM   20  C   UNL     1      -6.415  15.787  68.826  1.00  0.00    -0.111 A  
HETATM   21  N   UNL     1      -8.435  14.770  68.058  1.00  0.00    -0.145 NA 
HETATM   22  C   UNL     1      -7.916  13.582  68.441  1.00  0.00    -0.142 A  
HETATM   23  C   UNL     1      -6.189  12.297  69.498  1.00  0.00    -0.127 A  
HETATM   24  C   UNL     1      -6.646  13.518  69.052  1.00  0.00    -0.110 A  
HETATM   25  C   UNL     1      -8.623  12.391  68.219  1.00  0.00    -0.172 A  
HETATM   26  N   UNL     1      -5.884  14.613  69.237  1.00  0.00    -0.099 NA 
BRANCH  18  27
HETATM   27  C   UNL     1      -8.269  17.141  67.860  1.00  0.00    -0.202 A  
HETATM   28  N   UNL     1      -9.543  18.675  66.933  1.00  0.00    -0.298 NA 
HETATM   29  C   UNL     1      -9.356  17.325  67.029  1.00  0.00    -0.251 A  
HETATM   30  C   UNL     1     -10.556  19.362  66.170  1.00  0.00    -0.477 C  
HETATM   31  N   UNL     1      -8.650  19.391  67.640  1.00  0.00    -0.298 NA 
HETATM   32  C   UNL     1      -7.877  18.456  68.202  1.00  0.00    -0.289 A  
ENDBRANCH  18  27
ENDBRANCH   9  17
ENDBRANCH   5   9
BRANCH   8  33
HETATM   33  O   UNL     1     -10.929   5.831  69.764  1.00  0.00    -0.357 OA 
HETATM   34  C   UNL     1      -9.673   5.207  69.547  1.00  0.00    -0.192 C  
ENDBRANCH   8  33
ENDBRANCH   2   3
TORSDOF 9
ENDMDL
MODEL      137
REMARK 921   NORMALIZED FREE ENERGY PREDICTED BY IDOCK:   -5.15 KCAL/MOL
REMARK 922        TOTAL FREE ENERGY PREDICTED BY IDOCK:   -9.03 KCAL/MOL
REMARK 923 INTER-LIGAND FREE ENERGY PREDICTED BY IDOCK:   -8.27 KCAL/MOL
REMARK 924 INTRA-LIGAND FREE ENERGY PREDICTED BY IDOCK:   -0.76 KCAL/MOL
REMARK 927      BINDING AFFINITY PREDICTED BY RF-SCORE:    0.00 PKD
ROOT
HETATM    1  C   UNL     1     -12.128  15.518  64.219  1.00  0.00    -0.116 C  
HETATM    2  O   UNL     1     -12.790  14.257  64.063  1.00  0.00    -0.605 OA 
ENDROOT
BRANCH   2   3
HETATM    3  C   UNL     1     -12.016  13.173  64.407  1.00  0.00    -0.397 A  
HETATM    4  C   UNL     1     -11.938  12.855  65.782  1.00  0.00    -0.496 A  
HETATM    5  C   UNL     1     -11.292  11.695  66.255  1.00  0.00    -0.227 A  
HETATM    6  C   UNL     1     -10.635  10.964  65.248  1.00  0.00    -0.259 A  
HETATM    7  C   UNL     1     -11.319  12.421  63.468  1.00  0.00    -0.553 A  
HETATM    8  C   UNL     1     -10.617  11.312  63.892  1.00  0.00    -0.391 A  
BRANCH   5   9
HETATM    9  N   UNL     1     -11.289  11.265  67.624  1.00  0.00    -0.382 NA 
BRANCH   9  10
HETATM   10  C   UNL     1     -12.031  12.068  68.648  1.00  0.00    -0.235 C  
BRANCH  10  11
HETATM   11  C   UNL     1     -11.648  13.560  68.820  1.00  0.00    -0.325 C  
BRANCH  11  12
HETATM   12  N   UNL     1     -12.629  14.446  69.446  1.00  0.00    -0.532 NA 
HETATM   13  H   UNL     1     -13.010  14.006  70.284  1.00  0.00     0.000 HD 
BRANCH  12  14
HETATM   14  C   UNL     1     -12.156  15.793  69.761  1.00  0.00    -0.281 C  
HETATM   15  C   UNL     1     -11.625  15.931  71.190  1.00  0.00    -0.481 C  
HETATM   16  C   UNL     1     -11.036  16.127  68.771  1.00  0.00    -0.330 C  
ENDBRANCH  12  14
ENDBRANCH  11  12
ENDBRANCH  10  11
ENDBRANCH   9  10
BRANCH   9  17
HETATM   17  C   UNL     1     -10.262  10.440  68.226  1.00  0.00    -0.160 A  
HETATM   18  C   UNL     1      -8.651   6.184  69.743  1.00  0.00    -0.132 A  
HETATM   19  C   UNL     1      -9.094  10.986  68.768  1.00  0.00    -0.161 A  
HETATM   20  C   UNL     1      -7.617   6.823  70.408  1.00  0.00    -0.095 A  
HETATM   21  N   UNL     1      -9.568   6.892  69.033  1.00  0.00    -0.137 NA 
HETATM   22  C   UNL     1      -9.424   8.236  68.994  1.00  0.00    -0.155 A  
HETATM   23  C   UNL     1      -8.189  10.224  69.516  1.00  0.00    -0.165 A  
HETATM   24  C   UNL     1      -8.341   8.860  69.647  1.00  0.00    -0.123 A  
HETATM   25  C   UNL     1     -10.362   9.033  68.321  1.00  0.00    -0.252 A  
HETATM   26  N   UNL     1      -7.440   8.164  70.366  1.00  0.00    -0.065 NA 
BRANCH  18  27
HETATM   27  C   UNL     1      -8.818   4.744  69.747  1.00  0.00    -0.128 A  
HETATM   28  N   UNL     1      -9.248   2.667  69.165  1.00  0.00    -0.135 NA 
HETATM   29  C   UNL     1      -9.230   3.950  68.694  1.00  0.00    -0.151 A  
HETATM   30  C   UNL     1      -9.618   1.478  68.438  1.00  0.00    -0.145 C  
HETATM   31  N   UNL     1      -8.881   2.565  70.455  1.00  0.00    -0.074 NA 
HETATM   32  C   UNL     1      -8.621   3.828  70.806  1.00  0.00    -0.071 A  
ENDBRANCH  18  27
ENDBRANCH   9  17
ENDBRANCH   5   9
BRANCH   8  33
HETATM   33  O   UNL     1      -9.888  10.465  63.103  1.00  0.00    -0.299 OA 
HETATM   34  C   UNL     1      -8.680   9.954  63.645  1.00  0.00    -0.213 C  
ENDBRANCH   8  33
ENDBRANCH   2   3
TORSDOF 9
ENDMDL
MODEL      138
REMARK 921   NORMALIZED FREE ENERGY PREDICTED BY IDOCK:   -5.13 KCAL/MOL
REMARK 922        TOTAL FREE ENERGY PREDICTED BY IDOCK:   -9.00 KCAL/MOL
REMARK 923 INTER-LIGAND FREE ENERGY PREDICTED BY IDOCK:   -8.09 KCAL/MOL
REMARK 924 INTRA-LIGAND FREE ENERGY PREDICTED BY IDOCK:   -0.91 KCAL/MOL
REMARK 927      BINDING AFFINITY PREDICTED BY RF-SCORE:    0.00 PKD
ROOT
HETATM    1  C   UNL     1     -11.810  15.587  63.883  1.00  0.00     0.230 C  
HETATM    2  O   UNL     1     -11.287  16.882  64.204  1.00  0.00    -1.208 OA 
ENDROOT
BRANCH   2   3
HETATM    3  C   UNL     1     -10.804  16.988  65.487  1.00  0.00    -0.069 A  
HETATM    4  C   UNL     1     -10.502  15.781  66.157  1.00  0.00    -0.326 A  
HETATM    5  C   UNL     1      -9.878  15.752  67.420  1.00  0.00    -0.233 A  
HETATM    6  C   UNL     1      -9.701  17.025  67.993  1.00  0.00    -0.260 A  
HETATM    7  C   UNL     1     -10.628  18.212  66.124  1.00  0.00    -0.289 A  
HETATM    8  C   UNL     1     -10.079  18.231  67.389  1.00  0.00    -0.352 A  
BRANCH   5   9
HETATM    9  N   UNL     1      -9.442  14.558  68.087  1.00  0.00    -0.202 NA 
BRANCH   9  10
HETATM   10  C   UNL     1      -8.252  14.616  68.996  1.00  0.00    -0.110 C  
BRANCH  10  11
HETATM   11  C   UNL     1      -6.844  14.652  68.349  1.00  0.00    -0.102 C  
BRANCH  11  12
HETATM   12  N   UNL     1      -6.688  15.399  67.102  1.00  0.00    -0.275 NA 
HETATM   13  H   UNL     1      -7.603  15.668  66.740  1.00  0.00     0.000 HD 
BRANCH  12  14
HETATM   14  C   UNL     1      -5.813  16.568  67.169  1.00  0.00    -0.139 C  
HETATM   15  C   UNL     1      -6.347  17.771  66.387  1.00  0.00    -0.252 C  
HETATM   16  C   UNL     1      -5.672  16.949  68.646  1.00  0.00    -0.136 C  
ENDBRANCH  12  14
ENDBRANCH  11  12
ENDBRANCH  10  11
ENDBRANCH   9  10
BRANCH   9  17
HETATM   17  C   UNL     1      -9.694  13.212  67.614  1.00  0.00    -0.213 A  
HETATM   18  C   UNL     1     -10.409   8.541  68.438  1.00  0.00    -0.202 A  
HETATM   19  C   UNL     1      -9.702  12.892  66.253  1.00  0.00    -0.268 A  
HETATM   20  C   UNL     1     -10.222   8.284  67.089  1.00  0.00    -0.295 A  
HETATM   21  N   UNL     1     -10.333   9.807  68.925  1.00  0.00    -0.201 NA 
HETATM   22  C   UNL     1     -10.080  10.801  68.043  1.00  0.00    -0.176 A  
HETATM   23  C   UNL     1      -9.755  11.570  65.795  1.00  0.00    -0.263 A  
HETATM   24  C   UNL     1      -9.933  10.519  66.669  1.00  0.00    -0.211 A  
HETATM   25  C   UNL     1      -9.939  12.125  68.484  1.00  0.00    -0.180 A  
HETATM   26  N   UNL     1      -9.991   9.264  66.184  1.00  0.00    -0.290 NA 
BRANCH  18  27
HETATM   27  C   UNL     1     -10.703   7.501  69.403  1.00  0.00    -0.200 A  
HETATM   28  N   UNL     1     -11.421   6.398  71.165  1.00  0.00    -0.317 NA 
HETATM   29  C   UNL     1     -11.404   7.635  70.586  1.00  0.00    -0.272 A  
HETATM   30  C   UNL     1     -12.030   6.032  72.420  1.00  0.00    -0.179 C  
HETATM   31  N   UNL     1     -10.775   5.461  70.448  1.00  0.00    -0.251 NA 
HETATM   32  C   UNL     1     -10.340   6.134  69.378  1.00  0.00    -0.227 A  
ENDBRANCH  18  27
ENDBRANCH   9  17
ENDBRANCH   5   9
BRANCH   8  33
HETATM   33  O   UNL     1      -9.834  19.342  68.149  1.00  0.00    -0.332 OA 
HETATM   34  C   UNL     1      -8.604  19.383  68.856  1.00  0.00    -0.291 C  
ENDBRANCH   8  33
ENDBRANCH   2   3
TORSDOF 9
ENDMDL
MODEL      139
REMARK 921   NORMALIZED FREE ENERGY PREDICTED BY IDOCK:   -5.12 KCAL/MOL
REMARK 922        TOTAL FREE ENERGY PREDICTED BY IDOCK:   -8.99 KCAL/MOL
REMARK 923 INTER-LIGAND FREE ENERGY PREDICTED BY IDOCK:   -7.94 KCAL/MOL
REMARK 924 INTRA-LIGAND FREE ENERGY PREDICTED BY IDOCK:   -1.05 KCAL/MOL
REMARK 927      BINDING AFFINITY PREDICTED BY RF-SCORE:    0.00 PKD
ROOT
HETATM    1  C   UNL     1     -12.143  12.931  63.343  1.00  0.00    -0.530 C  
HETATM    2  O   UNL     1     -12.591  13.746  64.433  1.00  0.00    -0.638 OA 
ENDROOT
BRANCH   2   3
HETATM    3  C   UNL     1     -12.127  13.339  65.662  1.00  0.00    -0.441 A  
HETATM    4  C   UNL     1     -11.359  12.153  65.694  1.00  0.00    -0.395 A  
HETATM    5  C   UNL     1     -10.714  11.700  66.862  1.00  0.00    -0.257 A  
HETATM    6  C   UNL     1     -11.009  12.467  68.004  1.00  0.00    -0.262 A  
HETATM    7  C   UNL     1     -12.401  14.034  66.835  1.00  0.00    -0.321 A  
HETATM    8  C   UNL     1     -11.844  13.591  68.017  1.00  0.00    -0.365 A  
BRANCH   5   9
HETATM    9  N   UNL     1      -9.827  10.573  66.919  1.00  0.00    -0.186 NA 
BRANCH   9  10
HETATM   10  C   UNL     1      -9.965   9.478  65.905  1.00  0.00    -0.272 C  
BRANCH  10  11
HETATM   11  C   UNL     1      -8.709   8.633  65.572  1.00  0.00    -0.186 C  
BRANCH  11  12
HETATM   12  N   UNL     1      -7.521   9.340  65.094  1.00  0.00    -0.103 NA 
HETATM   13  H   UNL     1      -6.680   8.889  65.453  1.00  0.00     0.000 HD 
BRANCH  12  14
HETATM   14  C   UNL     1      -7.421   9.503  63.645  1.00  0.00    -0.115 C  
HETATM   15  C   UNL     1      -8.453  10.476  63.070  1.00  0.00    -0.178 C  
HETATM   16  C   UNL     1      -6.012  10.024  63.341  1.00  0.00    -0.127 C  
ENDBRANCH  12  14
ENDBRANCH  11  12
ENDBRANCH  10  11
ENDBRANCH   9  10
BRANCH   9  17
HETATM   17  C   UNL     1      -9.149  10.118  68.115  1.00  0.00    -0.128 A  
HETATM   18  C   UNL     1      -8.972   7.397  72.061  1.00  0.00    -0.124 A  
HETATM   19  C   UNL     1      -7.952  10.693  68.554  1.00  0.00    -0.122 A  
HETATM   20  C   UNL     1      -7.892   8.138  72.513  1.00  0.00    -0.136 A  
HETATM   21  N   UNL     1      -9.564   7.678  70.871  1.00  0.00    -0.165 NA 
HETATM   22  C   UNL     1      -9.052   8.699  70.146  1.00  0.00    -0.158 A  
HETATM   23  C   UNL     1      -7.391  10.393  69.801  1.00  0.00    -0.157 A  
HETATM   24  C   UNL     1      -7.927   9.413  70.608  1.00  0.00    -0.158 A  
HETATM   25  C   UNL     1      -9.643   9.075  68.931  1.00  0.00    -0.156 A  
HETATM   26  N   UNL     1      -7.349   9.149  71.795  1.00  0.00    -0.332 NA 
BRANCH  18  27
HETATM   27  C   UNL     1      -9.528   6.284  72.805  1.00  0.00    -0.147 A  
HETATM   28  N   UNL     1     -10.316   4.313  73.381  1.00  0.00    -0.157 NA 
HETATM   29  C   UNL     1      -9.790   5.013  72.332  1.00  0.00    -0.169 A  
HETATM   30  C   UNL     1     -10.753   2.939  73.379  1.00  0.00    -0.184 C  
HETATM   31  N   UNL     1     -10.421   5.038  74.510  1.00  0.00    -0.320 NA 
HETATM   32  C   UNL     1      -9.943   6.235  74.156  1.00  0.00    -0.286 A  
ENDBRANCH  18  27
ENDBRANCH   9  17
ENDBRANCH   5   9
BRANCH   8  33
HETATM   33  O   UNL     1     -12.006  14.158  69.251  1.00  0.00    -0.309 OA 
HETATM   34  C   UNL     1     -11.648  15.525  69.387  1.00  0.00    -0.355 C  
ENDBRANCH   8  33
ENDBRANCH   2   3
TORSDOF 9
ENDMDL
MODEL      140
REMARK 921   NORMALIZED FREE ENERGY PREDICTED BY IDOCK:   -5.11 KCAL/MOL
REMARK 922        TOTAL FREE ENERGY PREDICTED BY IDOCK:   -8.97 KCAL/MOL
REMARK 923 INTER-LIGAND FREE ENERGY PREDICTED BY IDOCK:   -8.11 KCAL/MOL
REMARK 924 INTRA-LIGAND FREE ENERGY PREDICTED BY IDOCK:   -0.86 KCAL/MOL
REMARK 927      BINDING AFFINITY PREDICTED BY RF-SCORE:    0.00 PKD
ROOT
HETATM    1  C   UNL     1      -6.815   6.994  72.997  1.00  0.00    -0.069 C  
HETATM    2  O   UNL     1      -7.457   8.186  72.528  1.00  0.00    -0.104 OA 
ENDROOT
BRANCH   2   3
HETATM    3  C   UNL     1      -8.805   8.041  72.296  1.00  0.00    -0.166 A  
HETATM    4  C   UNL     1      -9.462   9.115  71.653  1.00  0.00    -0.183 A  
HETATM    5  C   UNL     1     -10.806   9.040  71.238  1.00  0.00    -0.315 A  
HETATM    6  C   UNL     1     -11.455   7.855  71.632  1.00  0.00    -0.304 A  
HETATM    7  C   UNL     1      -9.515   6.908  72.681  1.00  0.00    -0.159 A  
HETATM    8  C   UNL     1     -10.851   6.817  72.353  1.00  0.00    -0.238 A  
BRANCH   5   9
HETATM    9  N   UNL     1     -11.482  10.053  70.477  1.00  0.00    -0.306 NA 
BRANCH   9  10
HETATM   10  C   UNL     1     -12.857  10.485  70.887  1.00  0.00    -0.394 C  
BRANCH  10  11
HETATM   11  C   UNL     1     -12.991  11.780  71.730  1.00  0.00    -0.361 C  
BRANCH  11  12
HETATM   12  N   UNL     1     -12.515  13.029  71.137  1.00  0.00    -0.335 NA 
HETATM   13  H   UNL     1     -12.492  12.945  70.120  1.00  0.00     0.000 HD 
BRANCH  12  14
HETATM   14  C   UNL     1     -13.248  14.233  71.522  1.00  0.00    -0.348 C  
HETATM   15  C   UNL     1     -13.037  14.630  72.985  1.00  0.00    -0.616 C  
HETATM   16  C   UNL     1     -12.766  15.371  70.616  1.00  0.00    -0.490 C  
ENDBRANCH  12  14
ENDBRANCH  11  12
ENDBRANCH  10  11
ENDBRANCH   9  10
BRANCH   9  17
HETATM   17  C   UNL     1     -11.214  10.352  69.085  1.00  0.00    -0.246 A  
HETATM   18  C   UNL     1      -8.993   9.404  64.942  1.00  0.00    -0.209 A  
HETATM   19  C   UNL     1     -11.711  11.502  68.465  1.00  0.00    -0.379 A  
HETATM   20  C   UNL     1      -9.375  10.647  64.463  1.00  0.00    -0.243 A  
HETATM   21  N   UNL     1      -9.340   9.000  66.191  1.00  0.00    -0.213 NA 
HETATM   22  C   UNL     1     -10.078   9.851  66.940  1.00  0.00    -0.225 A  
HETATM   23  C   UNL     1     -11.305  11.896  67.184  1.00  0.00    -0.393 A  
HETATM   24  C   UNL     1     -10.489  11.094  66.416  1.00  0.00    -0.260 A  
HETATM   25  C   UNL     1     -10.430   9.519  68.256  1.00  0.00    -0.265 A  
HETATM   26  N   UNL     1     -10.132  11.506  65.184  1.00  0.00    -0.256 NA 
BRANCH  18  27
HETATM   27  C   UNL     1      -8.221   8.462  64.155  1.00  0.00    -0.122 A  
HETATM   28  N   UNL     1      -7.043   6.723  63.503  1.00  0.00    -0.056 NA 
HETATM   29  C   UNL     1      -7.696   7.256  64.578  1.00  0.00    -0.113 A  
HETATM   30  C   UNL     1      -6.328   5.472  63.451  1.00  0.00    -0.022 C  
HETATM   31  N   UNL     1      -7.099   7.497  62.404  1.00  0.00    -0.078 NA 
HETATM   32  C   UNL     1      -7.815   8.553  62.804  1.00  0.00    -0.138 A  
ENDBRANCH  18  27
ENDBRANCH   9  17
ENDBRANCH   5   9
BRANCH   8  33
HETATM   33  O   UNL     1     -11.688   5.776  72.648  1.00  0.00    -0.293 OA 
HETATM   34  C   UNL     1     -11.087   4.562  73.072  1.00  0.00    -0.213 C  
ENDBRANCH   8  33
ENDBRANCH   2   3
TORSDOF 9
ENDMDL
MODEL      141
REMARK 921   NORMALIZED FREE ENERGY PREDICTED BY IDOCK:   -5.11 KCAL/MOL
REMARK 922        TOTAL FREE ENERGY PREDICTED BY IDOCK:   -8.97 KCAL/MOL
REMARK 923 INTER-LIGAND FREE ENERGY PREDICTED BY IDOCK:   -7.42 KCAL/MOL
REMARK 924 INTRA-LIGAND FREE ENERGY PREDICTED BY IDOCK:   -1.55 KCAL/MOL
REMARK 927      BINDING AFFINITY PREDICTED BY RF-SCORE:    0.00 PKD
ROOT
HETATM    1  C   UNL     1     -10.737   5.707  66.772  1.00  0.00    -0.284 C  
HETATM    2  O   UNL     1     -11.090   5.514  68.147  1.00  0.00     0.018 OA 
ENDROOT
BRANCH   2   3
HETATM    3  C   UNL     1     -10.751   6.567  68.965  1.00  0.00    -0.278 A  
HETATM    4  C   UNL     1     -10.019   7.622  68.375  1.00  0.00    -0.192 A  
HETATM    5  C   UNL     1      -9.725   8.816  69.063  1.00  0.00    -0.172 A  
HETATM    6  C   UNL     1     -10.121   8.803  70.413  1.00  0.00    -0.223 A  
HETATM    7  C   UNL     1     -11.086   6.608  70.314  1.00  0.00    -0.379 A  
HETATM    8  C   UNL     1     -10.762   7.731  71.046  1.00  0.00    -0.228 A  
BRANCH   5   9
HETATM    9  N   UNL     1      -9.093   9.962  68.474  1.00  0.00    -0.123 NA 
BRANCH   9  10
HETATM   10  C   UNL     1      -7.631  10.196  68.708  1.00  0.00    -0.089 C  
BRANCH  10  11
HETATM   11  C   UNL     1      -6.667  10.036  67.505  1.00  0.00    -0.072 C  
BRANCH  11  12
HETATM   12  N   UNL     1      -6.965   8.987  66.531  1.00  0.00    -0.079 NA 
HETATM   13  H   UNL     1      -7.839   8.523  66.776  1.00  0.00     0.000 HD 
BRANCH  12  14
HETATM   14  C   UNL     1      -7.000   9.413  65.133  1.00  0.00    -0.092 C  
HETATM   15  C   UNL     1      -8.219  10.273  64.790  1.00  0.00    -0.163 C  
HETATM   16  C   UNL     1      -5.724  10.218  64.868  1.00  0.00    -0.131 C  
ENDBRANCH  12  14
ENDBRANCH  11  12
ENDBRANCH  10  11
ENDBRANCH   9  10
BRANCH   9  17
HETATM   17  C   UNL     1      -9.781  11.180  68.098  1.00  0.00    -0.181 A  
HETATM   18  C   UNL     1     -10.108  15.965  68.033  1.00  0.00    -0.230 A  
HETATM   19  C   UNL     1     -11.045  11.165  67.500  1.00  0.00    -0.353 A  
HETATM   20  C   UNL     1     -11.423  15.860  67.611  1.00  0.00    -0.070 A  
HETATM   21  N   UNL     1      -9.357  14.856  68.262  1.00  0.00    -0.189 NA 
HETATM   22  C   UNL     1      -9.940  13.654  68.051  1.00  0.00    -0.247 A  
HETATM   23  C   UNL     1     -11.796  12.331  67.308  1.00  0.00    -0.330 A  
HETATM   24  C   UNL     1     -11.268  13.573  67.583  1.00  0.00    -0.279 A  
HETATM   25  C   UNL     1      -9.239  12.468  68.314  1.00  0.00    -0.186 A  
HETATM   26  N   UNL     1     -12.021  14.670  67.372  1.00  0.00    -0.350 NA 
BRANCH  18  27
HETATM   27  C   UNL     1      -9.449  17.239  68.245  1.00  0.00    -0.283 A  
HETATM   28  N   UNL     1      -7.944  18.808  68.578  1.00  0.00    -0.335 NA 
HETATM   29  C   UNL     1      -8.094  17.462  68.392  1.00  0.00    -0.264 A  
HETATM   30  C   UNL     1      -6.711  19.526  68.784  1.00  0.00    -0.307 C  
HETATM   31  N   UNL     1      -9.107  19.483  68.569  1.00  0.00    -0.360 NA 
HETATM   32  C   UNL     1     -10.020  18.527  68.367  1.00  0.00    -0.380 A  
ENDBRANCH  18  27
ENDBRANCH   9  17
ENDBRANCH   5   9
BRANCH   8  33
HETATM   33  O   UNL     1     -11.023   7.935  72.373  1.00  0.00    -0.271 OA 
HETATM   34  C   UNL     1     -10.224   7.224  73.307  1.00  0.00    -0.319 C  
ENDBRANCH   8  33
ENDBRANCH   2   3
TORSDOF 9
ENDMDL
MODEL      142
REMARK 921   NORMALIZED FREE ENERGY PREDICTED BY IDOCK:   -5.11 KCAL/MOL
REMARK 922        TOTAL FREE ENERGY PREDICTED BY IDOCK:   -8.97 KCAL/MOL
REMARK 923 INTER-LIGAND FREE ENERGY PREDICTED BY IDOCK:   -7.86 KCAL/MOL
REMARK 924 INTRA-LIGAND FREE ENERGY PREDICTED BY IDOCK:   -1.11 KCAL/MOL
REMARK 927      BINDING AFFINITY PREDICTED BY RF-SCORE:    0.00 PKD
ROOT
HETATM    1  C   UNL     1     -10.029  20.029  65.882  1.00  0.00    -0.368 C  
HETATM    2  O   UNL     1     -10.570  18.730  65.607  1.00  0.00    -0.596 OA 
ENDROOT
BRANCH   2   3
HETATM    3  C   UNL     1      -9.754  17.692  65.991  1.00  0.00    -0.137 A  
HETATM    4  C   UNL     1     -10.311  16.394  65.950  1.00  0.00    -0.378 A  
HETATM    5  C   UNL     1      -9.546  15.234  66.189  1.00  0.00    -0.321 A  
HETATM    6  C   UNL     1      -8.223  15.501  66.587  1.00  0.00    -0.244 A  
HETATM    7  C   UNL     1      -8.445  17.885  66.420  1.00  0.00    -0.263 A  
HETATM    8  C   UNL     1      -7.676  16.783  66.727  1.00  0.00    -0.250 A  
BRANCH   5   9
HETATM    9  N   UNL     1     -10.033  13.892  66.041  1.00  0.00    -0.307 NA 
BRANCH   9  10
HETATM   10  C   UNL     1     -11.484  13.665  65.745  1.00  0.00    -0.315 C  
BRANCH  10  11
HETATM   11  C   UNL     1     -12.431  13.363  66.935  1.00  0.00    -0.058 C  
BRANCH  11  12
HETATM   12  N   UNL     1     -12.405  14.280  68.074  1.00  0.00    -0.564 NA 
HETATM   13  H   UNL     1     -13.349  14.610  68.276  1.00  0.00     0.000 HD 
BRANCH  12  14
HETATM   14  C   UNL     1     -11.787  13.760  69.292  1.00  0.00    -0.344 C  
HETATM   15  C   UNL     1     -12.481  14.231  70.573  1.00  0.00    -0.428 C  
HETATM   16  C   UNL     1     -11.848  12.231  69.218  1.00  0.00    -0.363 C  
ENDBRANCH  12  14
ENDBRANCH  11  12
ENDBRANCH  10  11
ENDBRANCH   9  10
BRANCH   9  17
HETATM   17  C   UNL     1      -9.413  12.722  66.628  1.00  0.00    -0.249 A  
HETATM   18  C   UNL     1      -8.840   7.968  66.900  1.00  0.00    -0.132 A  
HETATM   19  C   UNL     1      -8.572  12.807  67.742  1.00  0.00    -0.184 A  
HETATM   20  C   UNL     1      -8.169   8.126  68.101  1.00  0.00    -0.129 A  
HETATM   21  N   UNL     1      -9.320   9.042  66.220  1.00  0.00    -0.205 NA 
HETATM   22  C   UNL     1      -9.106  10.265  66.756  1.00  0.00    -0.143 A  
HETATM   23  C   UNL     1      -8.122  11.673  68.429  1.00  0.00    -0.153 A  
HETATM   24  C   UNL     1      -8.385  10.404  67.960  1.00  0.00    -0.118 A  
HETATM   25  C   UNL     1      -9.615  11.414  66.133  1.00  0.00    -0.242 A  
HETATM   26  N   UNL     1      -7.923   9.341  68.646  1.00  0.00    -0.099 NA 
BRANCH  18  27
HETATM   27  C   UNL     1      -9.065   6.672  66.290  1.00  0.00    -0.168 A  
HETATM   28  N   UNL     1      -8.932   4.893  65.004  1.00  0.00    -0.154 NA 
HETATM   29  C   UNL     1      -8.360   6.111  65.242  1.00  0.00    -0.144 A  
HETATM   30  C   UNL     1      -8.548   3.932  64.000  1.00  0.00    -0.098 C  
HETATM   31  N   UNL     1      -9.965   4.617  65.820  1.00  0.00    -0.214 NA 
HETATM   32  C   UNL     1     -10.044   5.700  66.599  1.00  0.00    -0.198 A  
ENDBRANCH  18  27
ENDBRANCH   9  17
ENDBRANCH   5   9
BRANCH   8  33
HETATM   33  O   UNL     1      -6.376  16.796  67.155  1.00  0.00    -0.153 OA 
HETATM   34  C   UNL     1      -5.964  15.738  68.006  1.00  0.00    -0.139 C  
ENDBRANCH   8  33
ENDBRANCH   2   3
TORSDOF 9
ENDMDL
MODEL      143
REMARK 921   NORMALIZED FREE ENERGY PREDICTED BY IDOCK:   -5.10 KCAL/MOL
REMARK 922        TOTAL FREE ENERGY PREDICTED BY IDOCK:   -8.95 KCAL/MOL
REMARK 923 INTER-LIGAND FREE ENERGY PREDICTED BY IDOCK:   -7.43 KCAL/MOL
REMARK 924 INTRA-LIGAND FREE ENERGY PREDICTED BY IDOCK:   -1.52 KCAL/MOL
REMARK 927      BINDING AFFINITY PREDICTED BY RF-SCORE:    0.00 PKD
ROOT
HETATM    1  C   UNL     1      -7.433   8.314  73.464  1.00  0.00    -0.124 C  
HETATM    2  O   UNL     1      -6.362   8.793  72.641  1.00  0.00    -0.154 OA 
ENDROOT
BRANCH   2   3
HETATM    3  C   UNL     1      -6.659   8.821  71.299  1.00  0.00    -0.075 A  
HETATM    4  C   UNL     1      -8.027   8.892  70.948  1.00  0.00    -0.173 A  
HETATM    5  C   UNL     1      -8.460   9.061  69.618  1.00  0.00    -0.128 A  
HETATM    6  C   UNL     1      -7.416   9.029  68.676  1.00  0.00    -0.084 A  
HETATM    7  C   UNL     1      -5.680   8.767  70.312  1.00  0.00    -0.027 A  
HETATM    8  C   UNL     1      -6.061   8.863  68.991  1.00  0.00    -0.043 A  
BRANCH   5   9
HETATM    9  N   UNL     1      -9.826   9.259  69.224  1.00  0.00    -0.167 NA 
BRANCH   9  10
HETATM   10  C   UNL     1     -10.441   8.335  68.217  1.00  0.00    -0.161 C  
BRANCH  10  11
HETATM   11  C   UNL     1     -10.660   8.869  66.778  1.00  0.00    -0.142 C  
BRANCH  11  12
HETATM   12  N   UNL     1      -9.637   8.566  65.779  1.00  0.00    -0.453 NA 
HETATM   13  H   UNL     1      -9.854   7.683  65.315  1.00  0.00     0.000 HD 
BRANCH  12  14
HETATM   14  C   UNL     1      -9.398   9.607  64.781  1.00  0.00    -0.222 C  
HETATM   15  C   UNL     1      -8.972  10.946  65.390  1.00  0.00    -0.209 C  
HETATM   16  C   UNL     1      -8.291   9.102  63.850  1.00  0.00    -0.183 C  
ENDBRANCH  12  14
ENDBRANCH  11  12
ENDBRANCH  10  11
ENDBRANCH   9  10
BRANCH   9  17
HETATM   17  C   UNL     1     -10.529  10.523  69.298  1.00  0.00    -0.235 A  
HETATM   18  C   UNL     1     -10.821  15.221  68.376  1.00  0.00    -0.257 A  
HETATM   19  C   UNL     1     -11.714  10.672  70.025  1.00  0.00    -0.405 A  
HETATM   20  C   UNL     1     -11.885  15.319  69.259  1.00  0.00    -0.329 A  
HETATM   21  N   UNL     1     -10.210  14.029  68.148  1.00  0.00    -0.237 NA 
HETATM   22  C   UNL     1     -10.686  12.948  68.806  1.00  0.00    -0.218 A  
HETATM   23  C   UNL     1     -12.296  11.924  70.258  1.00  0.00    -0.287 A  
HETATM   24  C   UNL     1     -11.795  13.065  69.669  1.00  0.00    -0.319 A  
HETATM   25  C   UNL     1     -10.072  11.696  68.656  1.00  0.00    -0.206 A  
HETATM   26  N   UNL     1     -12.393  14.247  69.911  1.00  0.00    -0.340 NA 
BRANCH  18  27
HETATM   27  C   UNL     1     -10.304  16.357  67.640  1.00  0.00    -0.284 A  
HETATM   28  N   UNL     1      -9.787  18.394  66.991  1.00  0.00    -0.311 NA 
HETATM   29  C   UNL     1     -10.412  17.691  67.982  1.00  0.00    -0.394 A  
HETATM   30  C   UNL     1      -9.641  19.825  66.897  1.00  0.00    -0.377 C  
HETATM   31  N   UNL     1      -9.279  17.614  66.019  1.00  0.00    -0.513 NA 
HETATM   32  C   UNL     1      -9.596  16.377  66.416  1.00  0.00    -0.288 A  
ENDBRANCH  18  27
ENDBRANCH   9  17
ENDBRANCH   5   9
BRANCH   8  33
HETATM   33  O   UNL     1      -5.230   8.834  67.904  1.00  0.00    -0.034 OA 
HETATM   34  C   UNL     1      -5.824   9.029  66.629  1.00  0.00    -0.055 C  
ENDBRANCH   8  33
ENDBRANCH   2   3
TORSDOF 9
ENDMDL
MODEL      144
REMARK 921   NORMALIZED FREE ENERGY PREDICTED BY IDOCK:   -5.08 KCAL/MOL
REMARK 922        TOTAL FREE ENERGY PREDICTED BY IDOCK:   -8.93 KCAL/MOL
REMARK 923 INTER-LIGAND FREE ENERGY PREDICTED BY IDOCK:   -7.31 KCAL/MOL
REMARK 924 INTRA-LIGAND FREE ENERGY PREDICTED BY IDOCK:   -1.62 KCAL/MOL
REMARK 927      BINDING AFFINITY PREDICTED BY RF-SCORE:    0.00 PKD
ROOT
HETATM    1  C   UNL     1     -11.446   5.905  72.515  1.00  0.00    -0.298 C  
HETATM    2  O   UNL     1     -12.083   6.908  71.713  1.00  0.00    -0.313 OA 
ENDROOT
BRANCH   2   3
HETATM    3  C   UNL     1     -11.490   7.105  70.488  1.00  0.00    -0.295 A  
HETATM    4  C   UNL     1     -10.871   8.357  70.273  1.00  0.00    -0.244 A  
HETATM    5  C   UNL     1     -10.115   8.639  69.118  1.00  0.00    -0.199 A  
HETATM    6  C   UNL     1     -10.140   7.608  68.160  1.00  0.00    -0.220 A  
HETATM    7  C   UNL     1     -11.498   6.141  69.487  1.00  0.00    -0.299 A  
HETATM    8  C   UNL     1     -10.825   6.396  68.311  1.00  0.00    -0.309 A  
BRANCH   5   9
HETATM    9  N   UNL     1      -9.369   9.847  68.906  1.00  0.00    -0.162 NA 
BRANCH   9  10
HETATM   10  C   UNL     1      -8.169  10.128  69.759  1.00  0.00    -0.145 C  
BRANCH  10  11
HETATM   11  C   UNL     1      -6.814   9.503  69.338  1.00  0.00    -0.049 C  
BRANCH  11  12
HETATM   12  N   UNL     1      -6.527   8.140  69.782  1.00  0.00    -0.036 NA 
HETATM   13  H   UNL     1      -5.519   8.003  69.856  1.00  0.00     0.000 HD 
BRANCH  12  14
HETATM   14  C   UNL     1      -7.180   7.728  71.024  1.00  0.00    -0.054 C  
HETATM   15  C   UNL     1      -7.643   6.268  71.011  1.00  0.00    -0.090 C  
HETATM   16  C   UNL     1      -6.170   7.927  72.158  1.00  0.00    -0.042 C  
ENDBRANCH  12  14
ENDBRANCH  11  12
ENDBRANCH  10  11
ENDBRANCH   9  10
BRANCH   9  17
HETATM   17  C   UNL     1      -9.908  11.056  68.318  1.00  0.00    -0.178 A  
HETATM   18  C   UNL     1      -9.712  15.780  67.518  1.00  0.00    -0.226 A  
HETATM   19  C   UNL     1     -11.146  11.077  67.669  1.00  0.00    -0.363 A  
HETATM   20  C   UNL     1     -11.017  15.747  67.053  1.00  0.00    -0.221 A  
HETATM   21  N   UNL     1      -9.094  14.650  67.947  1.00  0.00    -0.184 NA 
HETATM   22  C   UNL     1      -9.796  13.495  67.892  1.00  0.00    -0.235 A  
HETATM   23  C   UNL     1     -11.760  12.269  67.266  1.00  0.00    -0.394 A  
HETATM   24  C   UNL     1     -11.110  13.479  67.377  1.00  0.00    -0.281 A  
HETATM   25  C   UNL     1      -9.237  12.299  68.364  1.00  0.00    -0.145 A  
HETATM   26  N   UNL     1     -11.732  14.601  66.967  1.00  0.00    -0.380 NA 
BRANCH  18  27
HETATM   27  C   UNL     1      -8.927  16.998  67.567  1.00  0.00    -0.220 A  
HETATM   28  N   UNL     1      -7.765  18.734  68.255  1.00  0.00    -0.288 NA 
HETATM   29  C   UNL     1      -8.426  17.621  68.694  1.00  0.00    -0.266 A  
HETATM   30  C   UNL     1      -7.077  19.711  69.061  1.00  0.00    -0.352 C  
HETATM   31  N   UNL     1      -7.800  18.887  66.919  1.00  0.00    -0.240 NA 
HETATM   32  C   UNL     1      -8.508  17.831  66.504  1.00  0.00    -0.260 A  
ENDBRANCH  18  27
ENDBRANCH   9  17
ENDBRANCH   5   9
BRANCH   8  33
HETATM   33  O   UNL     1     -10.730   5.558  67.234  1.00  0.00    -0.241 OA 
HETATM   34  C   UNL     1      -9.801   5.911  66.219  1.00  0.00    -0.076 C  
ENDBRANCH   8  33
ENDBRANCH   2   3
TORSDOF 9
ENDMDL
MODEL      145
REMARK 921   NORMALIZED FREE ENERGY PREDICTED BY IDOCK:   -5.07 KCAL/MOL
REMARK 922        TOTAL FREE ENERGY PREDICTED BY IDOCK:   -8.91 KCAL/MOL
REMARK 923 INTER-LIGAND FREE ENERGY PREDICTED BY IDOCK:   -7.63 KCAL/MOL
REMARK 924 INTRA-LIGAND FREE ENERGY PREDICTED BY IDOCK:   -1.28 KCAL/MOL
REMARK 927      BINDING AFFINITY PREDICTED BY RF-SCORE:    0.00 PKD
ROOT
HETATM    1  C   UNL     1      -7.474   7.972  63.711  1.00  0.00    -0.121 C  
HETATM    2  O   UNL     1      -6.931   7.315  64.863  1.00  0.00    -0.049 OA 
ENDROOT
BRANCH   2   3
HETATM    3  C   UNL     1      -7.852   6.580  65.573  1.00  0.00    -0.104 A  
HETATM    4  C   UNL     1      -7.888   6.781  66.972  1.00  0.00    -0.104 A  
HETATM    5  C   UNL     1      -8.868   6.193  67.796  1.00  0.00    -0.110 A  
HETATM    6  C   UNL     1      -9.719   5.303  67.115  1.00  0.00    -0.165 A  
HETATM    7  C   UNL     1      -8.706   5.663  64.970  1.00  0.00    -0.068 A  
HETATM    8  C   UNL     1      -9.642   5.014  65.747  1.00  0.00    -0.148 A  
BRANCH   5   9
HETATM    9  N   UNL     1      -9.022   6.461  69.198  1.00  0.00    -0.129 NA 
BRANCH   9  10
HETATM   10  C   UNL     1      -8.234   5.660  70.189  1.00  0.00    -0.114 C  
BRANCH  10  11
HETATM   11  C   UNL     1      -8.471   4.129  70.241  1.00  0.00    -0.068 C  
BRANCH  11  12
HETATM   12  N   UNL     1      -7.318   3.255  70.030  1.00  0.00    -0.041 NA 
HETATM   13  H   UNL     1      -7.032   2.837  70.916  1.00  0.00     0.000 HD 
BRANCH  12  14
HETATM   14  C   UNL     1      -7.488   2.213  69.019  1.00  0.00    -0.043 C  
HETATM   15  C   UNL     1      -8.918   2.117  68.481  1.00  0.00    -0.174 C  
HETATM   16  C   UNL     1      -6.535   2.537  67.864  1.00  0.00    -0.032 C  
ENDBRANCH  12  14
ENDBRANCH  11  12
ENDBRANCH  10  11
ENDBRANCH   9  10
BRANCH   9  17
HETATM   17  C   UNL     1     -10.197   7.057  69.799  1.00  0.00    -0.201 A  
HETATM   18  C   UNL     1     -12.650  10.891  71.311  1.00  0.00    -0.421 A  
HETATM   19  C   UNL     1     -11.227   6.283  70.341  1.00  0.00    -0.439 A  
HETATM   20  C   UNL     1     -13.530  10.054  71.977  1.00  0.00    -0.347 A  
HETATM   21  N   UNL     1     -11.606  10.387  70.602  1.00  0.00    -0.329 NA 
HETATM   22  C   UNL     1     -11.470   9.042  70.565  1.00  0.00    -0.212 A  
HETATM   23  C   UNL     1     -12.271   6.843  71.089  1.00  0.00    -0.428 A  
HETATM   24  C   UNL     1     -12.402   8.208  71.218  1.00  0.00    -0.265 A  
HETATM   25  C   UNL     1     -10.389   8.454  69.893  1.00  0.00    -0.210 A  
HETATM   26  N   UNL     1     -13.428   8.705  71.936  1.00  0.00    -0.375 NA 
BRANCH  18  27
HETATM   27  C   UNL     1     -12.783  12.335  71.314  1.00  0.00    -0.351 A  
HETATM   28  N   UNL     1     -13.379  14.399  71.785  1.00  0.00    -0.342 NA 
HETATM   29  C   UNL     1     -13.562  13.098  72.161  1.00  0.00    -0.544 A  
HETATM   30  C   UNL     1     -13.987  15.568  72.369  1.00  0.00    -0.560 C  
HETATM   31  N   UNL     1     -12.537  14.542  70.745  1.00  0.00    -0.331 NA 
HETATM   32  C   UNL     1     -12.177  13.286  70.461  1.00  0.00    -0.340 A  
ENDBRANCH  18  27
ENDBRANCH   9  17
ENDBRANCH   5   9
BRANCH   8  33
HETATM   33  O   UNL     1     -10.556   4.094  65.314  1.00  0.00    -0.204 OA 
HETATM   34  C   UNL     1     -10.534   3.759  63.934  1.00  0.00    -0.256 C  
ENDBRANCH   8  33
ENDBRANCH   2   3
TORSDOF 9
ENDMDL
MODEL      146
REMARK 921   NORMALIZED FREE ENERGY PREDICTED BY IDOCK:   -5.07 KCAL/MOL
REMARK 922        TOTAL FREE ENERGY PREDICTED BY IDOCK:   -8.91 KCAL/MOL
REMARK 923 INTER-LIGAND FREE ENERGY PREDICTED BY IDOCK:   -8.04 KCAL/MOL
REMARK 924 INTRA-LIGAND FREE ENERGY PREDICTED BY IDOCK:   -0.87 KCAL/MOL
REMARK 927      BINDING AFFINITY PREDICTED BY RF-SCORE:    0.00 PKD
ROOT
HETATM    1  C   UNL     1     -13.036  13.420  64.942  1.00  0.00    -0.109 C  
HETATM    2  O   UNL     1     -12.383  14.630  64.538  1.00  0.00    -0.511 OA 
ENDROOT
BRANCH   2   3
HETATM    3  C   UNL     1     -11.216  14.889  65.218  1.00  0.00    -0.369 A  
HETATM    4  C   UNL     1     -10.624  13.806  65.907  1.00  0.00    -0.289 A  
HETATM    5  C   UNL     1      -9.364  13.903  66.529  1.00  0.00    -0.247 A  
HETATM    6  C   UNL     1      -8.819  15.200  66.504  1.00  0.00    -0.312 A  
HETATM    7  C   UNL     1     -10.635  16.152  65.258  1.00  0.00    -0.390 A  
HETATM    8  C   UNL     1      -9.432  16.311  65.912  1.00  0.00    -0.283 A  
BRANCH   5   9
HETATM    9  N   UNL     1      -8.666  12.804  67.134  1.00  0.00    -0.197 NA 
BRANCH   9  10
HETATM   10  C   UNL     1      -7.169  12.821  67.182  1.00  0.00    -0.004 C  
BRANCH  10  11
HETATM   11  C   UNL     1      -6.485  13.716  68.247  1.00  0.00    -0.109 C  
BRANCH  11  12
HETATM   12  N   UNL     1      -7.177  13.905  69.522  1.00  0.00    -0.328 NA 
HETATM   13  H   UNL     1      -7.503  13.006  69.877  1.00  0.00     0.000 HD 
BRANCH  12  14
HETATM   14  C   UNL     1      -6.419  14.606  70.557  1.00  0.00    -0.053 C  
HETATM   15  C   UNL     1      -5.356  13.732  71.228  1.00  0.00    -0.191 C  
HETATM   16  C   UNL     1      -5.738  15.806  69.891  1.00  0.00    -0.145 C  
ENDBRANCH  12  14
ENDBRANCH  11  12
ENDBRANCH  10  11
ENDBRANCH   9  10
BRANCH   9  17
HETATM   17  C   UNL     1      -9.195  11.461  67.257  1.00  0.00    -0.165 A  
HETATM   18  C   UNL     1     -10.293   7.610  69.897  1.00  0.00    -0.225 A  
HETATM   19  C   UNL     1      -9.565  10.704  66.142  1.00  0.00    -0.232 A  
HETATM   20  C   UNL     1     -10.466   6.874  68.736  1.00  0.00    -0.205 A  
HETATM   21  N   UNL     1      -9.941   8.921  69.848  1.00  0.00    -0.183 NA 
HETATM   22  C   UNL     1      -9.777   9.477  68.626  1.00  0.00    -0.155 A  
HETATM   23  C   UNL     1      -9.895   9.346  66.235  1.00  0.00    -0.351 A  
HETATM   24  C   UNL     1      -9.997   8.719  67.458  1.00  0.00    -0.198 A  
HETATM   25  C   UNL     1      -9.367  10.813  68.502  1.00  0.00    -0.174 A  
HETATM   26  N   UNL     1     -10.329   7.414  67.502  1.00  0.00    -0.226 NA 
BRANCH  18  27
HETATM   27  C   UNL     1     -10.484   7.048  71.219  1.00  0.00    -0.224 A  
HETATM   28  N   UNL     1     -10.900   5.682  72.893  1.00  0.00    -0.245 NA 
HETATM   29  C   UNL     1     -10.822   5.745  71.530  1.00  0.00    -0.253 A  
HETATM   30  C   UNL     1     -11.229   4.530  73.694  1.00  0.00    -0.264 C  
HETATM   31  N   UNL     1     -10.642   6.855  73.499  1.00  0.00    -0.337 NA 
HETATM   32  C   UNL     1     -10.390   7.683  72.479  1.00  0.00    -0.255 A  
ENDBRANCH  18  27
ENDBRANCH   9  17
ENDBRANCH   5   9
BRANCH   8  33
HETATM   33  O   UNL     1      -8.727  17.477  66.038  1.00  0.00    -0.497 OA 
HETATM   34  C   UNL     1      -7.330  17.367  66.269  1.00  0.00    -0.312 C  
ENDBRANCH   8  33
ENDBRANCH   2   3
TORSDOF 9
ENDMDL
MODEL      147
REMARK 921   NORMALIZED FREE ENERGY PREDICTED BY IDOCK:   -5.06 KCAL/MOL
REMARK 922        TOTAL FREE ENERGY PREDICTED BY IDOCK:   -8.90 KCAL/MOL
REMARK 923 INTER-LIGAND FREE ENERGY PREDICTED BY IDOCK:   -8.56 KCAL/MOL
REMARK 924 INTRA-LIGAND FREE ENERGY PREDICTED BY IDOCK:   -0.33 KCAL/MOL
REMARK 927      BINDING AFFINITY PREDICTED BY RF-SCORE:    0.00 PKD
ROOT
HETATM    1  C   UNL     1     -12.256  14.906  64.412  1.00  0.00    -0.381 C  
HETATM    2  O   UNL     1     -12.705  13.573  64.138  1.00  0.00    -0.650 OA 
ENDROOT
BRANCH   2   3
HETATM    3  C   UNL     1     -11.733  12.613  64.297  1.00  0.00    -0.381 A  
HETATM    4  C   UNL     1     -11.343  12.312  65.622  1.00  0.00    -0.394 A  
HETATM    5  C   UNL     1     -10.458  11.259  65.930  1.00  0.00    -0.259 A  
HETATM    6  C   UNL     1      -9.915  10.627  64.797  1.00  0.00    -0.391 A  
HETATM    7  C   UNL     1     -11.134  11.966  63.222  1.00  0.00    -0.390 A  
HETATM    8  C   UNL     1     -10.212  10.971  63.472  1.00  0.00    -0.365 A  
BRANCH   5   9
HETATM    9  N   UNL     1     -10.126  10.837  67.261  1.00  0.00    -0.190 NA 
BRANCH   9  10
HETATM   10  C   UNL     1      -9.708  11.859  68.274  1.00  0.00    -0.200 C  
BRANCH  10  11
HETATM   11  C   UNL     1     -10.766  12.886  68.752  1.00  0.00    -0.218 C  
BRANCH  11  12
HETATM   12  N   UNL     1     -10.286  14.170  69.261  1.00  0.00    -0.431 NA 
HETATM   13  H   UNL     1      -9.628  14.583  68.600  1.00  0.00     0.000 HD 
BRANCH  12  14
HETATM   14  C   UNL     1     -11.322  15.141  69.609  1.00  0.00    -0.283 C  
HETATM   15  C   UNL     1     -11.190  15.687  71.033  1.00  0.00    -0.411 C  
HETATM   16  C   UNL     1     -11.213  16.300  68.612  1.00  0.00    -0.354 C  
ENDBRANCH  12  14
ENDBRANCH  11  12
ENDBRANCH  10  11
ENDBRANCH   9  10
BRANCH   9  17
HETATM   17  C   UNL     1      -9.666   9.509  67.613  1.00  0.00    -0.154 A  
HETATM   18  C   UNL     1      -9.661   5.709  70.540  1.00  0.00    -0.174 A  
HETATM   19  C   UNL     1      -8.658   8.859  66.896  1.00  0.00    -0.121 A  
HETATM   20  C   UNL     1      -8.543   5.218  69.886  1.00  0.00    -0.102 A  
HETATM   21  N   UNL     1     -10.234   6.881  70.161  1.00  0.00    -0.190 NA 
HETATM   22  C   UNL     1      -9.677   7.539  69.119  1.00  0.00    -0.166 A  
HETATM   23  C   UNL     1      -8.077   7.663  67.338  1.00  0.00    -0.119 A  
HETATM   24  C   UNL     1      -8.563   6.999  68.443  1.00  0.00    -0.126 A  
HETATM   25  C   UNL     1     -10.187   8.779  68.705  1.00  0.00    -0.224 A  
HETATM   26  N   UNL     1      -7.982   5.847  68.826  1.00  0.00    -0.101 NA 
BRANCH  18  27
HETATM   27  C   UNL     1     -10.293   5.016  71.645  1.00  0.00    -0.262 A  
HETATM   28  N   UNL     1     -10.878   3.502  73.130  1.00  0.00    -0.172 NA 
HETATM   29  C   UNL     1     -10.045   3.725  72.070  1.00  0.00    -0.139 A  
HETATM   30  C   UNL     1     -10.993   2.295  73.909  1.00  0.00    -0.183 C  
HETATM   31  N   UNL     1     -11.660   4.556  73.427  1.00  0.00    -0.250 NA 
HETATM   32  C   UNL     1     -11.303   5.474  72.523  1.00  0.00    -0.265 A  
ENDBRANCH  18  27
ENDBRANCH   9  17
ENDBRANCH   5   9
BRANCH   8  33
HETATM   33  O   UNL     1      -9.539  10.236  62.535  1.00  0.00    -0.302 OA 
HETATM   34  C   UNL     1      -8.544   9.340  63.007  1.00  0.00    -0.214 C  
ENDBRANCH   8  33
ENDBRANCH   2   3
TORSDOF 9
ENDMDL
MODEL      148
REMARK 921   NORMALIZED FREE ENERGY PREDICTED BY IDOCK:   -5.06 KCAL/MOL
REMARK 922        TOTAL FREE ENERGY PREDICTED BY IDOCK:   -8.90 KCAL/MOL
REMARK 923 INTER-LIGAND FREE ENERGY PREDICTED BY IDOCK:   -7.41 KCAL/MOL
REMARK 924 INTRA-LIGAND FREE ENERGY PREDICTED BY IDOCK:   -1.48 KCAL/MOL
REMARK 927      BINDING AFFINITY PREDICTED BY RF-SCORE:    0.00 PKD
ROOT
HETATM    1  C   UNL     1     -12.345  13.031  64.068  1.00  0.00    -0.363 C  
HETATM    2  O   UNL     1     -12.742  12.659  65.394  1.00  0.00    -0.635 OA 
ENDROOT
BRANCH   2   3
HETATM    3  C   UNL     1     -11.900  13.120  66.379  1.00  0.00    -0.400 A  
HETATM    4  C   UNL     1     -11.217  12.146  67.142  1.00  0.00    -0.372 A  
HETATM    5  C   UNL     1     -10.228  12.483  68.088  1.00  0.00    -0.231 A  
HETATM    6  C   UNL     1     -10.080  13.868  68.283  1.00  0.00    -0.241 A  
HETATM    7  C   UNL     1     -11.725  14.474  66.643  1.00  0.00    -0.384 A  
HETATM    8  C   UNL     1     -10.814  14.851  67.607  1.00  0.00    -0.286 A  
BRANCH   5   9
HETATM    9  N   UNL     1      -9.423  11.531  68.799  1.00  0.00    -0.141 NA 
BRANCH   9  10
HETATM   10  C   UNL     1      -7.955  11.447  68.507  1.00  0.00    -0.143 C  
BRANCH  10  11
HETATM   11  C   UNL     1      -7.507  11.448  67.023  1.00  0.00    -0.147 C  
BRANCH  11  12
HETATM   12  N   UNL     1      -8.101  10.451  66.134  1.00  0.00    -0.133 NA 
HETATM   13  H   UNL     1      -8.764  10.899  65.501  1.00  0.00     0.000 HD 
BRANCH  12  14
HETATM   14  C   UNL     1      -7.155   9.638  65.371  1.00  0.00    -0.100 C  
HETATM   15  C   UNL     1      -5.994  10.447  64.786  1.00  0.00    -0.118 C  
HETATM   16  C   UNL     1      -6.599   8.572  66.322  1.00  0.00    -0.061 C  
ENDBRANCH  12  14
ENDBRANCH  11  12
ENDBRANCH  10  11
ENDBRANCH   9  10
BRANCH   9  17
HETATM   17  C   UNL     1      -9.924  10.311  69.397  1.00  0.00    -0.233 A  
HETATM   18  C   UNL     1     -10.187   5.525  69.573  1.00  0.00    -0.261 A  
HETATM   19  C   UNL     1     -10.888  10.322  70.410  1.00  0.00    -0.320 A  
HETATM   20  C   UNL     1     -11.263   5.625  70.440  1.00  0.00    -0.016 A  
HETATM   21  N   UNL     1      -9.573   6.636  69.089  1.00  0.00    -0.136 NA 
HETATM   22  C   UNL     1     -10.046   7.836  69.496  1.00  0.00    -0.194 A  
HETATM   23  C   UNL     1     -11.515   9.153  70.860  1.00  0.00    -0.357 A  
HETATM   24  C   UNL     1     -11.117   7.912  70.411  1.00  0.00    -0.245 A  
HETATM   25  C   UNL     1      -9.492   9.025  69.000  1.00  0.00    -0.155 A  
HETATM   26  N   UNL     1     -11.739   6.813  70.879  1.00  0.00    -0.354 NA 
BRANCH  18  27
HETATM   27  C   UNL     1      -9.644   4.253  69.137  1.00  0.00    -0.249 A  
HETATM   28  N   UNL     1      -8.779   2.629  67.933  1.00  0.00    -0.098 NA 
HETATM   29  C   UNL     1      -9.181   3.934  67.875  1.00  0.00    -0.165 A  
HETATM   30  C   UNL     1      -8.224   1.840  66.861  1.00  0.00    -0.077 C  
HETATM   31  N   UNL     1      -8.951   2.068  69.144  1.00  0.00    -0.093 NA 
HETATM   32  C   UNL     1      -9.478   3.057  69.873  1.00  0.00    -0.119 A  
ENDBRANCH  18  27
ENDBRANCH   9  17
ENDBRANCH   5   9
BRANCH   8  33
HETATM   33  O   UNL     1     -10.518  16.133  67.983  1.00  0.00    -0.262 OA 
HETATM   34  C   UNL     1     -10.900  16.528  69.293  1.00  0.00    -0.326 C  
ENDBRANCH   8  33
ENDBRANCH   2   3
TORSDOF 9
ENDMDL
MODEL      149
REMARK 921   NORMALIZED FREE ENERGY PREDICTED BY IDOCK:   -5.05 KCAL/MOL
REMARK 922        TOTAL FREE ENERGY PREDICTED BY IDOCK:   -8.87 KCAL/MOL
REMARK 923 INTER-LIGAND FREE ENERGY PREDICTED BY IDOCK:   -8.08 KCAL/MOL
REMARK 924 INTRA-LIGAND FREE ENERGY PREDICTED BY IDOCK:   -0.80 KCAL/MOL
REMARK 927      BINDING AFFINITY PREDICTED BY RF-SCORE:    0.00 PKD
ROOT
HETATM    1  C   UNL     1     -12.243  14.049  64.044  1.00  0.00    -0.355 C  
HETATM    2  O   UNL     1     -11.217  14.739  64.769  1.00  0.00    -0.381 OA 
ENDROOT
BRANCH   2   3
HETATM    3  C   UNL     1     -11.133  14.381  66.094  1.00  0.00    -0.330 A  
HETATM    4  C   UNL     1     -11.558  13.075  66.431  1.00  0.00    -0.413 A  
HETATM    5  C   UNL     1     -11.400  12.538  67.725  1.00  0.00    -0.296 A  
HETATM    6  C   UNL     1     -10.899  13.460  68.662  1.00  0.00    -0.287 A  
HETATM    7  C   UNL     1     -10.672  15.248  67.078  1.00  0.00    -0.313 A  
HETATM    8  C   UNL     1     -10.561  14.788  68.373  1.00  0.00    -0.242 A  
BRANCH   5   9
HETATM    9  N   UNL     1     -11.701  11.182  68.087  1.00  0.00    -0.547 NA 
BRANCH   9  10
HETATM   10  C   UNL     1     -12.406  10.907  69.380  1.00  0.00    -0.118 C  
BRANCH  10  11
HETATM   11  C   UNL     1     -11.540  10.669  70.644  1.00  0.00    -0.336 C  
BRANCH  11  12
HETATM   12  N   UNL     1     -12.058   9.754  71.660  1.00  0.00    -0.398 NA 
HETATM   13  H   UNL     1     -12.857   9.239  71.290  1.00  0.00     0.000 HD 
BRANCH  12  14
HETATM   14  C   UNL     1     -11.085   8.822  72.229  1.00  0.00    -0.270 C  
HETATM   15  C   UNL     1     -11.463   7.352  72.031  1.00  0.00    -0.310 C  
HETATM   16  C   UNL     1      -9.740   9.094  71.547  1.00  0.00    -0.313 C  
ENDBRANCH  12  14
ENDBRANCH  11  12
ENDBRANCH  10  11
ENDBRANCH   9  10
BRANCH   9  17
HETATM   17  C   UNL     1     -10.979  10.022  67.608  1.00  0.00    -0.234 A  
HETATM   18  C   UNL     1      -9.428   5.518  68.172  1.00  0.00    -0.114 A  
HETATM   19  C   UNL     1     -10.224  10.050  66.431  1.00  0.00    -0.290 A  
HETATM   20  C   UNL     1      -8.569   5.689  67.098  1.00  0.00    -0.109 A  
HETATM   21  N   UNL     1     -10.245   6.524  68.581  1.00  0.00    -0.160 NA 
HETATM   22  C   UNL     1     -10.192   7.688  67.894  1.00  0.00    -0.198 A  
HETATM   23  C   UNL     1      -9.374   9.000  66.062  1.00  0.00    -0.305 A  
HETATM   24  C   UNL     1      -9.338   7.825  66.779  1.00  0.00    -0.180 A  
HETATM   25  C   UNL     1     -10.971   8.784  68.291  1.00  0.00     0.097 A  
HETATM   26  N   UNL     1      -8.515   6.836  66.382  1.00  0.00    -0.120 NA 
BRANCH  18  27
HETATM   27  C   UNL     1      -9.523   4.276  68.912  1.00  0.00    -0.236 A  
HETATM   28  N   UNL     1      -9.761   2.784  70.511  1.00  0.00    -0.081 NA 
HETATM   29  C   UNL     1      -9.774   4.128  70.263  1.00  0.00    -0.207 A  
HETATM   30  C   UNL     1      -9.968   2.131  71.780  1.00  0.00    -0.139 C  
HETATM   31  N   UNL     1      -9.514   2.039  69.418  1.00  0.00    -0.091 NA 
HETATM   32  C   UNL     1      -9.369   2.949  68.448  1.00  0.00    -0.192 A  
ENDBRANCH  18  27
ENDBRANCH   9  17
ENDBRANCH   5   9
BRANCH   8  33
HETATM   33  O   UNL     1     -10.122  15.504  69.453  1.00  0.00    -0.230 OA 
HETATM   34  C   UNL     1     -11.110  16.038  70.321  1.00  0.00    -0.374 C  
ENDBRANCH   8  33
ENDBRANCH   2   3
TORSDOF 9
ENDMDL
MODEL      150
REMARK 921   NORMALIZED FREE ENERGY PREDICTED BY IDOCK:   -5.04 KCAL/MOL
REMARK 922        TOTAL FREE ENERGY PREDICTED BY IDOCK:   -8.87 KCAL/MOL
REMARK 923 INTER-LIGAND FREE ENERGY PREDICTED BY IDOCK:   -7.59 KCAL/MOL
REMARK 924 INTRA-LIGAND FREE ENERGY PREDICTED BY IDOCK:   -1.28 KCAL/MOL
REMARK 927      BINDING AFFINITY PREDICTED BY RF-SCORE:    0.00 PKD
ROOT
HETATM    1  C   UNL     1      -9.111   2.584  67.762  1.00  0.00    -0.187 C  
HETATM    2  O   UNL     1      -9.681   3.896  67.673  1.00  0.00    -0.179 OA 
ENDROOT
BRANCH   2   3
HETATM    3  C   UNL     1      -9.229   4.629  66.600  1.00  0.00    -0.129 A  
HETATM    4  C   UNL     1      -9.110   6.026  66.786  1.00  0.00    -0.134 A  
HETATM    5  C   UNL     1      -8.536   6.872  65.816  1.00  0.00    -0.146 A  
HETATM    6  C   UNL     1      -8.211   6.216  64.615  1.00  0.00    -0.094 A  
HETATM    7  C   UNL     1      -8.914   4.051  65.375  1.00  0.00    -0.132 A  
HETATM    8  C   UNL     1      -8.409   4.851  64.372  1.00  0.00    -0.133 A  
BRANCH   5   9
HETATM    9  N   UNL     1      -8.282   8.272  66.004  1.00  0.00    -0.112 NA 
BRANCH   9  10
HETATM   10  C   UNL     1      -6.892   8.730  66.327  1.00  0.00    -0.074 C  
BRANCH  10  11
HETATM   11  C   UNL     1      -6.572   9.104  67.797  1.00  0.00    -0.060 C  
BRANCH  11  12
HETATM   12  N   UNL     1      -6.578   8.029  68.789  1.00  0.00    -0.048 NA 
HETATM   13  H   UNL     1      -5.647   7.920  69.189  1.00  0.00     0.000 HD 
BRANCH  12  14
HETATM   14  C   UNL     1      -7.569   8.157  69.856  1.00  0.00    -0.089 C  
HETATM   15  C   UNL     1      -7.064   7.667  71.215  1.00  0.00    -0.054 C  
HETATM   16  C   UNL     1      -7.939   9.640  69.960  1.00  0.00    -0.182 C  
ENDBRANCH  12  14
ENDBRANCH  11  12
ENDBRANCH  10  11
ENDBRANCH   9  10
BRANCH   9  17
HETATM   17  C   UNL     1      -9.277   9.242  66.410  1.00  0.00    -0.180 A  
HETATM   18  C   UNL     1     -10.992  13.721  66.467  1.00  0.00    -0.299 A  
HETATM   19  C   UNL     1     -10.311   8.920  67.295  1.00  0.00    -0.350 A  
HETATM   20  C   UNL     1     -11.869  13.363  67.478  1.00  0.00    -0.366 A  
HETATM   21  N   UNL     1     -10.130  12.815  65.936  1.00  0.00    -0.274 NA 
HETATM   22  C   UNL     1     -10.171  11.555  66.424  1.00  0.00    -0.224 A  
HETATM   23  C   UNL     1     -11.161   9.891  67.839  1.00  0.00    -0.216 A  
HETATM   24  C   UNL     1     -11.100  11.204  67.426  1.00  0.00    -0.307 A  
HETATM   25  C   UNL     1      -9.276  10.581  65.957  1.00  0.00    -0.205 A  
HETATM   26  N   UNL     1     -11.944  12.103  67.967  1.00  0.00    -0.492 NA 
BRANCH  18  27
HETATM   27  C   UNL     1     -10.941  15.057  65.907  1.00  0.00    -0.343 A  
HETATM   28  N   UNL     1     -10.660  17.221  65.632  1.00  0.00    -0.532 NA 
HETATM   29  C   UNL     1     -10.524  16.211  66.542  1.00  0.00    -0.297 A  
HETATM   30  C   UNL     1     -10.356  18.617  65.828  1.00  0.00    -0.198 C  
HETATM   31  N   UNL     1     -11.141  16.812  64.445  1.00  0.00    -1.072 NA 
HETATM   32  C   UNL     1     -11.312  15.496  64.615  1.00  0.00    -0.357 A  
ENDBRANCH  18  27
ENDBRANCH   9  17
ENDBRANCH   5   9
BRANCH   8  33
HETATM   33  O   UNL     1      -8.044   4.443  63.118  1.00  0.00    -0.078 OA 
HETATM   34  C   UNL     1      -7.150   3.344  63.029  1.00  0.00    -0.048 C  
ENDBRANCH   8  33
ENDBRANCH   2   3
TORSDOF 9
ENDMDL
MODEL      151
REMARK 921   NORMALIZED FREE ENERGY PREDICTED BY IDOCK:   -5.04 KCAL/MOL
REMARK 922        TOTAL FREE ENERGY PREDICTED BY IDOCK:   -8.86 KCAL/MOL
REMARK 923 INTER-LIGAND FREE ENERGY PREDICTED BY IDOCK:   -7.43 KCAL/MOL
REMARK 924 INTRA-LIGAND FREE ENERGY PREDICTED BY IDOCK:   -1.44 KCAL/MOL
REMARK 927      BINDING AFFINITY PREDICTED BY RF-SCORE:    0.00 PKD
ROOT
HETATM    1  C   UNL     1     -12.197  13.842  63.721  1.00  0.00    -0.311 C  
HETATM    2  O   UNL     1     -11.923  12.573  63.113  1.00  0.00    -0.450 OA 
ENDROOT
BRANCH   2   3
HETATM    3  C   UNL     1     -10.998  11.816  63.793  1.00  0.00    -0.429 A  
HETATM    4  C   UNL     1     -10.889  12.038  65.185  1.00  0.00    -0.347 A  
HETATM    5  C   UNL     1     -10.080  11.240  66.018  1.00  0.00    -0.239 A  
HETATM    6  C   UNL     1      -9.308  10.295  65.319  1.00  0.00    -0.267 A  
HETATM    7  C   UNL     1     -10.183  10.881  63.162  1.00  0.00    -0.253 A  
HETATM    8  C   UNL     1      -9.327  10.120  63.929  1.00  0.00    -0.287 A  
BRANCH   5   9
HETATM    9  N   UNL     1     -10.029  11.347  67.448  1.00  0.00    -0.185 NA 
BRANCH   9  10
HETATM   10  C   UNL     1     -11.301  11.270  68.237  1.00  0.00    -0.289 C  
BRANCH  10  11
HETATM   11  C   UNL     1     -11.459  10.110  69.253  1.00  0.00    -0.108 C  
BRANCH  11  12
HETATM   12  N   UNL     1     -10.680   8.894  69.021  1.00  0.00    -0.378 NA 
HETATM   13  H   UNL     1      -9.810   9.124  68.541  1.00  0.00     0.000 HD 
BRANCH  12  14
HETATM   14  C   UNL     1     -10.396   8.087  70.207  1.00  0.00    -0.212 C  
HETATM   15  C   UNL     1      -9.321   7.023  69.975  1.00  0.00    -0.158 C  
HETATM   16  C   UNL     1      -9.931   9.044  71.310  1.00  0.00    -0.381 C  
ENDBRANCH  12  14
ENDBRANCH  11  12
ENDBRANCH  10  11
ENDBRANCH   9  10
BRANCH   9  17
HETATM   17  C   UNL     1      -8.975  12.011  68.187  1.00  0.00    -0.190 A  
HETATM   18  C   UNL     1      -6.548  15.968  69.392  1.00  0.00    -0.182 A  
HETATM   19  C   UNL     1      -8.035  11.301  68.940  1.00  0.00    -0.104 A  
HETATM   20  C   UNL     1      -5.562  15.179  69.962  1.00  0.00    -0.124 A  
HETATM   21  N   UNL     1      -7.641  15.410  68.811  1.00  0.00    -0.133 NA 
HETATM   22  C   UNL     1      -7.732  14.060  68.821  1.00  0.00    -0.112 A  
HETATM   23  C   UNL     1      -6.907  11.914  69.500  1.00  0.00    -0.004 A  
HETATM   24  C   UNL     1      -6.735  13.280  69.444  1.00  0.00    -0.032 A  
HETATM   25  C   UNL     1      -8.809  13.414  68.197  1.00  0.00    -0.180 A  
HETATM   26  N   UNL     1      -5.642  13.829  70.005  1.00  0.00    -0.108 NA 
BRANCH  18  27
HETATM   27  C   UNL     1      -6.489  17.417  69.385  1.00  0.00    -0.233 A  
HETATM   28  N   UNL     1      -5.886  19.507  69.710  1.00  0.00    -0.252 NA 
HETATM   29  C   UNL     1      -5.521  18.214  69.964  1.00  0.00    -0.234 A  
HETATM   30  C   UNL     1      -5.193  20.703  70.118  1.00  0.00    -0.326 C  
HETATM   31  N   UNL     1      -7.030  19.613  69.009  1.00  0.00    -0.347 NA 
HETATM   32  C   UNL     1      -7.394  18.342  68.814  1.00  0.00    -0.284 A  
ENDBRANCH  18  27
ENDBRANCH   9  17
ENDBRANCH   5   9
BRANCH   8  33
HETATM   33  O   UNL     1      -8.468   9.158  63.471  1.00  0.00    -0.188 OA 
HETATM   34  C   UNL     1      -7.100   9.517  63.347  1.00  0.00    -0.101 C  
ENDBRANCH   8  33
ENDBRANCH   2   3
TORSDOF 9
ENDMDL
MODEL      152
REMARK 921   NORMALIZED FREE ENERGY PREDICTED BY IDOCK:   -5.02 KCAL/MOL
REMARK 922        TOTAL FREE ENERGY PREDICTED BY IDOCK:   -8.83 KCAL/MOL
REMARK 923 INTER-LIGAND FREE ENERGY PREDICTED BY IDOCK:   -7.42 KCAL/MOL
REMARK 924 INTRA-LIGAND FREE ENERGY PREDICTED BY IDOCK:   -1.42 KCAL/MOL
REMARK 927      BINDING AFFINITY PREDICTED BY RF-SCORE:    0.00 PKD
ROOT
HETATM    1  C   UNL     1     -12.499  14.198  63.963  1.00  0.00    -0.163 C  
HETATM    2  O   UNL     1     -12.934  13.720  65.242  1.00  0.00    -0.731 OA 
ENDROOT
BRANCH   2   3
HETATM    3  C   UNL     1     -11.965  13.771  66.216  1.00  0.00    -0.429 A  
HETATM    4  C   UNL     1     -11.218  12.591  66.436  1.00  0.00    -0.353 A  
HETATM    5  C   UNL     1     -10.111  12.546  67.307  1.00  0.00    -0.213 A  
HETATM    6  C   UNL     1      -9.903  13.742  68.018  1.00  0.00    -0.239 A  
HETATM    7  C   UNL     1     -11.722  14.910  66.975  1.00  0.00    -0.274 A  
HETATM    8  C   UNL     1     -10.688  14.895  67.888  1.00  0.00    -0.265 A  
BRANCH   5   9
HETATM    9  N   UNL     1      -9.249  11.411  67.472  1.00  0.00    -0.159 NA 
BRANCH   9  10
HETATM   10  C   UNL     1      -8.194  11.133  66.445  1.00  0.00    -0.164 C  
BRANCH  10  11
HETATM   11  C   UNL     1      -6.711  11.330  66.854  1.00  0.00    -0.135 C  
BRANCH  11  12
HETATM   12  N   UNL     1      -6.155  12.680  66.762  1.00  0.00    -0.421 NA 
HETATM   13  H   UNL     1      -6.853  13.319  66.382  1.00  0.00     0.000 HD 
BRANCH  12  14
HETATM   14  C   UNL     1      -5.604  13.223  68.002  1.00  0.00    -0.113 C  
HETATM   15  C   UNL     1      -6.324  14.485  68.485  1.00  0.00    -0.088 C  
HETATM   16  C   UNL     1      -5.724  12.133  69.072  1.00  0.00    -0.062 C  
ENDBRANCH  12  14
ENDBRANCH  11  12
ENDBRANCH  10  11
ENDBRANCH   9  10
BRANCH   9  17
HETATM   17  C   UNL     1      -9.586  10.225  68.233  1.00  0.00    -0.142 A  
HETATM   18  C   UNL     1      -9.924   5.459  68.644  1.00  0.00    -0.170 A  
HETATM   19  C   UNL     1     -10.204  10.298  69.485  1.00  0.00    -0.261 A  
HETATM   20  C   UNL     1     -10.690   5.620  69.787  1.00  0.00    -0.331 A  
HETATM   21  N   UNL     1      -9.449   6.534  67.962  1.00  0.00    -0.121 NA 
HETATM   22  C   UNL     1      -9.745   7.760  68.450  1.00  0.00    -0.159 A  
HETATM   23  C   UNL     1     -10.703   9.165  70.140  1.00  0.00    -0.263 A  
HETATM   24  C   UNL     1     -10.493   7.899  69.637  1.00  0.00    -0.226 A  
HETATM   25  C   UNL     1      -9.329   8.915  67.771  1.00  0.00    -0.157 A  
HETATM   26  N   UNL     1     -10.980   6.837  70.306  1.00  0.00    -0.271 NA 
BRANCH  18  27
HETATM   27  C   UNL     1      -9.573   4.157  68.111  1.00  0.00    -0.195 A  
HETATM   28  N   UNL     1      -9.129   2.478  66.761  1.00  0.00    -0.138 NA 
HETATM   29  C   UNL     1      -9.474   3.801  66.780  1.00  0.00    -0.194 A  
HETATM   30  C   UNL     1      -8.914   1.651  65.600  1.00  0.00    -0.110 C  
HETATM   31  N   UNL     1      -8.999   1.941  67.987  1.00  0.00    -0.121 NA 
HETATM   32  C   UNL     1      -9.269   2.963  68.805  1.00  0.00    -0.168 A  
ENDBRANCH  18  27
ENDBRANCH   9  17
ENDBRANCH   5   9
BRANCH   8  33
HETATM   33  O   UNL     1     -10.314  15.926  68.705  1.00  0.00    -0.217 OA 
HETATM   34  C   UNL     1     -10.966  16.027  69.962  1.00  0.00    -0.365 C  
ENDBRANCH   8  33
ENDBRANCH   2   3
TORSDOF 9
ENDMDL
MODEL      153
REMARK 921   NORMALIZED FREE ENERGY PREDICTED BY IDOCK:   -5.02 KCAL/MOL
REMARK 922        TOTAL FREE ENERGY PREDICTED BY IDOCK:   -8.83 KCAL/MOL
REMARK 923 INTER-LIGAND FREE ENERGY PREDICTED BY IDOCK:   -8.50 KCAL/MOL
REMARK 924 INTRA-LIGAND FREE ENERGY PREDICTED BY IDOCK:   -0.33 KCAL/MOL
REMARK 927      BINDING AFFINITY PREDICTED BY RF-SCORE:    0.00 PKD
ROOT
HETATM    1  C   UNL     1     -12.532  15.029  64.214  1.00  0.00    -0.107 C  
HETATM    2  O   UNL     1     -12.408  13.773  63.534  1.00  0.00    -0.706 OA 
ENDROOT
BRANCH   2   3
HETATM    3  C   UNL     1     -11.618  12.858  64.191  1.00  0.00    -0.398 A  
HETATM    4  C   UNL     1     -11.895  12.642  65.560  1.00  0.00    -0.479 A  
HETATM    5  C   UNL     1     -11.252  11.640  66.313  1.00  0.00    -0.271 A  
HETATM    6  C   UNL     1     -10.235  10.968  65.609  1.00  0.00    -0.318 A  
HETATM    7  C   UNL     1     -10.580  12.177  63.565  1.00  0.00    -0.501 A  
HETATM    8  C   UNL     1      -9.878  11.230  64.281  1.00  0.00    -0.273 A  
BRANCH   5   9
HETATM    9  N   UNL     1     -11.581  11.301  67.668  1.00  0.00    -0.551 NA 
BRANCH   9  10
HETATM   10  C   UNL     1     -12.013  12.382  68.612  1.00  0.00    -0.225 C  
BRANCH  10  11
HETATM   11  C   UNL     1     -11.043  13.567  68.854  1.00  0.00    -0.267 C  
BRANCH  11  12
HETATM   12  N   UNL     1     -11.370  14.503  69.929  1.00  0.00    -0.318 NA 
HETATM   13  H   UNL     1     -11.265  15.462  69.599  1.00  0.00     0.000 HD 
BRANCH  12  14
HETATM   14  C   UNL     1     -12.684  14.327  70.545  1.00  0.00    -0.328 C  
HETATM   15  C   UNL     1     -12.690  13.300  71.680  1.00  0.00    -0.327 C  
HETATM   16  C   UNL     1     -13.116  15.690  71.095  1.00  0.00    -0.523 C  
ENDBRANCH  12  14
ENDBRANCH  11  12
ENDBRANCH  10  11
ENDBRANCH   9  10
BRANCH   9  17
HETATM   17  C   UNL     1     -11.077  10.140  68.372  1.00  0.00    -0.218 A  
HETATM   18  C   UNL     1      -9.197   5.727  68.381  1.00  0.00    -0.117 A  
HETATM   19  C   UNL     1     -11.153  10.024  69.764  1.00  0.00    -0.319 A  
HETATM   20  C   UNL     1      -9.473   5.622  69.735  1.00  0.00    -0.148 A  
HETATM   21  N   UNL     1      -9.510   6.854  67.689  1.00  0.00    -0.123 NA 
HETATM   22  C   UNL     1     -10.090   7.865  68.375  1.00  0.00    -0.194 A  
HETATM   23  C   UNL     1     -10.844   8.834  70.434  1.00  0.00    -0.256 A  
HETATM   24  C   UNL     1     -10.324   7.750  69.761  1.00  0.00    -0.221 A  
HETATM   25  C   UNL     1     -10.485   9.038  67.714  1.00  0.00    -0.305 A  
HETATM   26  N   UNL     1     -10.031   6.629  70.446  1.00  0.00    -0.175 NA 
BRANCH  18  27
HETATM   27  C   UNL     1      -8.556   4.669  67.625  1.00  0.00    -0.104 A  
HETATM   28  N   UNL     1      -7.989   3.251  66.042  1.00  0.00    -0.088 NA 
HETATM   29  C   UNL     1      -8.828   4.293  66.324  1.00  0.00    -0.116 A  
HETATM   30  C   UNL     1      -7.901   2.515  64.806  1.00  0.00    -0.077 C  
HETATM   31  N   UNL     1      -7.189   2.915  67.069  1.00  0.00    -0.057 NA 
HETATM   32  C   UNL     1      -7.536   3.778  68.030  1.00  0.00    -0.062 A  
ENDBRANCH  18  27
ENDBRANCH   9  17
ENDBRANCH   5   9
BRANCH   8  33
HETATM   33  O   UNL     1      -8.839  10.471  63.817  1.00  0.00    -0.183 OA 
HETATM   34  C   UNL     1      -8.256   9.548  64.724  1.00  0.00    -0.143 C  
ENDBRANCH   8  33
ENDBRANCH   2   3
TORSDOF 9
ENDMDL
MODEL      154
REMARK 921   NORMALIZED FREE ENERGY PREDICTED BY IDOCK:   -4.98 KCAL/MOL
REMARK 922        TOTAL FREE ENERGY PREDICTED BY IDOCK:   -8.77 KCAL/MOL
REMARK 923 INTER-LIGAND FREE ENERGY PREDICTED BY IDOCK:   -7.33 KCAL/MOL
REMARK 924 INTRA-LIGAND FREE ENERGY PREDICTED BY IDOCK:   -1.44 KCAL/MOL
REMARK 927      BINDING AFFINITY PREDICTED BY RF-SCORE:    0.00 PKD
ROOT
HETATM    1  C   UNL     1     -12.256  14.172  64.046  1.00  0.00    -0.332 C  
HETATM    2  O   UNL     1     -12.949  13.481  65.093  1.00  0.00    -0.721 OA 
ENDROOT
BRANCH   2   3
HETATM    3  C   UNL     1     -12.170  13.204  66.191  1.00  0.00    -0.385 A  
HETATM    4  C   UNL     1     -11.397  12.021  66.145  1.00  0.00    -0.407 A  
HETATM    5  C   UNL     1     -10.458  11.690  67.142  1.00  0.00    -0.220 A  
HETATM    6  C   UNL     1     -10.455  12.579  68.233  1.00  0.00    -0.243 A  
HETATM    7  C   UNL     1     -12.137  14.024  67.314  1.00  0.00    -0.405 A  
HETATM    8  C   UNL     1     -11.279  13.705  68.346  1.00  0.00    -0.276 A  
BRANCH   5   9
HETATM    9  N   UNL     1      -9.566  10.568  67.081  1.00  0.00    -0.166 NA 
BRANCH   9  10
HETATM   10  C   UNL     1      -8.580  10.473  65.957  1.00  0.00    -0.160 C  
BRANCH  10  11
HETATM   11  C   UNL     1      -7.071  10.474  66.310  1.00  0.00    -0.132 C  
BRANCH  11  12
HETATM   12  N   UNL     1      -6.358  11.749  66.240  1.00  0.00    -0.445 NA 
HETATM   13  H   UNL     1      -6.772  12.340  65.519  1.00  0.00     0.000 HD 
BRANCH  12  14
HETATM   14  C   UNL     1      -6.257  12.489  67.496  1.00  0.00    -0.155 C  
HETATM   15  C   UNL     1      -7.286  13.617  67.620  1.00  0.00    -0.179 C  
HETATM   16  C   UNL     1      -6.468  11.486  68.635  1.00  0.00    -0.057 C  
ENDBRANCH  12  14
ENDBRANCH  11  12
ENDBRANCH  10  11
ENDBRANCH   9  10
BRANCH   9  17
HETATM   17  C   UNL     1      -9.827   9.275  67.680  1.00  0.00    -0.176 A  
HETATM   18  C   UNL     1      -8.943   5.939  71.010  1.00  0.00    -0.142 A  
HETATM   19  C   UNL     1     -10.702   8.351  67.100  1.00  0.00    -0.222 A  
HETATM   20  C   UNL     1      -9.683   5.024  70.278  1.00  0.00    -0.215 A  
HETATM   21  N   UNL     1      -8.782   7.216  70.576  1.00  0.00    -0.148 NA 
HETATM   22  C   UNL     1      -9.380   7.558  69.412  1.00  0.00    -0.152 A  
HETATM   23  C   UNL     1     -10.816   7.035  67.565  1.00  0.00    -0.338 A  
HETATM   24  C   UNL     1     -10.161   6.621  68.705  1.00  0.00    -0.171 A  
HETATM   25  C   UNL     1      -9.216   8.845  68.880  1.00  0.00    -0.140 A  
HETATM   26  N   UNL     1     -10.308   5.350  69.123  1.00  0.00    -0.236 NA 
BRANCH  18  27
HETATM   27  C   UNL     1      -8.310   5.607  72.272  1.00  0.00    -0.119 A  
HETATM   28  N   UNL     1      -6.918   4.864  73.804  1.00  0.00    -0.074 NA 
HETATM   29  C   UNL     1      -7.098   4.969  72.454  1.00  0.00    -0.084 A  
HETATM   30  C   UNL     1      -5.800   4.266  74.490  1.00  0.00    -0.024 C  
HETATM   31  N   UNL     1      -7.930   5.385  74.522  1.00  0.00    -0.104 NA 
HETATM   32  C   UNL     1      -8.774   5.835  73.588  1.00  0.00    -0.122 A  
ENDBRANCH  18  27
ENDBRANCH   9  17
ENDBRANCH   5   9
BRANCH   8  33
HETATM   33  O   UNL     1     -11.120  14.404  69.512  1.00  0.00    -0.251 OA 
HETATM   34  C   UNL     1     -12.266  15.059  70.035  1.00  0.00    -0.328 C  
ENDBRANCH   8  33
ENDBRANCH   2   3
TORSDOF 9
ENDMDL
MODEL      155
REMARK 921   NORMALIZED FREE ENERGY PREDICTED BY IDOCK:   -4.94 KCAL/MOL
REMARK 922        TOTAL FREE ENERGY PREDICTED BY IDOCK:   -8.72 KCAL/MOL
REMARK 923 INTER-LIGAND FREE ENERGY PREDICTED BY IDOCK:   -7.52 KCAL/MOL
REMARK 924 INTRA-LIGAND FREE ENERGY PREDICTED BY IDOCK:   -1.19 KCAL/MOL
REMARK 927      BINDING AFFINITY PREDICTED BY RF-SCORE:    0.00 PKD
ROOT
HETATM    1  C   UNL     1     -10.531   5.062  66.374  1.00  0.00    -0.300 C  
HETATM    2  O   UNL     1      -9.442   5.952  66.099  1.00  0.00    -0.158 OA 
ENDROOT
BRANCH   2   3
HETATM    3  C   UNL     1      -8.884   6.516  67.222  1.00  0.00    -0.112 A  
HETATM    4  C   UNL     1      -9.300   7.826  67.552  1.00  0.00    -0.161 A  
HETATM    5  C   UNL     1      -8.909   8.466  68.745  1.00  0.00    -0.140 A  
HETATM    6  C   UNL     1      -7.980   7.730  69.503  1.00  0.00    -0.117 A  
HETATM    7  C   UNL     1      -7.941   5.857  68.004  1.00  0.00    -0.105 A  
HETATM    8  C   UNL     1      -7.480   6.471  69.149  1.00  0.00    -0.095 A  
BRANCH   5   9
HETATM    9  N   UNL     1      -9.398   9.743  69.183  1.00  0.00    -0.172 NA 
BRANCH   9  10
HETATM   10  C   UNL     1     -10.853   9.901  69.506  1.00  0.00    -0.246 C  
BRANCH  10  11
HETATM   11  C   UNL     1     -11.270   9.921  70.999  1.00  0.00    -0.364 C  
BRANCH  11  12
HETATM   12  N   UNL     1     -11.277   8.649  71.720  1.00  0.00    -0.302 NA 
HETATM   13  H   UNL     1     -10.521   8.633  72.405  1.00  0.00     0.000 HD 
BRANCH  12  14
HETATM   14  C   UNL     1     -12.540   8.291  72.362  1.00  0.00    -0.274 C  
HETATM   15  C   UNL     1     -13.696   9.223  71.989  1.00  0.00    -0.493 C  
HETATM   16  C   UNL     1     -12.884   6.862  71.929  1.00  0.00    -0.290 C  
ENDBRANCH  12  14
ENDBRANCH  11  12
ENDBRANCH  10  11
ENDBRANCH   9  10
BRANCH   9  17
HETATM   17  C   UNL     1      -8.771  11.013  68.880  1.00  0.00    -0.117 A  
HETATM   18  C   UNL     1      -8.867  15.362  66.861  1.00  0.00    -0.253 A  
HETATM   19  C   UNL     1      -7.434  11.274  69.192  1.00  0.00    -0.084 A  
HETATM   20  C   UNL     1      -7.497  15.467  67.044  1.00  0.00    -0.170 A  
HETATM   21  N   UNL     1      -9.542  14.253  67.260  1.00  0.00    -0.226 NA 
HETATM   22  C   UNL     1      -8.829  13.267  67.850  1.00  0.00    -0.192 A  
HETATM   23  C   UNL     1      -6.769  12.419  68.737  1.00  0.00    -0.092 A  
HETATM   24  C   UNL     1      -7.442  13.414  68.062  1.00  0.00    -0.139 A  
HETATM   25  C   UNL     1      -9.453  12.074  68.242  1.00  0.00    -0.199 A  
HETATM   26  N   UNL     1      -6.766  14.504  67.652  1.00  0.00    -0.180 NA 
BRANCH  18  27
HETATM   27  C   UNL     1      -9.661  16.411  66.252  1.00  0.00    -0.332 A  
HETATM   28  N   UNL     1     -10.612  18.339  65.788  1.00  0.00    -0.563 NA 
HETATM   29  C   UNL     1      -9.735  17.734  66.643  1.00  0.00    -0.313 A  
HETATM   30  C   UNL     1     -11.023  19.721  65.796  1.00  0.00    -0.147 C  
HETATM   31  N   UNL     1     -11.123  17.504  64.865  1.00  0.00    -0.773 NA 
HETATM   32  C   UNL     1     -10.544  16.333  65.150  1.00  0.00    -0.304 A  
ENDBRANCH  18  27
ENDBRANCH   9  17
ENDBRANCH   5   9
BRANCH   8  33
HETATM   33  O   UNL     1      -6.563   5.962  70.027  1.00  0.00    -0.043 OA 
HETATM   34  C   UNL     1      -6.809   6.166  71.411  1.00  0.00    -0.067 C  
ENDBRANCH   8  33
ENDBRANCH   2   3
TORSDOF 9
ENDMDL
MODEL      156
REMARK 921   NORMALIZED FREE ENERGY PREDICTED BY IDOCK:   -4.93 KCAL/MOL
REMARK 922        TOTAL FREE ENERGY PREDICTED BY IDOCK:   -8.70 KCAL/MOL
REMARK 923 INTER-LIGAND FREE ENERGY PREDICTED BY IDOCK:   -7.49 KCAL/MOL
REMARK 924 INTRA-LIGAND FREE ENERGY PREDICTED BY IDOCK:   -1.21 KCAL/MOL
REMARK 927      BINDING AFFINITY PREDICTED BY RF-SCORE:    0.00 PKD
ROOT
HETATM    1  C   UNL     1      -9.341   4.005  68.019  1.00  0.00    -0.169 C  
HETATM    2  O   UNL     1     -10.213   4.996  67.460  1.00  0.00    -0.173 OA 
ENDROOT
BRANCH   2   3
HETATM    3  C   UNL     1      -9.565   6.122  67.010  1.00  0.00    -0.135 A  
HETATM    4  C   UNL     1      -9.581   7.251  67.861  1.00  0.00    -0.153 A  
HETATM    5  C   UNL     1      -8.846   8.420  67.582  1.00  0.00    -0.136 A  
HETATM    6  C   UNL     1      -8.202   8.397  66.332  1.00  0.00    -0.109 A  
HETATM    7  C   UNL     1      -8.930   6.180  65.775  1.00  0.00    -0.099 A  
HETATM    8  C   UNL     1      -8.250   7.328  65.429  1.00  0.00    -0.137 A  
BRANCH   5   9
HETATM    9  N   UNL     1      -8.732   9.543  68.469  1.00  0.00    -0.123 NA 
BRANCH   9  10
HETATM   10  C   UNL     1      -8.057   9.366  69.795  1.00  0.00    -0.133 C  
BRANCH  10  11
HETATM   11  C   UNL     1      -8.951   9.171  71.047  1.00  0.00    -0.214 C  
BRANCH  11  12
HETATM   12  N   UNL     1      -9.391   7.813  71.362  1.00  0.00    -0.140 NA 
HETATM   13  H   UNL     1      -8.825   7.429  72.118  1.00  0.00     0.000 HD 
BRANCH  12  14
HETATM   14  C   UNL     1     -10.811   7.664  71.677  1.00  0.00    -0.227 C  
HETATM   15  C   UNL     1     -11.605   6.945  70.583  1.00  0.00    -0.402 C  
HETATM   16  C   UNL     1     -10.908   6.864  72.980  1.00  0.00    -0.328 C  
ENDBRANCH  12  14
ENDBRANCH  11  12
ENDBRANCH  10  11
ENDBRANCH   9  10
BRANCH   9  17
HETATM   17  C   UNL     1      -9.617  10.690  68.462  1.00  0.00    -0.175 A  
HETATM   18  C   UNL     1     -10.337  15.431  68.389  1.00  0.00    -0.229 A  
HETATM   19  C   UNL     1     -11.000  10.562  68.617  1.00  0.00    -0.294 A  
HETATM   20  C   UNL     1     -11.665  15.225  68.725  1.00  0.00    -0.353 A  
HETATM   21  N   UNL     1      -9.485  14.384  68.233  1.00  0.00    -0.201 NA 
HETATM   22  C   UNL     1      -9.987  13.141  68.408  1.00  0.00    -0.223 A  
HETATM   23  C   UNL     1     -11.838  11.668  68.802  1.00  0.00    -0.387 A  
HETATM   24  C   UNL     1     -11.352  12.955  68.710  1.00  0.00    -0.290 A  
HETATM   25  C   UNL     1      -9.154  12.017  68.311  1.00  0.00    -0.190 A  
HETATM   26  N   UNL     1     -12.196  13.990  68.882  1.00  0.00    -0.309 NA 
BRANCH  18  27
HETATM   27  C   UNL     1      -9.776  16.750  68.174  1.00  0.00    -0.247 A  
HETATM   28  N   UNL     1      -9.490  18.856  67.605  1.00  0.00    -0.297 NA 
HETATM   29  C   UNL     1     -10.407  17.843  67.612  1.00  0.00    -0.381 A  
HETATM   30  C   UNL     1      -9.677  20.197  67.110  1.00  0.00    -0.439 C  
HETATM   31  N   UNL     1      -8.297  18.502  68.118  1.00  0.00    -0.287 NA 
HETATM   32  C   UNL     1      -8.474  17.222  68.462  1.00  0.00    -0.267 A  
ENDBRANCH  18  27
ENDBRANCH   9  17
ENDBRANCH   5   9
BRANCH   8  33
HETATM   33  O   UNL     1      -7.570   7.546  64.261  1.00  0.00    -0.091 OA 
HETATM   34  C   UNL     1      -7.909   8.710  63.523  1.00  0.00    -0.148 C  
ENDBRANCH   8  33
ENDBRANCH   2   3
TORSDOF 9
ENDMDL
MODEL      157
REMARK 921   NORMALIZED FREE ENERGY PREDICTED BY IDOCK:   -4.86 KCAL/MOL
REMARK 922        TOTAL FREE ENERGY PREDICTED BY IDOCK:   -8.58 KCAL/MOL
REMARK 923 INTER-LIGAND FREE ENERGY PREDICTED BY IDOCK:   -7.58 KCAL/MOL
REMARK 924 INTRA-LIGAND FREE ENERGY PREDICTED BY IDOCK:   -1.00 KCAL/MOL
REMARK 927      BINDING AFFINITY PREDICTED BY RF-SCORE:    0.00 PKD
ROOT
HETATM    1  C   UNL     1     -12.382  14.942  63.874  1.00  0.00     0.111 C  
HETATM    2  O   UNL     1     -12.356  13.603  63.365  1.00  0.00    -0.719 OA 
ENDROOT
BRANCH   2   3
HETATM    3  C   UNL     1     -11.427  12.792  63.974  1.00  0.00    -0.417 A  
HETATM    4  C   UNL     1     -11.065  13.120  65.300  1.00  0.00    -0.304 A  
HETATM    5  C   UNL     1     -10.229  12.298  66.082  1.00  0.00    -0.239 A  
HETATM    6  C   UNL     1      -9.701  11.199  65.381  1.00  0.00    -0.275 A  
HETATM    7  C   UNL     1     -10.845  11.704  63.333  1.00  0.00    -0.453 A  
HETATM    8  C   UNL     1      -9.969  10.906  64.038  1.00  0.00    -0.344 A  
BRANCH   5   9
HETATM    9  N   UNL     1      -9.930  12.524  67.468  1.00  0.00    -0.199 NA 
BRANCH   9  10
HETATM   10  C   UNL     1      -9.914  13.926  67.998  1.00  0.00    -0.241 C  
BRANCH  10  11
HETATM   11  C   UNL     1      -8.725  14.839  67.604  1.00  0.00    -0.178 C  
BRANCH  11  12
HETATM   12  N   UNL     1      -8.728  15.416  66.260  1.00  0.00    -0.435 NA 
HETATM   13  H   UNL     1      -9.462  14.985  65.697  1.00  0.00     0.000 HD 
BRANCH  12  14
HETATM   14  C   UNL     1      -8.841  16.872  66.195  1.00  0.00    -0.244 C  
HETATM   15  C   UNL     1     -10.284  17.374  66.293  1.00  0.00    -0.344 C  
HETATM   16  C   UNL     1      -8.027  17.445  67.360  1.00  0.00    -0.212 C  
ENDBRANCH  12  14
ENDBRANCH  11  12
ENDBRANCH  10  11
ENDBRANCH   9  10
BRANCH   9  17
HETATM   17  C   UNL     1      -9.159  11.624  68.301  1.00  0.00    -0.187 A  
HETATM   18  C   UNL     1      -8.894   8.148  71.595  1.00  0.00    -0.156 A  
HETATM   19  C   UNL     1      -7.765  11.693  68.377  1.00  0.00    -0.130 A  
HETATM   20  C   UNL     1      -7.540   8.404  71.743  1.00  0.00    -0.112 A  
HETATM   21  N   UNL     1      -9.648   8.860  70.718  1.00  0.00    -0.209 NA 
HETATM   22  C   UNL     1      -9.024   9.815  69.992  1.00  0.00    -0.222 A  
HETATM   23  C   UNL     1      -7.029  10.960  69.316  1.00  0.00    -0.112 A  
HETATM   24  C   UNL     1      -7.637  10.030  70.131  1.00  0.00    -0.155 A  
HETATM   25  C   UNL     1      -9.750  10.621  69.103  1.00  0.00    -0.205 A  
HETATM   26  N   UNL     1      -6.890   9.339  71.012  1.00  0.00    -0.145 NA 
BRANCH  18  27
HETATM   27  C   UNL     1      -9.585   7.116  72.342  1.00  0.00    -0.168 A  
HETATM   28  N   UNL     1     -10.321   5.180  73.083  1.00  0.00    -0.182 NA 
HETATM   29  C   UNL     1      -9.486   5.749  72.164  1.00  0.00    -0.149 A  
HETATM   30  C   UNL     1     -10.566   3.773  73.283  1.00  0.00    -0.188 C  
HETATM   31  N   UNL     1     -10.967   6.078  73.849  1.00  0.00     0.014 NA 
HETATM   32  C   UNL     1     -10.518   7.253  73.396  1.00  0.00    -0.377 A  
ENDBRANCH  18  27
ENDBRANCH   9  17
ENDBRANCH   5   9
BRANCH   8  33
HETATM   33  O   UNL     1      -9.318   9.801  63.562  1.00  0.00    -0.253 OA 
HETATM   34  C   UNL     1      -7.910   9.895  63.408  1.00  0.00    -0.152 C  
ENDBRANCH   8  33
ENDBRANCH   2   3
TORSDOF 9
ENDMDL
MODEL      158
REMARK 921   NORMALIZED FREE ENERGY PREDICTED BY IDOCK:   -4.83 KCAL/MOL
REMARK 922        TOTAL FREE ENERGY PREDICTED BY IDOCK:   -8.54 KCAL/MOL
REMARK 923 INTER-LIGAND FREE ENERGY PREDICTED BY IDOCK:   -7.14 KCAL/MOL
REMARK 924 INTRA-LIGAND FREE ENERGY PREDICTED BY IDOCK:   -1.40 KCAL/MOL
REMARK 927      BINDING AFFINITY PREDICTED BY RF-SCORE:    0.00 PKD
ROOT
HETATM    1  C   UNL     1      -5.895   6.482  73.037  1.00  0.00    -0.042 C  
HETATM    2  O   UNL     1      -5.512   5.757  71.861  1.00  0.00    -0.020 OA 
ENDROOT
BRANCH   2   3
HETATM    3  C   UNL     1      -6.574   5.303  71.115  1.00  0.00    -0.043 A  
HETATM    4  C   UNL     1      -7.671   6.182  70.962  1.00  0.00    -0.102 A  
HETATM    5  C   UNL     1      -8.760   5.895  70.116  1.00  0.00    -0.141 A  
HETATM    6  C   UNL     1      -8.707   4.611  69.543  1.00  0.00    -0.111 A  
HETATM    7  C   UNL     1      -6.601   4.037  70.540  1.00  0.00    -0.032 A  
HETATM    8  C   UNL     1      -7.678   3.685  69.755  1.00  0.00    -0.051 A  
BRANCH   5   9
HETATM    9  N   UNL     1      -9.835   6.803  69.833  1.00  0.00    -0.165 NA 
BRANCH   9  10
HETATM   10  C   UNL     1     -11.231   6.438  70.238  1.00  0.00    -0.382 C  
BRANCH  10  11
HETATM   11  C   UNL     1     -11.542   6.319  71.752  1.00  0.00    -0.304 C  
BRANCH  11  12
HETATM   12  N   UNL     1     -12.059   7.504  72.434  1.00  0.00    -0.495 NA 
HETATM   13  H   UNL     1     -11.287   8.054  72.812  1.00  0.00     0.000 HD 
BRANCH  12  14
HETATM   14  C   UNL     1     -12.938   8.360  71.639  1.00  0.00    -0.334 C  
HETATM   15  C   UNL     1     -14.395   8.337  72.108  1.00  0.00    -0.498 C  
HETATM   16  C   UNL     1     -12.397   9.790  71.741  1.00  0.00    -0.470 C  
ENDBRANCH  12  14
ENDBRANCH  11  12
ENDBRANCH  10  11
ENDBRANCH   9  10
BRANCH   9  17
HETATM   17  C   UNL     1      -9.821   7.792  68.775  1.00  0.00    -0.169 A  
HETATM   18  C   UNL     1     -10.461  12.284  67.221  1.00  0.00    -0.218 A  
HETATM   19  C   UNL     1      -9.596   7.446  67.439  1.00  0.00    -0.184 A  
HETATM   20  C   UNL     1     -10.406  11.830  65.913  1.00  0.00    -0.241 A  
HETATM   21  N   UNL     1     -10.331  11.425  68.266  1.00  0.00    -0.186 NA 
HETATM   22  C   UNL     1     -10.136  10.118  67.977  1.00  0.00    -0.157 A  
HETATM   23  C   UNL     1      -9.768   8.358  66.391  1.00  0.00    -0.312 A  
HETATM   24  C   UNL     1     -10.045   9.685  66.638  1.00  0.00    -0.239 A  
HETATM   25  C   UNL     1     -10.043   9.168  69.005  1.00  0.00    -0.199 A  
HETATM   26  N   UNL     1     -10.190  10.531  65.600  1.00  0.00    -0.262 NA 
BRANCH  18  27
HETATM   27  C   UNL     1     -10.645  13.681  67.561  1.00  0.00    -0.243 A  
HETATM   28  N   UNL     1     -10.530  15.877  67.600  1.00  0.00    -0.282 NA 
HETATM   29  C   UNL     1     -10.082  14.774  66.930  1.00  0.00    -0.246 A  
HETATM   30  C   UNL     1     -10.213  17.255  67.318  1.00  0.00    -0.320 C  
HETATM   31  N   UNL     1     -11.345  15.585  68.630  1.00  0.00    -0.324 NA 
HETATM   32  C   UNL     1     -11.412  14.250  68.604  1.00  0.00    -0.296 A  
ENDBRANCH  18  27
ENDBRANCH   9  17
ENDBRANCH   5   9
BRANCH   8  33
HETATM   33  O   UNL     1      -7.857   2.488  69.115  1.00  0.00    -0.046 OA 
HETATM   34  C   UNL     1      -6.763   1.584  69.116  1.00  0.00    -0.029 C  
ENDBRANCH   8  33
ENDBRANCH   2   3
TORSDOF 9
ENDMDL
MODEL      159
REMARK 921   NORMALIZED FREE ENERGY PREDICTED BY IDOCK:   -4.82 KCAL/MOL
REMARK 922        TOTAL FREE ENERGY PREDICTED BY IDOCK:   -8.53 KCAL/MOL
REMARK 923 INTER-LIGAND FREE ENERGY PREDICTED BY IDOCK:   -7.27 KCAL/MOL
REMARK 924 INTRA-LIGAND FREE ENERGY PREDICTED BY IDOCK:   -1.26 KCAL/MOL
REMARK 927      BINDING AFFINITY PREDICTED BY RF-SCORE:    0.00 PKD
ROOT
HETATM    1  C   UNL     1     -10.229   4.886  72.384  1.00  0.00    -0.199 C  
HETATM    2  O   UNL     1     -10.675   5.296  71.085  1.00  0.00    -0.206 OA 
ENDROOT
BRANCH   2   3
HETATM    3  C   UNL     1     -10.984   6.633  70.996  1.00  0.00    -0.259 A  
HETATM    4  C   UNL     1     -10.366   7.363  69.955  1.00  0.00    -0.222 A  
HETATM    5  C   UNL     1     -10.697   8.703  69.671  1.00  0.00    -0.200 A  
HETATM    6  C   UNL     1     -11.598   9.270  70.590  1.00  0.00    -0.305 A  
HETATM    7  C   UNL     1     -11.846   7.265  71.885  1.00  0.00    -0.333 A  
HETATM    8  C   UNL     1     -12.150   8.595  71.686  1.00  0.00    -0.326 A  
BRANCH   5   9
HETATM    9  N   UNL     1     -10.190   9.449  68.554  1.00  0.00    -0.192 NA 
BRANCH   9  10
HETATM   10  C   UNL     1     -10.221   8.836  67.186  1.00  0.00    -0.276 C  
BRANCH  10  11
HETATM   11  C   UNL     1      -8.887   8.319  66.590  1.00  0.00    -0.144 C  
BRANCH  11  12
HETATM   12  N   UNL     1      -8.092   7.399  67.403  1.00  0.00    -0.112 NA 
HETATM   13  H   UNL     1      -8.488   7.331  68.340  1.00  0.00     0.000 HD 
BRANCH  12  14
HETATM   14  C   UNL     1      -7.902   6.062  66.843  1.00  0.00    -0.101 C  
HETATM   15  C   UNL     1      -8.513   4.952  67.702  1.00  0.00    -0.104 C  
HETATM   16  C   UNL     1      -8.558   6.048  65.459  1.00  0.00    -0.145 C  
ENDBRANCH  12  14
ENDBRANCH  11  12
ENDBRANCH  10  11
ENDBRANCH   9  10
BRANCH   9  17
HETATM   17  C   UNL     1      -9.206  10.507  68.648  1.00  0.00    -0.172 A  
HETATM   18  C   UNL     1      -7.593  14.858  67.436  1.00  0.00    -0.204 A  
HETATM   19  C   UNL     1      -8.007  10.345  69.349  1.00  0.00    -0.161 A  
HETATM   20  C   UNL     1      -6.365  14.549  67.998  1.00  0.00    -0.154 A  
HETATM   21  N   UNL     1      -8.612  13.960  67.446  1.00  0.00    -0.189 NA 
HETATM   22  C   UNL     1      -8.382  12.763  68.033  1.00  0.00    -0.173 A  
HETATM   23  C   UNL     1      -6.971  11.286  69.289  1.00  0.00    -0.119 A  
HETATM   24  C   UNL     1      -7.136  12.487  68.634  1.00  0.00    -0.100 A  
HETATM   25  C   UNL     1      -9.372  11.770  68.037  1.00  0.00    -0.184 A  
HETATM   26  N   UNL     1      -6.118  13.368  68.611  1.00  0.00    -0.080 NA 
BRANCH  18  27
HETATM   27  C   UNL     1      -7.876  16.139  66.820  1.00  0.00    -0.296 A  
HETATM   28  N   UNL     1      -7.693  18.160  65.970  1.00  0.00    -0.483 NA 
HETATM   29  C   UNL     1      -6.972  17.144  66.533  1.00  0.00    -0.261 A  
HETATM   30  C   UNL     1      -7.191  19.429  65.506  1.00  0.00    -0.155 C  
HETATM   31  N   UNL     1      -9.008  17.894  65.873  1.00  0.00    -0.500 NA 
HETATM   32  C   UNL     1      -9.116  16.666  66.391  1.00  0.00    -0.292 A  
ENDBRANCH  18  27
ENDBRANCH   9  17
ENDBRANCH   5   9
BRANCH   8  33
HETATM   33  O   UNL     1     -12.980   9.360  72.459  1.00  0.00    -0.380 OA 
HETATM   34  C   UNL     1     -14.360   9.028  72.452  1.00  0.00    -0.241 C  
ENDBRANCH   8  33
ENDBRANCH   2   3
TORSDOF 9
ENDMDL
MODEL      160
REMARK 921   NORMALIZED FREE ENERGY PREDICTED BY IDOCK:   -4.82 KCAL/MOL
REMARK 922        TOTAL FREE ENERGY PREDICTED BY IDOCK:   -8.52 KCAL/MOL
REMARK 923 INTER-LIGAND FREE ENERGY PREDICTED BY IDOCK:   -9.48 KCAL/MOL
REMARK 924 INTRA-LIGAND FREE ENERGY PREDICTED BY IDOCK:    0.95 KCAL/MOL
REMARK 927      BINDING AFFINITY PREDICTED BY RF-SCORE:    0.00 PKD
ROOT
HETATM    1  C   UNL     1     -10.601  15.785  66.122  1.00  0.00    -0.313 C  
HETATM    2  O   UNL     1     -11.439  14.770  65.555  1.00  0.00    -0.341 OA 
ENDROOT
BRANCH   2   3
HETATM    3  C   UNL     1     -11.245  13.520  66.094  1.00  0.00    -0.295 A  
HETATM    4  C   UNL     1     -11.643  13.334  67.438  1.00  0.00    -0.396 A  
HETATM    5  C   UNL     1     -11.623  12.073  68.066  1.00  0.00    -0.342 A  
HETATM    6  C   UNL     1     -11.059  11.056  67.275  1.00  0.00    -0.359 A  
HETATM    7  C   UNL     1     -10.670  12.475  65.379  1.00  0.00    -0.312 A  
HETATM    8  C   UNL     1     -10.569  11.235  65.975  1.00  0.00    -0.258 A  
BRANCH   5   9
HETATM    9  N   UNL     1     -12.129  11.811  69.384  1.00  0.00    -0.273 NA 
BRANCH   9  10
HETATM   10  C   UNL     1     -12.383  12.957  70.315  1.00  0.00    -0.223 C  
BRANCH  10  11
HETATM   11  C   UNL     1     -11.527  14.238  70.142  1.00  0.00    -0.191 C  
BRANCH  11  12
HETATM   12  N   UNL     1     -11.294  15.064  71.327  1.00  0.00    -0.507 NA 
HETATM   13  H   UNL     1     -10.567  15.753  71.133  1.00  0.00     0.000 HD 
BRANCH  12  14
HETATM   14  C   UNL     1     -12.474  15.726  71.880  1.00  0.00    -0.458 C  
HETATM   15  C   UNL     1     -13.546  14.747  72.367  1.00  0.00    -0.550 C  
HETATM   16  C   UNL     1     -12.005  16.587  73.057  1.00  0.00    -0.481 C  
ENDBRANCH  12  14
ENDBRANCH  11  12
ENDBRANCH  10  11
ENDBRANCH   9  10
BRANCH   9  17
HETATM   17  C   UNL     1     -11.957  10.563  70.098  1.00  0.00    -0.316 A  
HETATM   18  C   UNL     1     -10.335   6.056  70.340  1.00  0.00    -0.223 A  
HETATM   19  C   UNL     1     -12.553  10.332  71.342  1.00  0.00    -0.539 A  
HETATM   20  C   UNL     1     -11.102   5.850  71.476  1.00  0.00    -0.250 A  
HETATM   21  N   UNL     1     -10.336   7.256  69.704  1.00  0.00    -0.215 NA 
HETATM   22  C   UNL     1     -11.103   8.239  70.228  1.00  0.00    -0.219 A  
HETATM   23  C   UNL     1     -12.550   9.070  71.950  1.00  0.00    -0.452 A  
HETATM   24  C   UNL     1     -11.844   8.018  71.408  1.00  0.00    -0.295 A  
HETATM   25  C   UNL     1     -11.190   9.488  69.595  1.00  0.00    -0.138 A  
HETATM   26  N   UNL     1     -11.859   6.825  72.032  1.00  0.00    -0.305 NA 
BRANCH  18  27
HETATM   27  C   UNL     1      -9.486   5.029  69.769  1.00  0.00    -0.215 A  
HETATM   28  N   UNL     1      -8.441   3.691  68.371  1.00  0.00    -0.085 NA 
HETATM   29  C   UNL     1      -9.326   4.731  68.430  1.00  0.00    -0.132 A  
HETATM   30  C   UNL     1      -7.960   3.022  67.188  1.00  0.00    -0.078 C  
HETATM   31  N   UNL     1      -8.013   3.283  69.580  1.00  0.00    -0.049 NA 
HETATM   32  C   UNL     1      -8.650   4.098  70.427  1.00  0.00    -0.073 A  
ENDBRANCH  18  27
ENDBRANCH   9  17
ENDBRANCH   5   9
BRANCH   8  33
HETATM   33  O   UNL     1     -10.039  10.107  65.412  1.00  0.00    -0.303 OA 
HETATM   34  C   UNL     1      -9.385  10.253  64.161  1.00  0.00    -0.287 C  
ENDBRANCH   8  33
ENDBRANCH   2   3
TORSDOF 9
ENDMDL
MODEL      161
REMARK 921   NORMALIZED FREE ENERGY PREDICTED BY IDOCK:   -4.73 KCAL/MOL
REMARK 922        TOTAL FREE ENERGY PREDICTED BY IDOCK:   -8.40 KCAL/MOL
REMARK 923 INTER-LIGAND FREE ENERGY PREDICTED BY IDOCK:   -8.04 KCAL/MOL
REMARK 924 INTRA-LIGAND FREE ENERGY PREDICTED BY IDOCK:   -0.36 KCAL/MOL
REMARK 927      BINDING AFFINITY PREDICTED BY RF-SCORE:    0.00 PKD
ROOT
HETATM    1  C   UNL     1      -5.632  17.582  65.968  1.00  0.00    -0.141 C  
HETATM    2  O   UNL     1      -6.171  16.734  66.990  1.00  0.00    -0.158 OA 
ENDROOT
BRANCH   2   3
HETATM    3  C   UNL     1      -7.545  16.726  67.043  1.00  0.00    -0.200 A  
HETATM    4  C   UNL     1      -8.185  15.480  66.852  1.00  0.00    -0.287 A  
HETATM    5  C   UNL     1      -9.574  15.311  67.015  1.00  0.00    -0.224 A  
HETATM    6  C   UNL     1     -10.266  16.511  67.261  1.00  0.00    -0.287 A  
HETATM    7  C   UNL     1      -8.294  17.878  67.257  1.00  0.00    -0.232 A  
HETATM    8  C   UNL     1      -9.665  17.772  67.359  1.00  0.00    -0.284 A  
BRANCH   5   9
HETATM    9  N   UNL     1     -10.254  14.048  66.951  1.00  0.00    -0.257 NA 
BRANCH   9  10
HETATM   10  C   UNL     1     -11.752  14.020  66.940  1.00  0.00    -0.410 C  
BRANCH  10  11
HETATM   11  C   UNL     1     -12.488  13.920  68.301  1.00  0.00     0.291 C  
BRANCH  11  12
HETATM   12  N   UNL     1     -12.390  15.060  69.211  1.00  0.00    -0.578 NA 
HETATM   13  H   UNL     1     -13.204  15.665  69.100  1.00  0.00     0.000 HD 
BRANCH  12  14
HETATM   14  C   UNL     1     -12.203  14.729  70.623  1.00  0.00    -0.319 C  
HETATM   15  C   UNL     1     -13.140  15.500  71.557  1.00  0.00    -0.573 C  
HETATM   16  C   UNL     1     -12.460  13.227  70.778  1.00  0.00    -0.403 C  
ENDBRANCH  12  14
ENDBRANCH  11  12
ENDBRANCH  10  11
ENDBRANCH   9  10
BRANCH   9  17
HETATM   17  C   UNL     1      -9.694  12.788  67.396  1.00  0.00    -0.197 A  
HETATM   18  C   UNL     1      -9.455   9.183  70.550  1.00  0.00    -0.242 A  
HETATM   19  C   UNL     1      -8.613  12.185  66.744  1.00  0.00    -0.163 A  
HETATM   20  C   UNL     1      -8.280   8.752  69.955  1.00  0.00    -0.118 A  
HETATM   21  N   UNL     1     -10.113  10.276  70.085  1.00  0.00    -0.142 NA 
HETATM   22  C   UNL     1      -9.583  10.917  69.019  1.00  0.00    -0.156 A  
HETATM   23  C   UNL     1      -7.947  11.073  67.273  1.00  0.00    -0.126 A  
HETATM   24  C   UNL     1      -8.408  10.436  68.405  1.00  0.00    -0.119 A  
HETATM   25  C   UNL     1     -10.183  12.081  68.517  1.00  0.00    -0.218 A  
HETATM   26  N   UNL     1      -7.743   9.363  68.873  1.00  0.00    -0.075 NA 
BRANCH  18  27
HETATM   27  C   UNL     1     -10.058   8.504  71.679  1.00  0.00    -0.338 A  
HETATM   28  N   UNL     1     -10.426   7.177  73.395  1.00  0.00    -0.335 NA 
HETATM   29  C   UNL     1      -9.485   7.524  72.466  1.00  0.00    -0.159 A  
HETATM   30  C   UNL     1     -10.299   6.189  74.436  1.00  0.00    -0.261 C  
HETATM   31  N   UNL     1     -11.579   7.859  73.270  1.00  0.00    -0.108 NA 
HETATM   32  C   UNL     1     -11.353   8.664  72.226  1.00  0.00    -0.340 A  
ENDBRANCH  18  27
ENDBRANCH   9  17
ENDBRANCH   5   9
BRANCH   8  33
HETATM   33  O   UNL     1     -10.543  18.799  67.573  1.00  0.00    -0.412 OA 
HETATM   34  C   UNL     1     -10.253  20.040  66.948  1.00  0.00    -0.462 C  
ENDBRANCH   8  33
ENDBRANCH   2   3
TORSDOF 9
ENDMDL
MODEL      162
REMARK 921   NORMALIZED FREE ENERGY PREDICTED BY IDOCK:   -4.69 KCAL/MOL
REMARK 922        TOTAL FREE ENERGY PREDICTED BY IDOCK:   -8.33 KCAL/MOL
REMARK 923 INTER-LIGAND FREE ENERGY PREDICTED BY IDOCK:   -7.00 KCAL/MOL
REMARK 924 INTRA-LIGAND FREE ENERGY PREDICTED BY IDOCK:   -1.33 KCAL/MOL
REMARK 927      BINDING AFFINITY PREDICTED BY RF-SCORE:    0.00 PKD
ROOT
HETATM    1  C   UNL     1      -6.222   7.458  72.387  1.00  0.00    -0.043 C  
HETATM    2  O   UNL     1      -6.016   7.188  70.995  1.00  0.00    -0.035 OA 
ENDROOT
BRANCH   2   3
HETATM    3  C   UNL     1      -7.179   7.002  70.284  1.00  0.00    -0.072 A  
HETATM    4  C   UNL     1      -8.106   8.069  70.285  1.00  0.00    -0.113 A  
HETATM    5  C   UNL     1      -9.270   8.061  69.491  1.00  0.00    -0.152 A  
HETATM    6  C   UNL     1      -9.478   6.851  68.804  1.00  0.00    -0.135 A  
HETATM    7  C   UNL     1      -7.462   5.823  69.603  1.00  0.00    -0.075 A  
HETATM    8  C   UNL     1      -8.623   5.743  68.863  1.00  0.00    -0.106 A  
BRANCH   5   9
HETATM    9  N   UNL     1     -10.178   9.166  69.364  1.00  0.00    -0.203 NA 
BRANCH   9  10
HETATM   10  C   UNL     1     -11.458   9.159  70.143  1.00  0.00    -0.087 C  
BRANCH  10  11
HETATM   11  C   UNL     1     -11.386   9.463  71.662  1.00  0.00    -0.382 C  
BRANCH  11  12
HETATM   12  N   UNL     1     -11.724   8.383  72.587  1.00  0.00    -0.361 NA 
HETATM   13  H   UNL     1     -12.653   8.021  72.376  1.00  0.00     0.000 HD 
BRANCH  12  14
HETATM   14  C   UNL     1     -10.763   7.283  72.655  1.00  0.00    -0.278 C  
HETATM   15  C   UNL     1     -10.281   6.984  74.077  1.00  0.00    -0.346 C  
HETATM   16  C   UNL     1     -11.452   6.039  72.083  1.00  0.00    -0.356 C  
ENDBRANCH  12  14
ENDBRANCH  11  12
ENDBRANCH  10  11
ENDBRANCH   9  10
BRANCH   9  17
HETATM   17  C   UNL     1     -10.251  10.042  68.213  1.00  0.00    -0.173 A  
HETATM   18  C   UNL     1     -10.260  14.429  66.274  1.00  0.00    -0.299 A  
HETATM   19  C   UNL     1     -10.524   9.561  66.929  1.00  0.00    -0.279 A  
HETATM   20  C   UNL     1     -10.707  13.891  65.079  1.00  0.00    -0.386 A  
HETATM   21  N   UNL     1     -10.028  13.639  67.354  1.00  0.00    -0.231 NA 
HETATM   22  C   UNL     1     -10.239  12.310  67.211  1.00  0.00    -0.210 A  
HETATM   23  C   UNL     1     -10.784  10.414  65.849  1.00  0.00    -0.023 A  
HETATM   24  C   UNL     1     -10.656  11.780  65.972  1.00  0.00    -0.260 A  
HETATM   25  C   UNL     1     -10.066  11.441  68.298  1.00  0.00    -0.204 A  
HETATM   26  N   UNL     1     -10.905  12.563  64.905  1.00  0.00    -0.283 NA 
BRANCH  18  27
HETATM   27  C   UNL     1     -10.003  15.845  66.451  1.00  0.00    -0.304 A  
HETATM   28  N   UNL     1      -9.605  17.826  67.320  1.00  0.00    -0.267 NA 
HETATM   29  C   UNL     1      -9.794  16.512  67.643  1.00  0.00    -0.247 A  
HETATM   30  C   UNL     1      -9.355  18.919  68.227  1.00  0.00    -0.339 C  
HETATM   31  N   UNL     1      -9.680  18.070  65.999  1.00  0.00    -0.535 NA 
HETATM   32  C   UNL     1      -9.922  16.864  65.474  1.00  0.00     0.019 A  
ENDBRANCH  18  27
ENDBRANCH   9  17
ENDBRANCH   5   9
BRANCH   8  33
HETATM   33  O   UNL     1      -9.046   4.666  68.133  1.00  0.00    -0.110 OA 
HETATM   34  C   UNL     1      -9.243   4.864  66.741  1.00  0.00    -0.122 C  
ENDBRANCH   8  33
ENDBRANCH   2   3
TORSDOF 9
ENDMDL
MODEL      163
REMARK 921   NORMALIZED FREE ENERGY PREDICTED BY IDOCK:   -4.68 KCAL/MOL
REMARK 922        TOTAL FREE ENERGY PREDICTED BY IDOCK:   -8.32 KCAL/MOL
REMARK 923 INTER-LIGAND FREE ENERGY PREDICTED BY IDOCK:   -7.20 KCAL/MOL
REMARK 924 INTRA-LIGAND FREE ENERGY PREDICTED BY IDOCK:   -1.11 KCAL/MOL
REMARK 927      BINDING AFFINITY PREDICTED BY RF-SCORE:    0.00 PKD
ROOT
HETATM    1  C   UNL     1      -5.774   8.181  67.036  1.00  0.00    -0.038 C  
HETATM    2  O   UNL     1      -6.289   7.053  66.318  1.00  0.00    -0.047 OA 
ENDROOT
BRANCH   2   3
HETATM    3  C   UNL     1      -7.223   6.325  67.017  1.00  0.00    -0.075 A  
HETATM    4  C   UNL     1      -7.466   6.714  68.355  1.00  0.00    -0.095 A  
HETATM    5  C   UNL     1      -8.488   6.141  69.136  1.00  0.00    -0.119 A  
HETATM    6  C   UNL     1      -9.152   5.074  68.504  1.00  0.00    -0.136 A  
HETATM    7  C   UNL     1      -7.899   5.242  66.465  1.00  0.00    -0.100 A  
HETATM    8  C   UNL     1      -8.865   4.607  67.215  1.00  0.00    -0.105 A  
BRANCH   5   9
HETATM    9  N   UNL     1      -8.853   6.582  70.452  1.00  0.00    -0.150 NA 
BRANCH   9  10
HETATM   10  C   UNL     1      -8.416   5.784  71.643  1.00  0.00    -0.128 C  
BRANCH  10  11
HETATM   11  C   UNL     1      -8.479   4.238  71.545  1.00  0.00    -0.095 C  
BRANCH  11  12
HETATM   12  N   UNL     1      -9.782   3.599  71.722  1.00  0.00    -0.155 NA 
HETATM   13  H   UNL     1      -9.880   2.822  71.068  1.00  0.00     0.000 HD 
BRANCH  12  14
HETATM   14  C   UNL     1     -10.089   3.151  73.080  1.00  0.00    -0.146 C  
HETATM   15  C   UNL     1      -8.844   2.933  73.943  1.00  0.00    -0.075 C  
HETATM   16  C   UNL     1     -10.971   4.225  73.726  1.00  0.00    -0.344 C  
ENDBRANCH  12  14
ENDBRANCH  11  12
ENDBRANCH  10  11
ENDBRANCH   9  10
BRANCH   9  17
HETATM   17  C   UNL     1      -9.999   7.416  70.753  1.00  0.00    -0.182 A  
HETATM   18  C   UNL     1     -12.183  11.686  70.806  1.00  0.00    -0.344 A  
HETATM   19  C   UNL     1     -11.113   6.926  71.442  1.00  0.00    -0.284 A  
HETATM   20  C   UNL     1     -13.158  11.167  71.642  1.00  0.00    -0.424 A  
HETATM   21  N   UNL     1     -11.156  10.913  70.365  1.00  0.00    -0.136 NA 
HETATM   22  C   UNL     1     -11.132   9.621  70.764  1.00  0.00    -0.334 A  
HETATM   23  C   UNL     1     -12.136   7.765  71.902  1.00  0.00    -0.341 A  
HETATM   24  C   UNL     1     -12.158   9.105  71.583  1.00  0.00    -0.362 A  
HETATM   25  C   UNL     1     -10.076   8.779  70.387  1.00  0.00    -0.223 A  
HETATM   26  N   UNL     1     -13.168   9.872  72.037  1.00  0.00    -0.451 NA 
BRANCH  18  27
HETATM   27  C   UNL     1     -12.194  13.060  70.343  1.00  0.00    -0.386 A  
HETATM   28  N   UNL     1     -11.916  14.889  69.153  1.00  0.00    -0.297 NA 
HETATM   29  C   UNL     1     -11.692  13.541  69.149  1.00  0.00    -0.327 A  
HETATM   30  C   UNL     1     -11.564  15.834  68.123  1.00  0.00    -0.255 C  
HETATM   31  N   UNL     1     -12.526  15.327  70.270  1.00  0.00    -0.368 NA 
HETATM   32  C   UNL     1     -12.693  14.213  70.991  1.00  0.00    -0.362 A  
ENDBRANCH  18  27
ENDBRANCH   9  17
ENDBRANCH   5   9
BRANCH   8  33
HETATM   33  O   UNL     1      -9.622   3.537  66.822  1.00  0.00    -0.193 OA 
HETATM   34  C   UNL     1      -9.022   2.253  66.906  1.00  0.00    -0.126 C  
ENDBRANCH   8  33
ENDBRANCH   2   3
TORSDOF 9
ENDMDL
MODEL      164
REMARK 921   NORMALIZED FREE ENERGY PREDICTED BY IDOCK:   -4.66 KCAL/MOL
REMARK 922        TOTAL FREE ENERGY PREDICTED BY IDOCK:   -8.29 KCAL/MOL
REMARK 923 INTER-LIGAND FREE ENERGY PREDICTED BY IDOCK:   -7.78 KCAL/MOL
REMARK 924 INTRA-LIGAND FREE ENERGY PREDICTED BY IDOCK:   -0.51 KCAL/MOL
REMARK 927      BINDING AFFINITY PREDICTED BY RF-SCORE:    0.00 PKD
ROOT
HETATM    1  C   UNL     1     -11.643   5.757  72.333  1.00  0.00    -0.264 C  
HETATM    2  O   UNL     1     -12.239   6.641  71.375  1.00  0.00    -0.347 OA 
ENDROOT
BRANCH   2   3
HETATM    3  C   UNL     1     -11.469   6.851  70.255  1.00  0.00    -0.323 A  
HETATM    4  C   UNL     1     -10.986   8.164  70.049  1.00  0.00    -0.199 A  
HETATM    5  C   UNL     1     -10.080   8.484  69.018  1.00  0.00    -0.199 A  
HETATM    6  C   UNL     1      -9.805   7.410  68.153  1.00  0.00    -0.174 A  
HETATM    7  C   UNL     1     -11.178   5.842  69.343  1.00  0.00    -0.277 A  
HETATM    8  C   UNL     1     -10.346   6.124  68.280  1.00  0.00    -0.198 A  
BRANCH   5   9
HETATM    9  N   UNL     1      -9.469   9.771  68.841  1.00  0.00    -0.155 NA 
BRANCH   9  10
HETATM   10  C   UNL     1      -8.644  10.351  69.950  1.00  0.00     0.154 C  
BRANCH  10  11
HETATM   11  C   UNL     1      -7.232  10.888  69.602  1.00  0.00    -0.095 C  
BRANCH  11  12
HETATM   12  N   UNL     1      -7.041  12.337  69.585  1.00  0.00    -0.325 NA 
HETATM   13  H   UNL     1      -7.774  12.791  70.130  1.00  0.00     0.000 HD 
BRANCH  12  14
HETATM   14  C   UNL     1      -5.729  12.810  70.023  1.00  0.00    -0.136 C  
HETATM   15  C   UNL     1      -5.785  14.131  70.794  1.00  0.00    -0.192 C  
HETATM   16  C   UNL     1      -5.131  11.724  70.925  1.00  0.00    -0.130 C  
ENDBRANCH  12  14
ENDBRANCH  11  12
ENDBRANCH  10  11
ENDBRANCH   9  10
BRANCH   9  17
HETATM   17  C   UNL     1      -9.948  10.793  67.934  1.00  0.00    -0.174 A  
HETATM   18  C   UNL     1     -10.714  15.396  66.827  1.00  0.00    -0.310 A  
HETATM   19  C   UNL     1     -10.629  10.478  66.754  1.00  0.00    -0.284 A  
HETATM   20  C   UNL     1     -11.528  15.000  65.779  1.00  0.00    -0.236 A  
HETATM   21  N   UNL     1     -10.111  14.481  67.629  1.00  0.00    -0.228 NA 
HETATM   22  C   UNL     1     -10.328  13.174  67.357  1.00  0.00    -0.239 A  
HETATM   23  C   UNL     1     -11.260  11.453  65.971  1.00  0.00    -0.177 A  
HETATM   24  C   UNL     1     -11.129  12.794  66.259  1.00  0.00    -0.288 A  
HETATM   25  C   UNL     1      -9.777  12.176  68.173  1.00  0.00    -0.208 A  
HETATM   26  N   UNL     1     -11.742  13.699  65.473  1.00  0.00    -0.325 NA 
BRANCH  18  27
HETATM   27  C   UNL     1     -10.444  16.788  67.130  1.00  0.00    -0.299 A  
HETATM   28  N   UNL     1     -10.006  18.938  66.967  1.00  0.00    -0.322 NA 
HETATM   29  C   UNL     1     -10.227  17.811  66.227  1.00  0.00    -0.364 A  
HETATM   30  C   UNL     1      -9.726  20.263  66.474  1.00  0.00    -0.386 C  
HETATM   31  N   UNL     1     -10.058  18.725  68.295  1.00  0.00    -0.367 NA 
HETATM   32  C   UNL     1     -10.324  17.418  68.390  1.00  0.00    -0.379 A  
ENDBRANCH  18  27
ENDBRANCH   9  17
ENDBRANCH   5   9
BRANCH   8  33
HETATM   33  O   UNL     1      -9.957   5.250  67.303  1.00  0.00    -0.149 OA 
HETATM   34  C   UNL     1     -10.762   5.184  66.135  1.00  0.00    -0.185 C  
ENDBRANCH   8  33
ENDBRANCH   2   3
TORSDOF 9
ENDMDL
MODEL      165
REMARK 921   NORMALIZED FREE ENERGY PREDICTED BY IDOCK:   -4.66 KCAL/MOL
REMARK 922        TOTAL FREE ENERGY PREDICTED BY IDOCK:   -8.28 KCAL/MOL
REMARK 923 INTER-LIGAND FREE ENERGY PREDICTED BY IDOCK:   -6.73 KCAL/MOL
REMARK 924 INTRA-LIGAND FREE ENERGY PREDICTED BY IDOCK:   -1.55 KCAL/MOL
REMARK 927      BINDING AFFINITY PREDICTED BY RF-SCORE:    0.00 PKD
ROOT
HETATM    1  C   UNL     1      -5.419  14.358  71.647  1.00  0.00    -0.169 C  
HETATM    2  O   UNL     1      -5.299  15.743  71.298  1.00  0.00    -0.094 OA 
ENDROOT
BRANCH   2   3
HETATM    3  C   UNL     1      -5.831  16.057  70.069  1.00  0.00    -0.173 A  
HETATM    4  C   UNL     1      -7.101  15.517  69.766  1.00  0.00    -0.119 A  
HETATM    5  C   UNL     1      -7.815  15.868  68.603  1.00  0.00    -0.164 A  
HETATM    6  C   UNL     1      -7.094  16.700  67.727  1.00  0.00    -0.152 A  
HETATM    7  C   UNL     1      -5.163  16.853  69.144  1.00  0.00    -0.131 A  
HETATM    8  C   UNL     1      -5.796  17.170  67.961  1.00  0.00    -0.123 A  
BRANCH   5   9
HETATM    9  N   UNL     1      -9.154  15.444  68.309  1.00  0.00    -0.184 NA 
BRANCH   9  10
HETATM   10  C   UNL     1     -10.258  15.779  69.266  1.00  0.00    -0.248 C  
BRANCH  10  11
HETATM   11  C   UNL     1     -11.199  16.958  68.907  1.00  0.00    -0.016 C  
BRANCH  11  12
HETATM   12  N   UNL     1     -10.930  17.689  67.669  1.00  0.00    -0.213 NA 
HETATM   13  H   UNL     1     -11.735  17.628  67.047  1.00  0.00     0.000 HD 
BRANCH  12  14
HETATM   14  C   UNL     1     -10.530  19.086  67.833  1.00  0.00    -0.393 C  
HETATM   15  C   UNL     1      -9.811  19.361  69.156  1.00  0.00    -0.425 C  
HETATM   16  C   UNL     1      -9.595  19.432  66.669  1.00  0.00    -0.429 C  
ENDBRANCH  12  14
ENDBRANCH  11  12
ENDBRANCH  10  11
ENDBRANCH   9  10
BRANCH   9  17
HETATM   17  C   UNL     1      -9.495  14.315  67.467  1.00  0.00    -0.209 A  
HETATM   18  C   UNL     1      -9.753   9.590  66.687  1.00  0.00    -0.211 A  
HETATM   19  C   UNL     1      -9.916  14.477  66.144  1.00  0.00    -0.330 A  
HETATM   20  C   UNL     1      -9.989   9.834  65.344  1.00  0.00    -0.232 A  
HETATM   21  N   UNL     1      -9.572  10.613  67.562  1.00  0.00    -0.160 NA 
HETATM   22  C   UNL     1      -9.643  11.872  67.072  1.00  0.00    -0.189 A  
HETATM   23  C   UNL     1     -10.064  13.394  65.268  1.00  0.00    -0.266 A  
HETATM   24  C   UNL     1      -9.924  12.096  65.708  1.00  0.00    -0.249 A  
HETATM   25  C   UNL     1      -9.418  12.975  67.909  1.00  0.00    -0.219 A  
HETATM   26  N   UNL     1     -10.086  11.084  64.835  1.00  0.00    -0.278 NA 
BRANCH  18  27
HETATM   27  C   UNL     1      -9.695   8.253  67.245  1.00  0.00    -0.234 A  
HETATM   28  N   UNL     1     -10.081   6.443  68.433  1.00  0.00    -0.148 NA 
HETATM   29  C   UNL     1     -10.514   7.722  68.223  1.00  0.00    -0.168 A  
HETATM   30  C   UNL     1     -10.618   5.484  69.367  1.00  0.00    -0.279 C  
HETATM   31  N   UNL     1      -9.031   6.099  67.665  1.00  0.00    -0.113 NA 
HETATM   32  C   UNL     1      -8.799   7.201  66.945  1.00  0.00    -0.128 A  
ENDBRANCH  18  27
ENDBRANCH   9  17
ENDBRANCH   5   9
BRANCH   8  33
HETATM   33  O   UNL     1      -5.286  17.942  66.952  1.00  0.00    -0.129 OA 
HETATM   34  C   UNL     1      -5.324  19.350  67.132  1.00  0.00    -0.161 C  
ENDBRANCH   8  33
ENDBRANCH   2   3
TORSDOF 9
ENDMDL
MODEL      166
REMARK 921   NORMALIZED FREE ENERGY PREDICTED BY IDOCK:   -4.62 KCAL/MOL
REMARK 922        TOTAL FREE ENERGY PREDICTED BY IDOCK:   -8.22 KCAL/MOL
REMARK 923 INTER-LIGAND FREE ENERGY PREDICTED BY IDOCK:   -6.58 KCAL/MOL
REMARK 924 INTRA-LIGAND FREE ENERGY PREDICTED BY IDOCK:   -1.63 KCAL/MOL
REMARK 927      BINDING AFFINITY PREDICTED BY RF-SCORE:    0.00 PKD
ROOT
HETATM    1  C   UNL     1     -11.412   7.964  72.579  1.00  0.00    -0.398 C  
HETATM    2  O   UNL     1     -11.285   6.659  73.156  1.00  0.00    -0.208 OA 
ENDROOT
BRANCH   2   3
HETATM    3  C   UNL     1     -10.809   5.707  72.285  1.00  0.00    -0.242 A  
HETATM    4  C   UNL     1     -10.696   6.083  70.927  1.00  0.00    -0.329 A  
HETATM    5  C   UNL     1     -10.100   5.252  69.958  1.00  0.00    -0.266 A  
HETATM    6  C   UNL     1      -9.745   3.981  70.445  1.00  0.00    -0.263 A  
HETATM    7  C   UNL     1     -10.463   4.423  72.691  1.00  0.00    -0.249 A  
HETATM    8  C   UNL     1      -9.934   3.550  71.764  1.00  0.00    -0.131 A  
BRANCH   5   9
HETATM    9  N   UNL     1      -9.853   5.634  68.596  1.00  0.00    -0.136 NA 
BRANCH   9  10
HETATM   10  C   UNL     1      -9.853   4.584  67.527  1.00  0.00    -0.140 C  
BRANCH  10  11
HETATM   11  C   UNL     1     -10.624   4.882  66.215  1.00  0.00    -0.255 C  
BRANCH  11  12
HETATM   12  N   UNL     1      -9.900   4.731  64.953  1.00  0.00    -0.369 NA 
HETATM   13  H   UNL     1     -10.300   5.348  64.246  1.00  0.00     0.000 HD 
BRANCH  12  14
HETATM   14  C   UNL     1      -8.453   4.928  65.025  1.00  0.00    -0.142 C  
HETATM   15  C   UNL     1      -7.661   3.929  64.177  1.00  0.00    -0.083 C  
HETATM   16  C   UNL     1      -8.161   6.350  64.535  1.00  0.00    -0.088 C  
ENDBRANCH  12  14
ENDBRANCH  11  12
ENDBRANCH  10  11
ENDBRANCH   9  10
BRANCH   9  17
HETATM   17  C   UNL     1      -9.118   6.815  68.193  1.00  0.00    -0.123 A  
HETATM   18  C   UNL     1      -8.981  11.271  66.425  1.00  0.00    -0.188 A  
HETATM   19  C   UNL     1      -7.720   6.847  68.169  1.00  0.00    -0.113 A  
HETATM   20  C   UNL     1      -7.610  11.155  66.263  1.00  0.00    -0.075 A  
HETATM   21  N   UNL     1      -9.713  10.249  66.939  1.00  0.00    -0.179 NA 
HETATM   22  C   UNL     1      -9.051   9.125  67.294  1.00  0.00    -0.126 A  
HETATM   23  C   UNL     1      -7.006   7.911  67.604  1.00  0.00    -0.074 A  
HETATM   24  C   UNL     1      -7.649   9.045  67.157  1.00  0.00    -0.091 A  
HETATM   25  C   UNL     1      -9.749   8.013  67.786  1.00  0.00    -0.191 A  
HETATM   26  N   UNL     1      -6.922  10.049  66.631  1.00  0.00    -0.085 NA 
BRANCH  18  27
HETATM   27  C   UNL     1      -9.715  12.472  66.075  1.00  0.00    -0.247 A  
HETATM   28  N   UNL     1     -11.132  13.892  65.175  1.00  0.00    -0.320 NA 
HETATM   29  C   UNL     1     -10.771  12.574  65.191  1.00  0.00    -0.292 A  
HETATM   30  C   UNL     1     -12.186  14.497  64.398  1.00  0.00    -0.458 C  
HETATM   31  N   UNL     1     -10.383  14.663  65.983  1.00  0.00    -0.291 NA 
HETATM   32  C   UNL     1      -9.522  13.797  66.529  1.00  0.00    -0.269 A  
ENDBRANCH  18  27
ENDBRANCH   9  17
ENDBRANCH   5   9
BRANCH   8  33
HETATM   33  O   UNL     1      -9.539   2.262  71.998  1.00  0.00    -0.099 OA 
HETATM   34  C   UNL     1      -8.558   2.058  73.004  1.00  0.00    -0.062 C  
ENDBRANCH   8  33
ENDBRANCH   2   3
TORSDOF 9
ENDMDL
MODEL      167
REMARK 921   NORMALIZED FREE ENERGY PREDICTED BY IDOCK:   -4.61 KCAL/MOL
REMARK 922        TOTAL FREE ENERGY PREDICTED BY IDOCK:   -8.21 KCAL/MOL
REMARK 923 INTER-LIGAND FREE ENERGY PREDICTED BY IDOCK:   -6.88 KCAL/MOL
REMARK 924 INTRA-LIGAND FREE ENERGY PREDICTED BY IDOCK:   -1.33 KCAL/MOL
REMARK 927      BINDING AFFINITY PREDICTED BY RF-SCORE:    0.00 PKD
ROOT
HETATM    1  C   UNL     1     -11.110   6.895  70.972  1.00  0.00    -0.266 C  
HETATM    2  O   UNL     1     -11.393   6.943  69.567  1.00  0.00    -0.236 OA 
ENDROOT
BRANCH   2   3
HETATM    3  C   UNL     1     -10.275   7.076  68.777  1.00  0.00    -0.176 A  
HETATM    4  C   UNL     1     -10.098   8.318  68.125  1.00  0.00    -0.238 A  
HETATM    5  C   UNL     1      -8.933   8.631  67.397  1.00  0.00    -0.133 A  
HETATM    6  C   UNL     1      -8.032   7.557  67.282  1.00  0.00    -0.118 A  
HETATM    7  C   UNL     1      -9.356   6.048  68.597  1.00  0.00    -0.121 A  
HETATM    8  C   UNL     1      -8.230   6.287  67.838  1.00  0.00    -0.114 A  
BRANCH   5   9
HETATM    9  N   UNL     1      -8.653   9.916  66.821  1.00  0.00    -0.128 NA 
BRANCH   9  10
HETATM   10  C   UNL     1      -8.262  10.004  65.377  1.00  0.00    -0.149 C  
BRANCH  10  11
HETATM   11  C   UNL     1      -9.376  10.292  64.337  1.00  0.00    -0.277 C  
BRANCH  11  12
HETATM   12  N   UNL     1     -10.650  10.811  64.834  1.00  0.00    -0.255 NA 
HETATM   13  H   UNL     1     -10.598  10.956  65.842  1.00  0.00     0.000 HD 
BRANCH  12  14
HETATM   14  C   UNL     1     -11.139  12.024  64.180  1.00  0.00    -0.368 C  
HETATM   15  C   UNL     1     -12.502  11.844  63.507  1.00  0.00    -0.609 C  
HETATM   16  C   UNL     1     -11.245  13.111  65.254  1.00  0.00    -0.315 C  
ENDBRANCH  12  14
ENDBRANCH  11  12
ENDBRANCH  10  11
ENDBRANCH   9  10
BRANCH   9  17
HETATM   17  C   UNL     1      -8.218  11.077  67.569  1.00  0.00    -0.117 A  
HETATM   18  C   UNL     1      -8.058  15.825  68.229  1.00  0.00    -0.142 A  
HETATM   19  C   UNL     1      -7.328  10.977  68.643  1.00  0.00    -0.104 A  
HETATM   20  C   UNL     1      -7.044  15.653  69.157  1.00  0.00    -0.168 A  
HETATM   21  N   UNL     1      -8.615  14.760  67.596  1.00  0.00    -0.164 NA 
HETATM   22  C   UNL     1      -8.150  13.531  67.918  1.00  0.00    -0.165 A  
HETATM   23  C   UNL     1      -6.757  12.104  69.248  1.00  0.00    -0.084 A  
HETATM   24  C   UNL     1      -7.145  13.378  68.896  1.00  0.00    -0.084 A  
HETATM   25  C   UNL     1      -8.645  12.390  67.269  1.00  0.00    -0.185 A  
HETATM   26  N   UNL     1      -6.578  14.432  69.512  1.00  0.00    -0.133 NA 
BRANCH  18  27
HETATM   27  C   UNL     1      -8.592  17.127  67.881  1.00  0.00    -0.214 A  
HETATM   28  N   UNL     1      -9.669  18.772  66.896  1.00  0.00    -0.303 NA 
HETATM   29  C   UNL     1      -9.448  17.425  66.838  1.00  0.00    -0.269 A  
HETATM   30  C   UNL     1     -10.494  19.558  66.011  1.00  0.00    -0.516 C  
HETATM   31  N   UNL     1      -9.014  19.381  67.901  1.00  0.00    -0.311 NA 
HETATM   32  C   UNL     1      -8.360  18.378  68.497  1.00  0.00    -0.323 A  
ENDBRANCH  18  27
ENDBRANCH   9  17
ENDBRANCH   5   9
BRANCH   8  33
HETATM   33  O   UNL     1      -7.230   5.393  67.569  1.00  0.00    -0.072 OA 
HETATM   34  C   UNL     1      -6.031   5.911  67.013  1.00  0.00    -0.018 C  
ENDBRANCH   8  33
ENDBRANCH   2   3
TORSDOF 9
ENDMDL
MODEL      168
REMARK 921   NORMALIZED FREE ENERGY PREDICTED BY IDOCK:   -4.61 KCAL/MOL
REMARK 922        TOTAL FREE ENERGY PREDICTED BY IDOCK:   -8.20 KCAL/MOL
REMARK 923 INTER-LIGAND FREE ENERGY PREDICTED BY IDOCK:   -8.02 KCAL/MOL
REMARK 924 INTRA-LIGAND FREE ENERGY PREDICTED BY IDOCK:   -0.18 KCAL/MOL
REMARK 927      BINDING AFFINITY PREDICTED BY RF-SCORE:    0.00 PKD
ROOT
HETATM    1  C   UNL     1     -13.661   9.402  72.200  1.00  0.00    -0.457 C  
HETATM    2  O   UNL     1     -12.622   9.365  71.214  1.00  0.00    -0.316 OA 
ENDROOT
BRANCH   2   3
HETATM    3  C   UNL     1     -11.956   8.164  71.148  1.00  0.00    -0.273 A  
HETATM    4  C   UNL     1     -11.023   8.007  70.098  1.00  0.00    -0.226 A  
HETATM    5  C   UNL     1     -10.180   6.883  69.996  1.00  0.00    -0.196 A  
HETATM    6  C   UNL     1     -10.441   5.891  70.958  1.00  0.00    -0.296 A  
HETATM    7  C   UNL     1     -12.182   7.130  72.050  1.00  0.00    -0.314 A  
HETATM    8  C   UNL     1     -11.425   5.981  71.950  1.00  0.00    -0.269 A  
BRANCH   5   9
HETATM    9  N   UNL     1      -9.136   6.733  69.021  1.00  0.00    -0.138 NA 
BRANCH   9  10
HETATM   10  C   UNL     1      -7.820   6.150  69.439  1.00  0.00    -0.100 C  
BRANCH  10  11
HETATM   11  C   UNL     1      -7.799   4.683  69.939  1.00  0.00    -0.061 C  
BRANCH  11  12
HETATM   12  N   UNL     1      -7.145   3.686  69.093  1.00  0.00    -0.046 NA 
HETATM   13  H   UNL     1      -6.199   3.510  69.430  1.00  0.00     0.000 HD 
BRANCH  12  14
HETATM   14  C   UNL     1      -7.862   2.421  68.934  1.00  0.00    -0.049 C  
HETATM   15  C   UNL     1      -9.383   2.571  69.013  1.00  0.00    -0.209 C  
HETATM   16  C   UNL     1      -7.481   1.849  67.565  1.00  0.00    -0.055 C  
ENDBRANCH  12  14
ENDBRANCH  11  12
ENDBRANCH  10  11
ENDBRANCH   9  10
BRANCH   9  17
HETATM   17  C   UNL     1      -9.018   7.522  67.813  1.00  0.00    -0.131 A  
HETATM   18  C   UNL     1     -10.378  11.204  65.057  1.00  0.00    -0.301 A  
HETATM   19  C   UNL     1      -8.184   7.142  66.757  1.00  0.00    -0.114 A  
HETATM   20  C   UNL     1      -9.668  10.662  63.998  1.00  0.00    -0.315 A  
HETATM   21  N   UNL     1     -10.408  10.588  66.267  1.00  0.00    -0.230 NA 
HETATM   22  C   UNL     1      -9.711   9.436  66.397  1.00  0.00    -0.250 A  
HETATM   23  C   UNL     1      -8.206   7.791  65.516  1.00  0.00    -0.137 A  
HETATM   24  C   UNL     1      -8.963   8.924  65.316  1.00  0.00    -0.162 A  
HETATM   25  C   UNL     1      -9.737   8.721  67.603  1.00  0.00    -0.210 A  
HETATM   26  N   UNL     1      -8.945   9.523  64.110  1.00  0.00    -0.225 NA 
BRANCH  18  27
HETATM   27  C   UNL     1     -11.115  12.449  64.955  1.00  0.00    -0.344 A  
HETATM   28  N   UNL     1     -11.670  14.554  64.644  1.00  0.00    -0.421 NA 
HETATM   29  C   UNL     1     -10.617  13.684  64.589  1.00  0.00    -0.430 A  
HETATM   30  C   UNL     1     -11.649  15.966  64.354  1.00  0.00    -0.234 C  
HETATM   31  N   UNL     1     -12.823  13.976  65.025  1.00  0.00    -0.732 NA 
HETATM   32  C   UNL     1     -12.483  12.697  65.213  1.00  0.00    -0.416 A  
ENDBRANCH  18  27
ENDBRANCH   9  17
ENDBRANCH   5   9
BRANCH   8  33
HETATM   33  O   UNL     1     -11.516   4.879  72.756  1.00  0.00    -0.203 OA 
HETATM   34  C   UNL     1     -10.415   3.983  72.753  1.00  0.00    -0.159 C  
ENDBRANCH   8  33
ENDBRANCH   2   3
TORSDOF 9
ENDMDL
MODEL      169
REMARK 921   NORMALIZED FREE ENERGY PREDICTED BY IDOCK:   -4.61 KCAL/MOL
REMARK 922        TOTAL FREE ENERGY PREDICTED BY IDOCK:   -8.20 KCAL/MOL
REMARK 923 INTER-LIGAND FREE ENERGY PREDICTED BY IDOCK:   -7.11 KCAL/MOL
REMARK 924 INTRA-LIGAND FREE ENERGY PREDICTED BY IDOCK:   -1.09 KCAL/MOL
REMARK 927      BINDING AFFINITY PREDICTED BY RF-SCORE:    0.00 PKD
ROOT
HETATM    1  C   UNL     1      -9.945   6.270  70.838  1.00  0.00    -0.186 C  
HETATM    2  O   UNL     1      -9.147   5.787  69.750  1.00  0.00    -0.133 OA 
ENDROOT
BRANCH   2   3
HETATM    3  C   UNL     1      -9.115   6.629  68.664  1.00  0.00    -0.126 A  
HETATM    4  C   UNL     1      -9.456   7.982  68.894  1.00  0.00    -0.151 A  
HETATM    5  C   UNL     1      -9.335   8.973  67.900  1.00  0.00    -0.141 A  
HETATM    6  C   UNL     1      -8.965   8.468  66.640  1.00  0.00    -0.178 A  
HETATM    7  C   UNL     1      -8.784   6.194  67.385  1.00  0.00    -0.104 A  
HETATM    8  C   UNL     1      -8.715   7.118  66.364  1.00  0.00    -0.139 A  
BRANCH   5   9
HETATM    9  N   UNL     1      -9.551  10.375  68.116  1.00  0.00    -0.143 NA 
BRANCH   9  10
HETATM   10  C   UNL     1     -10.899  10.964  67.829  1.00  0.00    -0.259 C  
BRANCH  10  11
HETATM   11  C   UNL     1     -11.276  11.233  66.350  1.00  0.00    -0.121 C  
BRANCH  11  12
HETATM   12  N   UNL     1     -12.111  12.399  66.063  1.00  0.00    -0.638 NA 
HETATM   13  H   UNL     1     -11.751  13.215  66.559  1.00  0.00     0.000 HD 
BRANCH  12  14
HETATM   14  C   UNL     1     -12.293  12.716  64.647  1.00  0.00    -0.476 C  
HETATM   15  C   UNL     1     -11.980  14.175  64.306  1.00  0.00    -0.460 C  
HETATM   16  C   UNL     1     -11.358  11.799  63.851  1.00  0.00    -0.494 C  
ENDBRANCH  12  14
ENDBRANCH  11  12
ENDBRANCH  10  11
ENDBRANCH   9  10
BRANCH   9  17
HETATM   17  C   UNL     1      -8.509  11.381  68.101  1.00  0.00    -0.152 A  
HETATM   18  C   UNL     1      -7.095  15.951  67.761  1.00  0.00    -0.148 A  
HETATM   19  C   UNL     1      -7.152  11.045  68.111  1.00  0.00    -0.074 A  
HETATM   20  C   UNL     1      -5.787  15.525  67.595  1.00  0.00    -0.107 A  
HETATM   21  N   UNL     1      -8.105  15.059  67.930  1.00  0.00    -0.129 NA 
HETATM   22  C   UNL     1      -7.781  13.746  67.941  1.00  0.00    -0.161 A  
HETATM   23  C   UNL     1      -6.144  11.995  67.906  1.00  0.00    -0.062 A  
HETATM   24  C   UNL     1      -6.437  13.337  67.811  1.00  0.00    -0.159 A  
HETATM   25  C   UNL     1      -8.779  12.768  68.063  1.00  0.00    -0.194 A  
HETATM   26  N   UNL     1      -5.436  14.218  67.625  1.00  0.00    -0.338 NA 
BRANCH  18  27
HETATM   27  C   UNL     1      -7.469  17.352  67.776  1.00  0.00    -0.195 A  
HETATM   28  N   UNL     1      -7.494  19.533  67.497  1.00  0.00    -0.240 NA 
HETATM   29  C   UNL     1      -6.766  18.408  67.229  1.00  0.00    -0.196 A  
HETATM   30  C   UNL     1      -7.167  20.889  67.132  1.00  0.00    -0.334 C  
HETATM   31  N   UNL     1      -8.624  19.290  68.185  1.00  0.00    -0.316 NA 
HETATM   32  C   UNL     1      -8.605  17.963  68.354  1.00  0.00    -0.293 A  
ENDBRANCH  18  27
ENDBRANCH   9  17
ENDBRANCH   5   9
BRANCH   8  33
HETATM   33  O   UNL     1      -8.399   6.859  65.058  1.00  0.00    -0.127 OA 
HETATM   34  C   UNL     1      -7.805   7.913  64.315  1.00  0.00    -0.136 C  
ENDBRANCH   8  33
ENDBRANCH   2   3
TORSDOF 9
ENDMDL
MODEL      170
REMARK 921   NORMALIZED FREE ENERGY PREDICTED BY IDOCK:   -4.60 KCAL/MOL
REMARK 922        TOTAL FREE ENERGY PREDICTED BY IDOCK:   -8.19 KCAL/MOL
REMARK 923 INTER-LIGAND FREE ENERGY PREDICTED BY IDOCK:   -6.94 KCAL/MOL
REMARK 924 INTRA-LIGAND FREE ENERGY PREDICTED BY IDOCK:   -1.25 KCAL/MOL
REMARK 927      BINDING AFFINITY PREDICTED BY RF-SCORE:    0.00 PKD
ROOT
HETATM    1  C   UNL     1     -12.273  14.830  64.042  1.00  0.00    -0.155 C  
HETATM    2  O   UNL     1     -11.371  15.745  64.676  1.00  0.00    -0.432 OA 
ENDROOT
BRANCH   2   3
HETATM    3  C   UNL     1     -10.755  15.237  65.796  1.00  0.00    -0.348 A  
HETATM    4  C   UNL     1     -11.225  13.992  66.273  1.00  0.00    -0.320 A  
HETATM    5  C   UNL     1     -10.596  13.299  67.327  1.00  0.00    -0.247 A  
HETATM    6  C   UNL     1      -9.547  14.018  67.929  1.00  0.00    -0.221 A  
HETATM    7  C   UNL     1      -9.730  15.904  66.457  1.00  0.00    -0.286 A  
HETATM    8  C   UNL     1      -9.126  15.294  67.536  1.00  0.00    -0.185 A  
BRANCH   5   9
HETATM    9  N   UNL     1     -10.958  11.982  67.767  1.00  0.00    -0.220 NA 
BRANCH   9  10
HETATM   10  C   UNL     1     -11.394  11.775  69.186  1.00  0.00    -0.279 C  
BRANCH  10  11
HETATM   11  C   UNL     1     -12.400  12.786  69.793  1.00  0.00    -0.032 C  
BRANCH  11  12
HETATM   12  N   UNL     1     -12.247  13.130  71.206  1.00  0.00    -0.322 NA 
HETATM   13  H   UNL     1     -11.343  12.806  71.548  1.00  0.00     0.000 HD 
BRANCH  12  14
HETATM   14  C   UNL     1     -12.430  14.542  71.538  1.00  0.00    -0.355 C  
HETATM   15  C   UNL     1     -12.550  14.802  73.042  1.00  0.00    -0.504 C  
HETATM   16  C   UNL     1     -11.216  15.300  70.990  1.00  0.00    -0.378 C  
ENDBRANCH  12  14
ENDBRANCH  11  12
ENDBRANCH  10  11
ENDBRANCH   9  10
BRANCH   9  17
HETATM   17  C   UNL     1     -10.485  10.753  67.163  1.00  0.00    -0.237 A  
HETATM   18  C   UNL     1      -8.946   6.225  67.519  1.00  0.00    -0.108 A  
HETATM   19  C   UNL     1     -10.203  10.658  65.797  1.00  0.00    -0.317 A  
HETATM   20  C   UNL     1      -8.527   6.272  66.199  1.00  0.00    -0.138 A  
HETATM   21  N   UNL     1      -9.536   7.299  68.105  1.00  0.00    -0.134 NA 
HETATM   22  C   UNL     1      -9.705   8.407  67.348  1.00  0.00    -0.170 A  
HETATM   23  C   UNL     1      -9.570   9.540  65.239  1.00  0.00    -0.314 A  
HETATM   24  C   UNL     1      -9.307   8.418  65.995  1.00  0.00    -0.177 A  
HETATM   25  C   UNL     1     -10.262   9.569  67.901  1.00  0.00    -0.251 A  
HETATM   26  N   UNL     1      -8.706   7.361  65.416  1.00  0.00    -0.038 NA 
BRANCH  18  27
HETATM   27  C   UNL     1      -8.799   5.045  68.348  1.00  0.00    -0.111 A  
HETATM   28  N   UNL     1      -8.326   3.026  69.083  1.00  0.00    -0.059 NA 
HETATM   29  C   UNL     1      -8.236   3.836  67.986  1.00  0.00    -0.087 A  
HETATM   30  C   UNL     1      -7.878   1.660  69.195  1.00  0.00    -0.045 C  
HETATM   31  N   UNL     1      -8.913   3.617  70.139  1.00  0.00    -0.099 NA 
HETATM   32  C   UNL     1      -9.200   4.843  69.690  1.00  0.00    -0.118 A  
ENDBRANCH  18  27
ENDBRANCH   9  17
ENDBRANCH   5   9
BRANCH   8  33
HETATM   33  O   UNL     1      -8.105  15.807  68.289  1.00  0.00    -0.137 OA 
HETATM   34  C   UNL     1      -6.855  15.135  68.228  1.00  0.00    -0.117 C  
ENDBRANCH   8  33
ENDBRANCH   2   3
TORSDOF 9
ENDMDL
MODEL      171
REMARK 921   NORMALIZED FREE ENERGY PREDICTED BY IDOCK:   -4.58 KCAL/MOL
REMARK 922        TOTAL FREE ENERGY PREDICTED BY IDOCK:   -8.17 KCAL/MOL
REMARK 923 INTER-LIGAND FREE ENERGY PREDICTED BY IDOCK:   -6.97 KCAL/MOL
REMARK 924 INTRA-LIGAND FREE ENERGY PREDICTED BY IDOCK:   -1.19 KCAL/MOL
REMARK 927      BINDING AFFINITY PREDICTED BY RF-SCORE:    0.00 PKD
ROOT
HETATM    1  C   UNL     1     -13.326   9.666  72.286  1.00  0.00    -0.408 C  
HETATM    2  O   UNL     1     -12.696   8.547  71.650  1.00  0.00    -0.312 OA 
ENDROOT
BRANCH   2   3
HETATM    3  C   UNL     1     -11.366   8.745  71.360  1.00  0.00    -0.294 A  
HETATM    4  C   UNL     1     -11.063   9.275  70.084  1.00  0.00    -0.260 A  
HETATM    5  C   UNL     1      -9.757   9.650  69.711  1.00  0.00    -0.224 A  
HETATM    6  C   UNL     1      -8.782   9.335  70.674  1.00  0.00    -0.282 A  
HETATM    7  C   UNL     1     -10.348   8.433  72.253  1.00  0.00    -0.403 A  
HETATM    8  C   UNL     1      -9.045   8.722  71.906  1.00  0.00    -0.220 A  
BRANCH   5   9
HETATM    9  N   UNL     1      -9.417  10.302  68.478  1.00  0.00    -0.153 NA 
BRANCH   9  10
HETATM   10  C   UNL     1      -9.339   9.495  67.218  1.00  0.00    -0.134 C  
BRANCH  10  11
HETATM   11  C   UNL     1     -10.622   9.363  66.357  1.00  0.00     0.005 C  
BRANCH  11  12
HETATM   12  N   UNL     1     -10.695  10.144  65.123  1.00  0.00     0.202 NA 
HETATM   13  H   UNL     1     -11.461  10.815  65.181  1.00  0.00     0.000 HD 
BRANCH  12  14
HETATM   14  C   UNL     1      -9.463  10.827  64.731  1.00  0.00    -0.247 C  
HETATM   15  C   UNL     1      -9.015  10.500  63.304  1.00  0.00    -0.236 C  
HETATM   16  C   UNL     1      -9.719  12.333  64.848  1.00  0.00    -0.054 C  
ENDBRANCH  12  14
ENDBRANCH  11  12
ENDBRANCH  10  11
ENDBRANCH   9  10
BRANCH   9  17
HETATM   17  C   UNL     1      -8.660  11.533  68.379  1.00  0.00    -0.159 A  
HETATM   18  C   UNL     1      -8.380  16.218  67.395  1.00  0.00    -0.169 A  
HETATM   19  C   UNL     1      -7.274  11.567  68.556  1.00  0.00    -0.096 A  
HETATM   20  C   UNL     1      -6.997  16.130  67.410  1.00  0.00    -0.182 A  
HETATM   21  N   UNL     1      -9.153  15.126  67.629  1.00  0.00    -0.178 NA 
HETATM   22  C   UNL     1      -8.521  13.958  67.886  1.00  0.00    -0.177 A  
HETATM   23  C   UNL     1      -6.512  12.709  68.277  1.00  0.00    -0.073 A  
HETATM   24  C   UNL     1      -7.112  13.901  67.935  1.00  0.00    -0.163 A  
HETATM   25  C   UNL     1      -9.255  12.781  68.088  1.00  0.00    -0.212 A  
HETATM   26  N   UNL     1      -6.342  14.978  67.686  1.00  0.00    -0.241 NA 
BRANCH  18  27
HETATM   27  C   UNL     1      -9.085  17.460  67.145  1.00  0.00    -0.242 A  
HETATM   28  N   UNL     1      -9.750  19.556  67.191  1.00  0.00    -0.325 NA 
HETATM   29  C   UNL     1      -8.832  18.692  67.718  1.00  0.00    -0.275 A  
HETATM   30  C   UNL     1      -9.893  20.960  67.486  1.00  0.00    -0.155 C  
HETATM   31  N   UNL     1     -10.591  18.976  66.316  1.00  0.00    -0.432 NA 
HETATM   32  C   UNL     1     -10.185  17.703  66.291  1.00  0.00    -0.362 A  
ENDBRANCH  18  27
ENDBRANCH   9  17
ENDBRANCH   5   9
BRANCH   8  33
HETATM   33  O   UNL     1      -7.933   8.487  72.667  1.00  0.00    -0.298 OA 
HETATM   34  C   UNL     1      -8.133   8.272  74.056  1.00  0.00    -0.210 C  
ENDBRANCH   8  33
ENDBRANCH   2   3
TORSDOF 9
ENDMDL
MODEL      172
REMARK 921   NORMALIZED FREE ENERGY PREDICTED BY IDOCK:   -4.53 KCAL/MOL
REMARK 922        TOTAL FREE ENERGY PREDICTED BY IDOCK:   -8.09 KCAL/MOL
REMARK 923 INTER-LIGAND FREE ENERGY PREDICTED BY IDOCK:   -6.74 KCAL/MOL
REMARK 924 INTRA-LIGAND FREE ENERGY PREDICTED BY IDOCK:   -1.35 KCAL/MOL
REMARK 927      BINDING AFFINITY PREDICTED BY RF-SCORE:    0.00 PKD
ROOT
HETATM    1  C   UNL     1     -12.737  13.356  64.927  1.00  0.00    -0.304 C  
HETATM    2  O   UNL     1     -12.108  14.637  64.799  1.00  0.00    -0.421 OA 
ENDROOT
BRANCH   2   3
HETATM    3  C   UNL     1     -11.149  14.887  65.753  1.00  0.00    -0.342 A  
HETATM    4  C   UNL     1     -10.625  13.768  66.439  1.00  0.00    -0.284 A  
HETATM    5  C   UNL     1      -9.547  13.870  67.342  1.00  0.00    -0.235 A  
HETATM    6  C   UNL     1      -9.134  15.193  67.580  1.00  0.00    -0.181 A  
HETATM    7  C   UNL     1     -10.711  16.171  66.059  1.00  0.00    -0.245 A  
HETATM    8  C   UNL     1      -9.702  16.327  66.985  1.00  0.00    -0.239 A  
BRANCH   5   9
HETATM    9  N   UNL     1      -8.901  12.753  67.970  1.00  0.00    -0.189 NA 
BRANCH   9  10
HETATM   10  C   UNL     1      -7.414  12.773  68.154  1.00  0.00    -0.124 C  
BRANCH  10  11
HETATM   11  C   UNL     1      -6.542  12.022  67.114  1.00  0.00    -0.143 C  
BRANCH  11  12
HETATM   12  N   UNL     1      -5.921  10.765  67.530  1.00  0.00    -0.044 NA 
HETATM   13  H   UNL     1      -6.308  10.465  68.425  1.00  0.00     0.000 HD 
BRANCH  12  14
HETATM   14  C   UNL     1      -5.995   9.672  66.562  1.00  0.00    -0.059 C  
HETATM   15  C   UNL     1      -6.667   8.413  67.118  1.00  0.00    -0.063 C  
HETATM   16  C   UNL     1      -6.795  10.181  65.358  1.00  0.00    -0.128 C  
ENDBRANCH  12  14
ENDBRANCH  11  12
ENDBRANCH  10  11
ENDBRANCH   9  10
BRANCH   9  17
HETATM   17  C   UNL     1      -9.431  11.405  67.999  1.00  0.00    -0.181 A  
HETATM   18  C   UNL     1     -10.034   7.181  70.189  1.00  0.00    -0.186 A  
HETATM   19  C   UNL     1     -10.063  10.832  66.892  1.00  0.00    -0.255 A  
HETATM   20  C   UNL     1     -10.483   6.637  68.997  1.00  0.00    -0.214 A  
HETATM   21  N   UNL     1      -9.660   8.485  70.266  1.00  0.00    -0.164 NA 
HETATM   22  C   UNL     1      -9.755   9.228  69.140  1.00  0.00    -0.164 A  
HETATM   23  C   UNL     1     -10.407   9.475  66.846  1.00  0.00    -0.307 A  
HETATM   24  C   UNL     1     -10.254   8.662  67.948  1.00  0.00    -0.219 A  
HETATM   25  C   UNL     1      -9.341  10.568  69.134  1.00  0.00    -0.200 A  
HETATM   26  N   UNL     1     -10.608   7.366  67.863  1.00  0.00    -0.208 NA 
BRANCH  18  27
HETATM   27  C   UNL     1      -9.943   6.416  71.417  1.00  0.00    -0.206 A  
HETATM   28  N   UNL     1     -10.324   4.997  73.054  1.00  0.00    -0.178 NA 
HETATM   29  C   UNL     1     -10.798   5.418  71.843  1.00  0.00    -0.186 A  
HETATM   30  C   UNL     1     -10.883   3.970  73.898  1.00  0.00    -0.239 C  
HETATM   31  N   UNL     1      -9.220   5.652  73.455  1.00  0.00    -0.135 NA 
HETATM   32  C   UNL     1      -8.991   6.514  72.459  1.00  0.00    -0.135 A  
ENDBRANCH  18  27
ENDBRANCH   9  17
ENDBRANCH   5   9
BRANCH   8  33
HETATM   33  O   UNL     1      -9.153  17.512  67.393  1.00  0.00    -0.234 OA 
HETATM   34  C   UNL     1      -9.990  18.658  67.358  1.00  0.00    -0.332 C  
ENDBRANCH   8  33
ENDBRANCH   2   3
TORSDOF 9
ENDMDL
MODEL      173
REMARK 921   NORMALIZED FREE ENERGY PREDICTED BY IDOCK:   -4.53 KCAL/MOL
REMARK 922        TOTAL FREE ENERGY PREDICTED BY IDOCK:   -8.08 KCAL/MOL
REMARK 923 INTER-LIGAND FREE ENERGY PREDICTED BY IDOCK:   -6.73 KCAL/MOL
REMARK 924 INTRA-LIGAND FREE ENERGY PREDICTED BY IDOCK:   -1.35 KCAL/MOL
REMARK 927      BINDING AFFINITY PREDICTED BY RF-SCORE:    0.00 PKD
ROOT
HETATM    1  C   UNL     1     -10.995   5.913  69.731  1.00  0.00    -0.382 C  
HETATM    2  O   UNL     1     -10.980   7.301  69.375  1.00  0.00    -0.217 OA 
ENDROOT
BRANCH   2   3
HETATM    3  C   UNL     1      -9.886   7.988  69.848  1.00  0.00    -0.186 A  
HETATM    4  C   UNL     1      -9.230   8.849  68.940  1.00  0.00    -0.140 A  
HETATM    5  C   UNL     1      -8.184   9.708  69.331  1.00  0.00    -0.132 A  
HETATM    6  C   UNL     1      -7.782   9.536  70.668  1.00  0.00    -0.151 A  
HETATM    7  C   UNL     1      -9.417   7.847  71.150  1.00  0.00    -0.180 A  
HETATM    8  C   UNL     1      -8.352   8.620  71.562  1.00  0.00    -0.166 A  
BRANCH   5   9
HETATM    9  N   UNL     1      -7.569  10.685  68.479  1.00  0.00    -0.091 NA 
BRANCH   9  10
HETATM   10  C   UNL     1      -6.751  10.229  67.309  1.00  0.00    -0.073 C  
BRANCH  10  11
HETATM   11  C   UNL     1      -7.440  10.158  65.922  1.00  0.00    -0.125 C  
BRANCH  11  12
HETATM   12  N   UNL     1      -8.475  11.148  65.627  1.00  0.00    -0.347 NA 
HETATM   13  H   UNL     1      -8.179  11.742  64.853  1.00  0.00     0.000 HD 
BRANCH  12  14
HETATM   14  C   UNL     1      -9.809  10.610  65.361  1.00  0.00    -0.267 C  
HETATM   15  C   UNL     1      -9.899   9.093  65.546  1.00  0.00    -0.064 C  
HETATM   16  C   UNL     1     -10.779  11.295  66.329  1.00  0.00    -0.312 C  
ENDBRANCH  12  14
ENDBRANCH  11  12
ENDBRANCH  10  11
ENDBRANCH   9  10
BRANCH   9  17
HETATM   17  C   UNL     1      -7.226  12.033  68.884  1.00  0.00    -0.089 A  
HETATM   18  C   UNL     1      -7.787  16.784  68.554  1.00  0.00    -0.229 A  
HETATM   19  C   UNL     1      -6.169  12.298  69.760  1.00  0.00    -0.125 A  
HETATM   20  C   UNL     1      -6.621  16.964  69.281  1.00  0.00    -0.232 A  
HETATM   21  N   UNL     1      -8.247  15.539  68.266  1.00  0.00    -0.139 NA 
HETATM   22  C   UNL     1      -7.529  14.488  68.724  1.00  0.00    -0.132 A  
HETATM   23  C   UNL     1      -5.710  13.598  70.008  1.00  0.00    -0.128 A  
HETATM   24  C   UNL     1      -6.367  14.696  69.496  1.00  0.00    -0.127 A  
HETATM   25  C   UNL     1      -7.918  13.175  68.422  1.00  0.00    -0.130 A  
HETATM   26  N   UNL     1      -5.899  15.928  69.769  1.00  0.00    -0.145 NA 
BRANCH  18  27
HETATM   27  C   UNL     1      -8.589  17.891  68.070  1.00  0.00    -0.256 A  
HETATM   28  N   UNL     1      -9.907  19.174  66.863  1.00  0.00    -0.317 NA 
HETATM   29  C   UNL     1      -9.333  17.934  66.906  1.00  0.00    -0.275 A  
HETATM   30  C   UNL     1     -10.771  19.697  65.835  1.00  0.00    -0.413 C  
HETATM   31  N   UNL     1      -9.588  19.949  67.916  1.00  0.00    -0.362 NA 
HETATM   32  C   UNL     1      -8.787  19.167  68.647  1.00  0.00    -0.365 A  
ENDBRANCH  18  27
ENDBRANCH   9  17
ENDBRANCH   5   9
BRANCH   8  33
HETATM   33  O   UNL     1      -7.776   8.610  72.802  1.00  0.00    -0.347 OA 
HETATM   34  C   UNL     1      -6.389   8.314  72.869  1.00  0.00    -0.086 C  
ENDBRANCH   8  33
ENDBRANCH   2   3
TORSDOF 9
ENDMDL
MODEL      174
REMARK 921   NORMALIZED FREE ENERGY PREDICTED BY IDOCK:   -4.50 KCAL/MOL
REMARK 922        TOTAL FREE ENERGY PREDICTED BY IDOCK:   -8.04 KCAL/MOL
REMARK 923 INTER-LIGAND FREE ENERGY PREDICTED BY IDOCK:   -6.86 KCAL/MOL
REMARK 924 INTRA-LIGAND FREE ENERGY PREDICTED BY IDOCK:   -1.18 KCAL/MOL
REMARK 927      BINDING AFFINITY PREDICTED BY RF-SCORE:    0.00 PKD
ROOT
HETATM    1  C   UNL     1     -12.560  14.605  70.139  1.00  0.00    -0.283 C  
HETATM    2  O   UNL     1     -12.092  15.687  69.324  1.00  0.00    -0.347 OA 
ENDROOT
BRANCH   2   3
HETATM    3  C   UNL     1     -11.050  15.350  68.492  1.00  0.00    -0.295 A  
HETATM    4  C   UNL     1     -10.677  13.987  68.457  1.00  0.00    -0.266 A  
HETATM    5  C   UNL     1      -9.718  13.488  67.552  1.00  0.00    -0.228 A  
HETATM    6  C   UNL     1      -9.091  14.487  66.785  1.00  0.00    -0.283 A  
HETATM    7  C   UNL     1     -10.368  16.288  67.725  1.00  0.00    -0.287 A  
HETATM    8  C   UNL     1      -9.376  15.856  66.871  1.00  0.00    -0.225 A  
BRANCH   5   9
HETATM    9  N   UNL     1      -9.393  12.099  67.394  1.00  0.00    -0.177 NA 
BRANCH   9  10
HETATM   10  C   UNL     1     -10.239  11.244  66.500  1.00  0.00    -0.228 C  
BRANCH  10  11
HETATM   11  C   UNL     1      -9.901  11.215  64.987  1.00  0.00    -0.266 C  
BRANCH  11  12
HETATM   12  N   UNL     1      -8.703  10.485  64.573  1.00  0.00    -0.187 NA 
HETATM   13  H   UNL     1      -8.798   9.498  64.809  1.00  0.00     0.000 HD 
BRANCH  12  14
HETATM   14  C   UNL     1      -8.329  10.628  63.167  1.00  0.00    -0.107 C  
HETATM   15  C   UNL     1      -6.834  10.421  62.912  1.00  0.00    -0.104 C  
HETATM   16  C   UNL     1      -9.125   9.586  62.374  1.00  0.00    -0.257 C  
ENDBRANCH  12  14
ENDBRANCH  11  12
ENDBRANCH  10  11
ENDBRANCH   9  10
BRANCH   9  17
HETATM   17  C   UNL     1      -8.661  11.309  68.362  1.00  0.00    -0.155 A  
HETATM   18  C   UNL     1      -8.540   8.127  71.949  1.00  0.00    -0.152 A  
HETATM   19  C   UNL     1      -7.283  11.455  68.550  1.00  0.00    -0.093 A  
HETATM   20  C   UNL     1      -7.217   8.462  72.189  1.00  0.00    -0.095 A  
HETATM   21  N   UNL     1      -9.243   8.728  70.953  1.00  0.00    -0.191 NA 
HETATM   22  C   UNL     1      -8.599   9.652  70.205  1.00  0.00    -0.214 A  
HETATM   23  C   UNL     1      -6.602  10.837  69.606  1.00  0.00    -0.114 A  
HETATM   24  C   UNL     1      -7.240   9.947  70.443  1.00  0.00    -0.134 A  
HETATM   25  C   UNL     1      -9.277  10.346  69.193  1.00  0.00    -0.202 A  
HETATM   26  N   UNL     1      -6.545   9.367  71.439  1.00  0.00    -0.271 NA 
BRANCH  18  27
HETATM   27  C   UNL     1      -9.249   7.125  72.719  1.00  0.00    -0.166 A  
HETATM   28  N   UNL     1     -10.436   5.374  73.319  1.00  0.00    -0.208 NA 
HETATM   29  C   UNL     1      -9.916   6.017  72.232  1.00  0.00    -0.167 A  
HETATM   30  C   UNL     1     -11.222   4.165  73.322  1.00  0.00    -0.209 C  
HETATM   31  N   UNL     1     -10.163   5.985  74.486  1.00  0.00    -0.303 NA 
HETATM   32  C   UNL     1      -9.442   7.049  74.118  1.00  0.00    -0.250 A  
ENDBRANCH  18  27
ENDBRANCH   9  17
ENDBRANCH   5   9
BRANCH   8  33
HETATM   33  O   UNL     1      -8.617  16.641  66.047  1.00  0.00    -0.429 OA 
HETATM   34  C   UNL     1      -8.904  18.032  66.034  1.00  0.00     0.031 C  
ENDBRANCH   8  33
ENDBRANCH   2   3
TORSDOF 9
ENDMDL
MODEL      175
REMARK 921   NORMALIZED FREE ENERGY PREDICTED BY IDOCK:   -4.48 KCAL/MOL
REMARK 922        TOTAL FREE ENERGY PREDICTED BY IDOCK:   -8.01 KCAL/MOL
REMARK 923 INTER-LIGAND FREE ENERGY PREDICTED BY IDOCK:   -6.51 KCAL/MOL
REMARK 924 INTRA-LIGAND FREE ENERGY PREDICTED BY IDOCK:   -1.51 KCAL/MOL
REMARK 927      BINDING AFFINITY PREDICTED BY RF-SCORE:    0.00 PKD
ROOT
HETATM    1  C   UNL     1     -10.384  18.104  66.301  1.00  0.00    -0.397 C  
HETATM    2  O   UNL     1     -10.440  16.785  65.743  1.00  0.00    -0.389 OA 
ENDROOT
BRANCH   2   3
HETATM    3  C   UNL     1     -10.706  15.799  66.665  1.00  0.00    -0.287 A  
HETATM    4  C   UNL     1     -10.180  14.515  66.396  1.00  0.00    -0.293 A  
HETATM    5  C   UNL     1     -10.264  13.454  67.319  1.00  0.00    -0.241 A  
HETATM    6  C   UNL     1     -11.019  13.761  68.466  1.00  0.00    -0.283 A  
HETATM    7  C   UNL     1     -11.466  16.025  67.807  1.00  0.00    -0.080 A  
HETATM    8  C   UNL     1     -11.631  14.996  68.711  1.00  0.00    -0.335 A  
BRANCH   5   9
HETATM    9  N   UNL     1      -9.643  12.171  67.146  1.00  0.00    -0.191 NA 
BRANCH   9  10
HETATM   10  C   UNL     1     -10.289  11.157  66.251  1.00  0.00    -0.249 C  
BRANCH  10  11
HETATM   11  C   UNL     1      -9.796  11.062  64.785  1.00  0.00    -0.276 C  
BRANCH  11  12
HETATM   12  N   UNL     1      -9.166   9.812  64.360  1.00  0.00    -0.310 NA 
HETATM   13  H   UNL     1      -9.325   9.662  63.364  1.00  0.00     0.000 HD 
BRANCH  12  14
HETATM   14  C   UNL     1      -7.741   9.686  64.662  1.00  0.00    -0.130 C  
HETATM   15  C   UNL     1      -7.448   8.736  65.825  1.00  0.00    -0.085 C  
HETATM   16  C   UNL     1      -7.051   9.164  63.397  1.00  0.00    -0.089 C  
ENDBRANCH  12  14
ENDBRANCH  11  12
ENDBRANCH  10  11
ENDBRANCH   9  10
BRANCH   9  17
HETATM   17  C   UNL     1      -8.748  11.554  68.102  1.00  0.00    -0.157 A  
HETATM   18  C   UNL     1      -7.938   8.588  71.783  1.00  0.00    -0.131 A  
HETATM   19  C   UNL     1      -7.407  11.932  68.215  1.00  0.00    -0.093 A  
HETATM   20  C   UNL     1      -6.680   9.146  71.945  1.00  0.00     0.127 A  
HETATM   21  N   UNL     1      -8.775   9.022  70.805  1.00  0.00    -0.206 NA 
HETATM   22  C   UNL     1      -8.328  10.008  69.994  1.00  0.00    -0.111 A  
HETATM   23  C   UNL     1      -6.586  11.480  69.256  1.00  0.00    -0.113 A  
HETATM   24  C   UNL     1      -7.029  10.533  70.153  1.00  0.00    -0.113 A  
HETATM   25  C   UNL     1      -9.157  10.538  68.995  1.00  0.00    -0.188 A  
HETATM   26  N   UNL     1      -6.202  10.117  71.132  1.00  0.00    -0.318 NA 
BRANCH  18  27
HETATM   27  C   UNL     1      -8.435   7.515  72.622  1.00  0.00    -0.150 A  
HETATM   28  N   UNL     1      -9.501   5.744  73.374  1.00  0.00    -0.138 NA 
HETATM   29  C   UNL     1      -9.315   6.514  72.260  1.00  0.00    -0.137 A  
HETATM   30  C   UNL     1     -10.340   4.578  73.496  1.00  0.00    -0.188 C  
HETATM   31  N   UNL     1      -8.807   6.173  74.444  1.00  0.00    -0.130 NA 
HETATM   32  C   UNL     1      -8.161   7.250  73.984  1.00  0.00    -0.152 A  
ENDBRANCH  18  27
ENDBRANCH   9  17
ENDBRANCH   5   9
BRANCH   8  33
HETATM   33  O   UNL     1     -12.339  15.052  69.880  1.00  0.00    -0.312 OA 
HETATM   34  C   UNL     1     -12.513  13.835  70.590  1.00  0.00    -0.359 C  
ENDBRANCH   8  33
ENDBRANCH   2   3
TORSDOF 9
ENDMDL
MODEL      176
REMARK 921   NORMALIZED FREE ENERGY PREDICTED BY IDOCK:   -4.47 KCAL/MOL
REMARK 922        TOTAL FREE ENERGY PREDICTED BY IDOCK:   -7.99 KCAL/MOL
REMARK 923 INTER-LIGAND FREE ENERGY PREDICTED BY IDOCK:   -6.76 KCAL/MOL
REMARK 924 INTRA-LIGAND FREE ENERGY PREDICTED BY IDOCK:   -1.23 KCAL/MOL
REMARK 927      BINDING AFFINITY PREDICTED BY RF-SCORE:    0.00 PKD
ROOT
HETATM    1  C   UNL     1     -11.396  14.969  69.200  1.00  0.00    -0.296 C  
HETATM    2  O   UNL     1     -10.397  15.346  68.244  1.00  0.00    -0.232 OA 
ENDROOT
BRANCH   2   3
HETATM    3  C   UNL     1      -9.400  14.413  68.079  1.00  0.00    -0.200 A  
HETATM    4  C   UNL     1      -9.677  13.330  67.215  1.00  0.00    -0.231 A  
HETATM    5  C   UNL     1      -8.700  12.380  66.856  1.00  0.00    -0.191 A  
HETATM    6  C   UNL     1      -7.476  12.545  67.530  1.00  0.00    -0.151 A  
HETATM    7  C   UNL     1      -8.177  14.499  68.734  1.00  0.00    -0.146 A  
HETATM    8  C   UNL     1      -7.209  13.554  68.464  1.00  0.00    -0.110 A  
BRANCH   5   9
HETATM    9  N   UNL     1      -8.894  11.335  65.891  1.00  0.00    -0.191 NA 
BRANCH   9  10
HETATM   10  C   UNL     1      -9.453  11.675  64.542  1.00  0.00    -0.036 C  
BRANCH  10  11
HETATM   11  C   UNL     1     -10.955  11.392  64.285  1.00  0.00    -0.321 C  
BRANCH  11  12
HETATM   12  N   UNL     1     -11.915  11.854  65.286  1.00  0.00    -0.313 NA 
HETATM   13  H   UNL     1     -11.421  12.197  66.110  1.00  0.00     0.000 HD 
BRANCH  12  14
HETATM   14  C   UNL     1     -12.877  12.855  64.828  1.00  0.00    -0.283 C  
HETATM   15  C   UNL     1     -12.888  14.123  65.686  1.00  0.00    -0.402 C  
HETATM   16  C   UNL     1     -12.502  13.223  63.389  1.00  0.00    -0.281 C  
ENDBRANCH  12  14
ENDBRANCH  11  12
ENDBRANCH  10  11
ENDBRANCH   9  10
BRANCH   9  17
HETATM   17  C   UNL     1      -9.087   9.937  66.218  1.00  0.00    -0.155 A  
HETATM   18  C   UNL     1     -10.194   6.476  69.348  1.00  0.00    -0.183 A  
HETATM   19  C   UNL     1      -8.782   8.914  65.315  1.00  0.00    -0.220 A  
HETATM   20  C   UNL     1      -9.701   5.530  68.463  1.00  0.00    -0.134 A  
HETATM   21  N   UNL     1     -10.179   7.798  69.038  1.00  0.00    -0.204 NA 
HETATM   22  C   UNL     1      -9.676   8.150  67.833  1.00  0.00    -0.161 A  
HETATM   23  C   UNL     1      -8.785   7.564  65.686  1.00  0.00    -0.105 A  
HETATM   24  C   UNL     1      -9.217   7.167  66.933  1.00  0.00    -0.148 A  
HETATM   25  C   UNL     1      -9.584   9.501  67.468  1.00  0.00    -0.176 A  
HETATM   26  N   UNL     1      -9.214   5.856  67.243  1.00  0.00    -0.113 NA 
BRANCH  18  27
HETATM   27  C   UNL     1     -10.760   6.127  70.636  1.00  0.00    -0.336 A  
HETATM   28  N   UNL     1     -11.136   5.202  72.597  1.00  0.00    -0.248 NA 
HETATM   29  C   UNL     1     -10.275   5.197  71.535  1.00  0.00    -0.207 A  
HETATM   30  C   UNL     1     -11.055   4.395  73.788  1.00  0.00    -0.244 C  
HETATM   31  N   UNL     1     -12.156   6.068  72.455  1.00  0.00    -0.216 NA 
HETATM   32  C   UNL     1     -11.925   6.628  71.262  1.00  0.00    -0.355 A  
ENDBRANCH  18  27
ENDBRANCH   9  17
ENDBRANCH   5   9
BRANCH   8  33
HETATM   33  O   UNL     1      -5.958  13.497  69.013  1.00  0.00    -0.075 OA 
HETATM   34  C   UNL     1      -5.592  12.291  69.668  1.00  0.00    -0.092 C  
ENDBRANCH   8  33
ENDBRANCH   2   3
TORSDOF 9
ENDMDL
MODEL      177
REMARK 921   NORMALIZED FREE ENERGY PREDICTED BY IDOCK:   -4.46 KCAL/MOL
REMARK 922        TOTAL FREE ENERGY PREDICTED BY IDOCK:   -7.98 KCAL/MOL
REMARK 923 INTER-LIGAND FREE ENERGY PREDICTED BY IDOCK:   -6.92 KCAL/MOL
REMARK 924 INTRA-LIGAND FREE ENERGY PREDICTED BY IDOCK:   -1.06 KCAL/MOL
REMARK 927      BINDING AFFINITY PREDICTED BY RF-SCORE:    0.00 PKD
ROOT
HETATM    1  C   UNL     1      -9.986   4.403  65.884  1.00  0.00    -0.240 C  
HETATM    2  O   UNL     1      -8.562   4.336  66.031  1.00  0.00    -0.112 OA 
ENDROOT
BRANCH   2   3
HETATM    3  C   UNL     1      -8.036   5.321  66.833  1.00  0.00    -0.104 A  
HETATM    4  C   UNL     1      -8.748   6.540  66.897  1.00  0.00    -0.115 A  
HETATM    5  C   UNL     1      -8.392   7.579  67.780  1.00  0.00    -0.119 A  
HETATM    6  C   UNL     1      -7.204   7.333  68.493  1.00  0.00    -0.094 A  
HETATM    7  C   UNL     1      -6.853   5.157  67.546  1.00  0.00    -0.057 A  
HETATM    8  C   UNL     1      -6.430   6.173  68.376  1.00  0.00    -0.053 A  
BRANCH   5   9
HETATM    9  N   UNL     1      -9.150   8.783  67.970  1.00  0.00    -0.140 NA 
BRANCH   9  10
HETATM   10  C   UNL     1     -10.126   8.867  69.104  1.00  0.00    -0.197 C  
BRANCH  10  11
HETATM   11  C   UNL     1     -10.883   7.576  69.509  1.00  0.00    -0.175 C  
BRANCH  11  12
HETATM   12  N   UNL     1     -10.584   6.995  70.817  1.00  0.00    -0.216 NA 
HETATM   13  H   UNL     1     -11.192   7.405  71.527  1.00  0.00     0.000 HD 
BRANCH  12  14
HETATM   14  C   UNL     1     -10.642   5.536  70.891  1.00  0.00    -0.239 C  
HETATM   15  C   UNL     1      -9.774   4.840  69.841  1.00  0.00    -0.274 C  
HETATM   16  C   UNL     1     -10.166   5.131  72.290  1.00  0.00    -0.255 C  
ENDBRANCH  12  14
ENDBRANCH  11  12
ENDBRANCH  10  11
ENDBRANCH   9  10
BRANCH   9  17
HETATM   17  C   UNL     1      -9.457   9.736  66.923  1.00  0.00    -0.160 A  
HETATM   18  C   UNL     1     -10.099  14.241  65.407  1.00  0.00    -0.351 A  
HETATM   19  C   UNL     1      -9.867   9.333  65.649  1.00  0.00    -0.237 A  
HETATM   20  C   UNL     1     -10.664  13.758  64.238  1.00  0.00    -0.198 A  
HETATM   21  N   UNL     1      -9.652  13.394  66.370  1.00  0.00    -0.272 NA 
HETATM   22  C   UNL     1      -9.772  12.067  66.137  1.00  0.00    -0.238 A  
HETATM   23  C   UNL     1     -10.346  10.240  64.694  1.00  0.00    -0.050 A  
HETATM   24  C   UNL     1     -10.315  11.598  64.922  1.00  0.00    -0.283 A  
HETATM   25  C   UNL     1      -9.377  11.135  67.108  1.00  0.00    -0.176 A  
HETATM   26  N   UNL     1     -10.774  12.435  63.973  1.00  0.00    -0.369 NA 
BRANCH  18  27
HETATM   27  C   UNL     1      -9.936  15.657  65.675  1.00  0.00    -0.388 A  
HETATM   28  N   UNL     1      -9.113  17.619  66.230  1.00  0.00    -0.442 NA 
HETATM   29  C   UNL     1      -8.790  16.297  66.105  1.00  0.00    -0.327 A  
HETATM   30  C   UNL     1      -8.247  18.690  66.656  1.00  0.00    -0.278 C  
HETATM   31  N   UNL     1     -10.392  17.891  65.916  1.00  0.00    -0.578 NA 
HETATM   32  C   UNL     1     -10.890  16.696  65.580  1.00  0.00    -0.163 A  
ENDBRANCH  18  27
ENDBRANCH   9  17
ENDBRANCH   5   9
BRANCH   8  33
HETATM   33  O   UNL     1      -5.299   6.170  69.147  1.00  0.00    -0.004 OA 
HETATM   34  C   UNL     1      -5.154   7.225  70.086  1.00  0.00    -0.022 C  
ENDBRANCH   8  33
ENDBRANCH   2   3
TORSDOF 9
ENDMDL
MODEL      178
REMARK 921   NORMALIZED FREE ENERGY PREDICTED BY IDOCK:   -4.45 KCAL/MOL
REMARK 922        TOTAL FREE ENERGY PREDICTED BY IDOCK:   -7.97 KCAL/MOL
REMARK 923 INTER-LIGAND FREE ENERGY PREDICTED BY IDOCK:   -6.51 KCAL/MOL
REMARK 924 INTRA-LIGAND FREE ENERGY PREDICTED BY IDOCK:   -1.46 KCAL/MOL
REMARK 927      BINDING AFFINITY PREDICTED BY RF-SCORE:    0.00 PKD
ROOT
HETATM    1  C   UNL     1     -12.958  13.590  64.771  1.00  0.00     0.005 C  
HETATM    2  O   UNL     1     -12.576  12.286  65.224  1.00  0.00    -0.583 OA 
ENDROOT
BRANCH   2   3
HETATM    3  C   UNL     1     -11.547  12.290  66.136  1.00  0.00    -0.390 A  
HETATM    4  C   UNL     1     -10.617  11.228  66.056  1.00  0.00    -0.314 A  
HETATM    5  C   UNL     1      -9.447  11.185  66.840  1.00  0.00    -0.185 A  
HETATM    6  C   UNL     1      -9.360  12.225  67.783  1.00  0.00    -0.194 A  
HETATM    7  C   UNL     1     -11.412  13.272  67.112  1.00  0.00    -0.380 A  
HETATM    8  C   UNL     1     -10.315  13.236  67.946  1.00  0.00    -0.238 A  
BRANCH   5   9
HETATM    9  N   UNL     1      -8.416  10.195  66.711  1.00  0.00    -0.126 NA 
BRANCH   9  10
HETATM   10  C   UNL     1      -7.280  10.437  65.762  1.00  0.00    -0.143 C  
BRANCH  10  11
HETATM   11  C   UNL     1      -5.920  10.887  66.355  1.00  0.00    -0.131 C  
BRANCH  11  12
HETATM   12  N   UNL     1      -5.790  12.282  66.774  1.00  0.00    -0.493 NA 
HETATM   13  H   UNL     1      -6.694  12.750  66.710  1.00  0.00     0.000 HD 
BRANCH  12  14
HETATM   14  C   UNL     1      -5.212  12.494  68.100  1.00  0.00    -0.069 C  
HETATM   15  C   UNL     1      -5.232  13.958  68.544  1.00  0.00    -0.093 C  
HETATM   16  C   UNL     1      -6.023  11.654  69.092  1.00  0.00    -0.064 C  
ENDBRANCH  12  14
ENDBRANCH  11  12
ENDBRANCH  10  11
ENDBRANCH   9  10
BRANCH   9  17
HETATM   17  C   UNL     1      -8.585   8.787  67.002  1.00  0.00    -0.116 A  
HETATM   18  C   UNL     1      -9.541   5.222  70.066  1.00  0.00    -0.174 A  
HETATM   19  C   UNL     1      -8.307   7.794  66.058  1.00  0.00    -0.134 A  
HETATM   20  C   UNL     1      -9.075   4.309  69.134  1.00  0.00    -0.126 A  
HETATM   21  N   UNL     1      -9.549   6.554  69.796  1.00  0.00    -0.152 NA 
HETATM   22  C   UNL     1      -9.096   6.947  68.584  1.00  0.00    -0.131 A  
HETATM   23  C   UNL     1      -8.284   6.433  66.387  1.00  0.00    -0.115 A  
HETATM   24  C   UNL     1      -8.664   5.995  67.637  1.00  0.00    -0.104 A  
HETATM   25  C   UNL     1      -9.029   8.309  68.256  1.00  0.00    -0.136 A  
HETATM   26  N   UNL     1      -8.638   4.676  67.907  1.00  0.00    -0.102 NA 
BRANCH  18  27
HETATM   27  C   UNL     1     -10.054   4.830  71.364  1.00  0.00    -0.259 A  
HETATM   28  N   UNL     1     -10.535   3.704  73.191  1.00  0.00    -0.167 NA 
HETATM   29  C   UNL     1      -9.860   3.622  72.006  1.00  0.00    -0.174 A  
HETATM   30  C   UNL     1     -10.636   2.687  74.208  1.00  0.00    -0.157 C  
HETATM   31  N   UNL     1     -11.163   4.880  73.370  1.00  0.00    -0.339 NA 
HETATM   32  C   UNL     1     -10.869   5.562  72.258  1.00  0.00    -0.241 A  
ENDBRANCH  18  27
ENDBRANCH   9  17
ENDBRANCH   5   9
BRANCH   8  33
HETATM   33  O   UNL     1     -10.031  14.123  68.948  1.00  0.00    -0.210 OA 
HETATM   34  C   UNL     1     -11.055  15.035  69.315  1.00  0.00    -0.272 C  
ENDBRANCH   8  33
ENDBRANCH   2   3
TORSDOF 9
ENDMDL
MODEL      179
REMARK 921   NORMALIZED FREE ENERGY PREDICTED BY IDOCK:   -4.44 KCAL/MOL
REMARK 922        TOTAL FREE ENERGY PREDICTED BY IDOCK:   -7.95 KCAL/MOL
REMARK 923 INTER-LIGAND FREE ENERGY PREDICTED BY IDOCK:   -6.81 KCAL/MOL
REMARK 924 INTRA-LIGAND FREE ENERGY PREDICTED BY IDOCK:   -1.14 KCAL/MOL
REMARK 927      BINDING AFFINITY PREDICTED BY RF-SCORE:    0.00 PKD
ROOT
HETATM    1  C   UNL     1      -6.548  18.742  65.530  1.00  0.00    -0.272 C  
HETATM    2  O   UNL     1      -7.089  17.415  65.486  1.00  0.00    -0.211 OA 
ENDROOT
BRANCH   2   3
HETATM    3  C   UNL     1      -8.344  17.306  66.037  1.00  0.00    -0.119 A  
HETATM    4  C   UNL     1      -8.957  16.033  65.981  1.00  0.00    -0.345 A  
HETATM    5  C   UNL     1     -10.180  15.753  66.623  1.00  0.00    -0.285 A  
HETATM    6  C   UNL     1     -10.781  16.880  67.211  1.00  0.00    -0.208 A  
HETATM    7  C   UNL     1      -9.008  18.383  66.612  1.00  0.00    -0.295 A  
HETATM    8  C   UNL     1     -10.239  18.172  67.197  1.00  0.00    -0.367 A  
BRANCH   5   9
HETATM    9  N   UNL     1     -10.781  14.451  66.698  1.00  0.00    -0.289 NA 
BRANCH   9  10
HETATM   10  C   UNL     1     -11.162  13.894  68.036  1.00  0.00    -0.271 C  
BRANCH  10  11
HETATM   11  C   UNL     1     -10.037  13.305  68.926  1.00  0.00     0.026 C  
BRANCH  11  12
HETATM   12  N   UNL     1      -8.833  14.112  69.121  1.00  0.00    -0.368 NA 
HETATM   13  H   UNL     1      -8.839  14.526  70.054  1.00  0.00     0.000 HD 
BRANCH  12  14
HETATM   14  C   UNL     1      -7.565  13.424  68.889  1.00  0.00     0.018 C  
HETATM   15  C   UNL     1      -6.939  13.747  67.530  1.00  0.00    -0.161 C  
HETATM   16  C   UNL     1      -6.603  13.852  70.002  1.00  0.00     0.010 C  
ENDBRANCH  12  14
ENDBRANCH  11  12
ENDBRANCH  10  11
ENDBRANCH   9  10
BRANCH   9  17
HETATM   17  C   UNL     1     -10.615  13.408  65.707  1.00  0.00    -0.282 A  
HETATM   18  C   UNL     1      -8.576   9.335  64.205  1.00  0.00    -0.193 A  
HETATM   19  C   UNL     1     -11.220  13.476  64.449  1.00  0.00    -0.399 A  
HETATM   20  C   UNL     1      -9.066   9.570  62.931  1.00  0.00    -0.155 A  
HETATM   21  N   UNL     1      -8.823  10.203  65.221  1.00  0.00    -0.167 NA 
HETATM   22  C   UNL     1      -9.572  11.294  64.940  1.00  0.00    -0.232 A  
HETATM   23  C   UNL     1     -10.916  12.574  63.422  1.00  0.00    -0.386 A  
HETATM   24  C   UNL     1     -10.093  11.491  63.644  1.00  0.00    -0.388 A  
HETATM   25  C   UNL     1      -9.825  12.257  65.927  1.00  0.00    -0.266 A  
HETATM   26  N   UNL     1      -9.836  10.642  62.631  1.00  0.00    -0.200 NA 
BRANCH  18  27
HETATM   27  C   UNL     1      -7.790   8.164  64.542  1.00  0.00    -0.138 A  
HETATM   28  N   UNL     1      -6.403   6.459  64.464  1.00  0.00    -0.030 NA 
HETATM   29  C   UNL     1      -6.891   7.502  63.728  1.00  0.00    -0.054 A  
HETATM   30  C   UNL     1      -5.437   5.474  64.045  1.00  0.00    -0.013 C  
HETATM   31  N   UNL     1      -6.922   6.388  65.703  1.00  0.00    -0.055 NA 
HETATM   32  C   UNL     1      -7.765   7.425  65.747  1.00  0.00    -0.102 A  
ENDBRANCH  18  27
ENDBRANCH   9  17
ENDBRANCH   5   9
BRANCH   8  33
HETATM   33  O   UNL     1     -11.018  19.115  67.809  1.00  0.00    -0.373 OA 
HETATM   34  C   UNL     1     -10.384  19.963  68.756  1.00  0.00    -0.240 C  
ENDBRANCH   8  33
ENDBRANCH   2   3
TORSDOF 9
ENDMDL
MODEL      180
REMARK 921   NORMALIZED FREE ENERGY PREDICTED BY IDOCK:   -4.44 KCAL/MOL
REMARK 922        TOTAL FREE ENERGY PREDICTED BY IDOCK:   -7.95 KCAL/MOL
REMARK 923 INTER-LIGAND FREE ENERGY PREDICTED BY IDOCK:   -6.51 KCAL/MOL
REMARK 924 INTRA-LIGAND FREE ENERGY PREDICTED BY IDOCK:   -1.43 KCAL/MOL
REMARK 927      BINDING AFFINITY PREDICTED BY RF-SCORE:    0.00 PKD
ROOT
HETATM    1  C   UNL     1     -12.331  13.302  63.811  1.00  0.00    -0.367 C  
HETATM    2  O   UNL     1     -11.632  14.419  64.374  1.00  0.00    -0.380 OA 
ENDROOT
BRANCH   2   3
HETATM    3  C   UNL     1     -11.303  14.261  65.700  1.00  0.00    -0.317 A  
HETATM    4  C   UNL     1      -9.929  14.320  66.029  1.00  0.00    -0.337 A  
HETATM    5  C   UNL     1      -9.469  14.307  67.361  1.00  0.00    -0.211 A  
HETATM    6  C   UNL     1     -10.488  14.109  68.310  1.00  0.00    -0.249 A  
HETATM    7  C   UNL     1     -12.256  14.036  66.688  1.00  0.00    -0.463 A  
HETATM    8  C   UNL     1     -11.845  13.952  68.002  1.00  0.00    -0.375 A  
BRANCH   5   9
HETATM    9  N   UNL     1      -8.099  14.486  67.751  1.00  0.00    -0.145 NA 
BRANCH   9  10
HETATM   10  C   UNL     1      -7.204  15.350  66.916  1.00  0.00     0.131 C  
BRANCH  10  11
HETATM   11  C   UNL     1      -7.411  16.885  66.975  1.00  0.00    -0.196 C  
BRANCH  11  12
HETATM   12  N   UNL     1      -8.321  17.486  66.000  1.00  0.00    -0.531 NA 
HETATM   13  H   UNL     1      -8.768  16.756  65.445  1.00  0.00     0.000 HD 
BRANCH  12  14
HETATM   14  C   UNL     1      -9.334  18.386  66.549  1.00  0.00    -0.309 C  
HETATM   15  C   UNL     1      -9.668  18.102  68.016  1.00  0.00    -0.316 C  
HETATM   16  C   UNL     1      -8.793  19.814  66.422  1.00  0.00    -0.428 C  
ENDBRANCH  12  14
ENDBRANCH  11  12
ENDBRANCH  10  11
ENDBRANCH   9  10
BRANCH   9  17
HETATM   17  C   UNL     1      -7.345  13.552  68.561  1.00  0.00    -0.114 A  
HETATM   18  C   UNL     1      -6.438   9.091  70.074  1.00  0.00    -0.042 A  
HETATM   19  C   UNL     1      -6.397  13.977  69.497  1.00  0.00    -0.121 A  
HETATM   20  C   UNL     1      -5.654   9.606  71.093  1.00  0.00    -0.071 A  
HETATM   21  N   UNL     1      -7.057   9.912  69.185  1.00  0.00    -0.066 NA 
HETATM   22  C   UNL     1      -6.867  11.243  69.329  1.00  0.00    -0.116 A  
HETATM   23  C   UNL     1      -5.803  13.099  70.413  1.00  0.00    -0.156 A  
HETATM   24  C   UNL     1      -6.031  11.742  70.351  1.00  0.00    -0.123 A  
HETATM   25  C   UNL     1      -7.514  12.151  68.478  1.00  0.00    -0.117 A  
HETATM   26  N   UNL     1      -5.431  10.933  71.244  1.00  0.00    -0.295 NA 
BRANCH  18  27
HETATM   27  C   UNL     1      -6.642   7.669  69.880  1.00  0.00    -0.041 A  
HETATM   28  N   UNL     1      -7.222   5.712  69.062  1.00  0.00    -0.071 NA 
HETATM   29  C   UNL     1      -7.248   7.053  68.802  1.00  0.00    -0.091 A  
HETATM   30  C   UNL     1      -7.742   4.654  68.231  1.00  0.00    -0.081 C  
HETATM   31  N   UNL     1      -6.645   5.404  70.238  1.00  0.00    -0.037 NA 
HETATM   32  C   UNL     1      -6.294   6.596  70.733  1.00  0.00    -0.047 A  
ENDBRANCH  18  27
ENDBRANCH   9  17
ENDBRANCH   5   9
BRANCH   8  33
HETATM   33  O   UNL     1     -12.649  13.741  69.089  1.00  0.00    -0.071 OA 
HETATM   34  C   UNL     1     -12.166  14.190  70.347  1.00  0.00    -0.356 C  
ENDBRANCH   8  33
ENDBRANCH   2   3
TORSDOF 9
ENDMDL
MODEL      181
REMARK 921   NORMALIZED FREE ENERGY PREDICTED BY IDOCK:   -4.40 KCAL/MOL
REMARK 922        TOTAL FREE ENERGY PREDICTED BY IDOCK:   -7.88 KCAL/MOL
REMARK 923 INTER-LIGAND FREE ENERGY PREDICTED BY IDOCK:   -7.02 KCAL/MOL
REMARK 924 INTRA-LIGAND FREE ENERGY PREDICTED BY IDOCK:   -0.86 KCAL/MOL
REMARK 927      BINDING AFFINITY PREDICTED BY RF-SCORE:    0.00 PKD
ROOT
HETATM    1  C   UNL     1     -10.723  20.315  65.908  1.00  0.00    -0.036 C  
HETATM    2  O   UNL     1     -10.917  19.285  66.885  1.00  0.00    -0.427 OA 
ENDROOT
BRANCH   2   3
HETATM    3  C   UNL     1      -9.764  18.903  67.531  1.00  0.00    -0.313 A  
HETATM    4  C   UNL     1      -9.574  17.517  67.731  1.00  0.00    -0.269 A  
HETATM    5  C   UNL     1      -8.380  16.985  68.256  1.00  0.00    -0.228 A  
HETATM    6  C   UNL     1      -7.459  17.964  68.671  1.00  0.00    -0.280 A  
HETATM    7  C   UNL     1      -8.823  19.817  67.990  1.00  0.00    -0.360 A  
HETATM    8  C   UNL     1      -7.665  19.346  68.571  1.00  0.00    -0.345 A  
BRANCH   5   9
HETATM    9  N   UNL     1      -8.090  15.583  68.366  1.00  0.00    -0.132 NA 
BRANCH   9  10
HETATM   10  C   UNL     1      -6.698  15.144  68.705  1.00  0.00    -0.093 C  
BRANCH  10  11
HETATM   11  C   UNL     1      -6.425  14.638  70.144  1.00  0.00    -0.166 C  
BRANCH  11  12
HETATM   12  N   UNL     1      -5.400  13.610  70.319  1.00  0.00    -0.101 NA 
HETATM   13  H   UNL     1      -4.983  13.688  71.247  1.00  0.00     0.000 HD 
BRANCH  12  14
HETATM   14  C   UNL     1      -5.836  12.234  70.083  1.00  0.00    -0.161 C  
HETATM   15  C   UNL     1      -5.515  11.729  68.674  1.00  0.00    -0.049 C  
HETATM   16  C   UNL     1      -5.125  11.348  71.111  1.00  0.00    -0.113 C  
ENDBRANCH  12  14
ENDBRANCH  11  12
ENDBRANCH  10  11
ENDBRANCH   9  10
BRANCH   9  17
HETATM   17  C   UNL     1      -8.842  14.533  67.708  1.00  0.00    -0.183 A  
HETATM   18  C   UNL     1     -10.371   9.994  67.460  1.00  0.00    -0.232 A  
HETATM   19  C   UNL     1      -9.448  14.722  66.463  1.00  0.00    -0.316 A  
HETATM   20  C   UNL     1     -10.784  10.214  66.156  1.00  0.00     0.062 A  
HETATM   21  N   UNL     1      -9.791  10.985  68.186  1.00  0.00    -0.170 NA 
HETATM   22  C   UNL     1      -9.645  12.191  67.591  1.00  0.00    -0.190 A  
HETATM   23  C   UNL     1     -10.011  13.666  65.736  1.00  0.00    -0.277 A  
HETATM   24  C   UNL     1     -10.109  12.402  66.276  1.00  0.00    -0.240 A  
HETATM   25  C   UNL     1      -9.011  13.245  68.264  1.00  0.00    -0.176 A  
HETATM   26  N   UNL     1     -10.669  11.417  65.547  1.00  0.00    -0.272 NA 
BRANCH  18  27
HETATM   27  C   UNL     1     -10.536   8.721  68.132  1.00  0.00    -0.243 A  
HETATM   28  N   UNL     1     -10.879   7.160  69.644  1.00  0.00    -0.241 NA 
HETATM   29  C   UNL     1     -10.835   8.514  69.465  1.00  0.00    -0.125 A  
HETATM   30  C   UNL     1     -11.151   6.452  70.870  1.00  0.00    -0.298 C  
HETATM   31  N   UNL     1     -10.625   6.463  68.522  1.00  0.00    -0.223 NA 
HETATM   32  C   UNL     1     -10.416   7.414  67.605  1.00  0.00    -0.241 A  
ENDBRANCH  18  27
ENDBRANCH   9  17
ENDBRANCH   5   9
BRANCH   8  33
HETATM   33  O   UNL     1      -6.640  20.105  69.067  1.00  0.00    -0.312 OA 
HETATM   34  C   UNL     1      -5.889  19.557  70.140  1.00  0.00    -0.267 C  
ENDBRANCH   8  33
ENDBRANCH   2   3
TORSDOF 9
ENDMDL
MODEL      182
REMARK 921   NORMALIZED FREE ENERGY PREDICTED BY IDOCK:   -4.36 KCAL/MOL
REMARK 922        TOTAL FREE ENERGY PREDICTED BY IDOCK:   -7.82 KCAL/MOL
REMARK 923 INTER-LIGAND FREE ENERGY PREDICTED BY IDOCK:   -7.32 KCAL/MOL
REMARK 924 INTRA-LIGAND FREE ENERGY PREDICTED BY IDOCK:   -0.50 KCAL/MOL
REMARK 927      BINDING AFFINITY PREDICTED BY RF-SCORE:    0.00 PKD
ROOT
HETATM    1  C   UNL     1      -8.316  15.430  69.631  1.00  0.00    -0.127 C  
HETATM    2  O   UNL     1      -9.743  15.558  69.660  1.00  0.00    -0.270 OA 
ENDROOT
BRANCH   2   3
HETATM    3  C   UNL     1     -10.407  14.562  68.983  1.00  0.00    -0.223 A  
HETATM    4  C   UNL     1     -10.236  14.519  67.581  1.00  0.00    -0.225 A  
HETATM    5  C   UNL     1     -10.750  13.474  66.788  1.00  0.00    -0.278 A  
HETATM    6  C   UNL     1     -11.544  12.559  67.503  1.00  0.00    -0.424 A  
HETATM    7  C   UNL     1     -11.228  13.639  69.622  1.00  0.00    -0.147 A  
HETATM    8  C   UNL     1     -11.807  12.635  68.876  1.00  0.00    -0.302 A  
BRANCH   5   9
HETATM    9  N   UNL     1     -10.501  13.319  65.382  1.00  0.00    -0.290 NA 
BRANCH   9  10
HETATM   10  C   UNL     1     -11.182  14.236  64.411  1.00  0.00    -0.249 C  
BRANCH  10  11
HETATM   11  C   UNL     1     -11.490  15.684  64.870  1.00  0.00    -0.245 C  
BRANCH  11  12
HETATM   12  N   UNL     1     -10.425  16.679  64.741  1.00  0.00    -0.416 NA 
HETATM   13  H   UNL     1     -10.699  17.396  64.069  1.00  0.00     0.000 HD 
BRANCH  12  14
HETATM   14  C   UNL     1      -9.987  17.303  65.988  1.00  0.00    -0.233 C  
HETATM   15  C   UNL     1      -8.466  17.320  66.157  1.00  0.00    -0.216 C  
HETATM   16  C   UNL     1     -10.510  18.744  65.985  1.00  0.00    -0.483 C  
ENDBRANCH  12  14
ENDBRANCH  11  12
ENDBRANCH  10  11
ENDBRANCH   9  10
BRANCH   9  17
HETATM   17  C   UNL     1     -10.072  12.088  64.752  1.00  0.00    -0.257 A  
HETATM   18  C   UNL     1      -8.180   7.687  64.998  1.00  0.00    -0.113 A  
HETATM   19  C   UNL     1     -10.061  11.929  63.363  1.00  0.00    -0.464 A  
HETATM   20  C   UNL     1      -8.035   7.682  63.620  1.00  0.00    -0.089 A  
HETATM   21  N   UNL     1      -8.716   8.758  65.641  1.00  0.00    -0.174 NA 
HETATM   22  C   UNL     1      -9.109   9.807  64.884  1.00  0.00    -0.229 A  
HETATM   23  C   UNL     1      -9.473  10.820  62.741  1.00  0.00    -0.358 A  
HETATM   24  C   UNL     1      -8.988   9.763  63.479  1.00  0.00    -0.244 A  
HETATM   25  C   UNL     1      -9.626  10.964  65.484  1.00  0.00    -0.266 A  
HETATM   26  N   UNL     1      -8.442   8.711  62.840  1.00  0.00    -0.167 NA 
BRANCH  18  27
HETATM   27  C   UNL     1      -7.789   6.569  65.834  1.00  0.00    -0.106 A  
HETATM   28  N   UNL     1      -7.698   4.613  66.836  1.00  0.00    -0.090 NA 
HETATM   29  C   UNL     1      -8.406   5.336  65.918  1.00  0.00    -0.120 A  
HETATM   30  C   UNL     1      -7.959   3.264  67.272  1.00  0.00    -0.078 C  
HETATM   31  N   UNL     1      -6.662   5.289  67.366  1.00  0.00    -0.054 NA 
HETATM   32  C   UNL     1      -6.720   6.477  66.755  1.00  0.00    -0.060 A  
ENDBRANCH  18  27
ENDBRANCH   9  17
ENDBRANCH   5   9
BRANCH   8  33
HETATM   33  O   UNL     1     -12.631  11.649  69.347  1.00  0.00    -0.037 OA 
HETATM   34  C   UNL     1     -12.019  10.565  70.029  1.00  0.00    -0.288 C  
ENDBRANCH   8  33
ENDBRANCH   2   3
TORSDOF 9
ENDMDL
MODEL      183
REMARK 921   NORMALIZED FREE ENERGY PREDICTED BY IDOCK:   -4.31 KCAL/MOL
REMARK 922        TOTAL FREE ENERGY PREDICTED BY IDOCK:   -7.75 KCAL/MOL
REMARK 923 INTER-LIGAND FREE ENERGY PREDICTED BY IDOCK:   -7.52 KCAL/MOL
REMARK 924 INTRA-LIGAND FREE ENERGY PREDICTED BY IDOCK:   -0.23 KCAL/MOL
REMARK 927      BINDING AFFINITY PREDICTED BY RF-SCORE:    0.00 PKD
ROOT
HETATM    1  C   UNL     1      -9.886  18.005  66.701  1.00  0.00    -0.352 C  
HETATM    2  O   UNL     1      -9.791  16.752  66.013  1.00  0.00    -0.356 OA 
ENDROOT
BRANCH   2   3
HETATM    3  C   UNL     1     -10.253  15.679  66.740  1.00  0.00    -0.276 A  
HETATM    4  C   UNL     1     -10.011  14.393  66.205  1.00  0.00    -0.328 A  
HETATM    5  C   UNL     1     -10.310  13.211  66.910  1.00  0.00    -0.247 A  
HETATM    6  C   UNL     1     -10.977  13.433  68.129  1.00  0.00    -0.277 A  
HETATM    7  C   UNL     1     -10.941  15.826  67.939  1.00  0.00    -0.324 A  
HETATM    8  C   UNL     1     -11.314  14.695  68.636  1.00  0.00    -0.283 A  
BRANCH   5   9
HETATM    9  N   UNL     1      -9.975  11.888  66.464  1.00  0.00    -0.199 NA 
BRANCH   9  10
HETATM   10  C   UNL     1     -10.774  11.260  65.363  1.00  0.00    -0.227 C  
BRANCH  10  11
HETATM   11  C   UNL     1     -10.251  11.404  63.911  1.00  0.00    -0.363 C  
BRANCH  11  12
HETATM   12  N   UNL     1     -10.569  12.639  63.195  1.00  0.00    -0.543 NA 
HETATM   13  H   UNL     1     -10.164  12.613  62.259  1.00  0.00     0.000 HD 
BRANCH  12  14
HETATM   14  C   UNL     1     -11.989  12.977  63.114  1.00  0.00    -0.225 C  
HETATM   15  C   UNL     1     -12.909  11.853  63.596  1.00  0.00    -0.429 C  
HETATM   16  C   UNL     1     -12.212  14.219  63.983  1.00  0.00    -0.336 C  
ENDBRANCH  12  14
ENDBRANCH  11  12
ENDBRANCH  10  11
ENDBRANCH   9  10
BRANCH   9  17
HETATM   17  C   UNL     1      -9.291  10.897  67.269  1.00  0.00    -0.155 A  
HETATM   18  C   UNL     1      -8.665   6.363  68.702  1.00  0.00    -0.122 A  
HETATM   19  C   UNL     1      -8.342  11.250  68.233  1.00  0.00    -0.150 A  
HETATM   20  C   UNL     1      -7.875   6.812  69.748  1.00  0.00    -0.115 A  
HETATM   21  N   UNL     1      -9.218   7.235  67.819  1.00  0.00    -0.127 NA 
HETATM   22  C   UNL     1      -8.958   8.550  67.996  1.00  0.00    -0.141 A  
HETATM   23  C   UNL     1      -7.817  10.322  69.141  1.00  0.00    -0.127 A  
HETATM   24  C   UNL     1      -8.118   8.980  69.045  1.00  0.00    -0.107 A  
HETATM   25  C   UNL     1      -9.535   9.510  67.152  1.00  0.00    -0.187 A  
HETATM   26  N   UNL     1      -7.583   8.121  69.933  1.00  0.00    -0.087 NA 
BRANCH  18  27
HETATM   27  C   UNL     1      -8.942   4.959  68.474  1.00  0.00    -0.131 A  
HETATM   28  N   UNL     1      -9.265   2.800  68.742  1.00  0.00    -0.156 NA 
HETATM   29  C   UNL     1      -8.975   3.951  69.418  1.00  0.00    -0.111 A  
HETATM   30  C   UNL     1      -9.401   1.475  69.295  1.00  0.00    -0.111 C  
HETATM   31  N   UNL     1      -9.420   2.980  67.418  1.00  0.00    -0.173 NA 
HETATM   32  C   UNL     1      -9.223   4.293  67.258  1.00  0.00    -0.150 A  
ENDBRANCH  18  27
ENDBRANCH   9  17
ENDBRANCH   5   9
BRANCH   8  33
HETATM   33  O   UNL     1     -11.987  14.662  69.826  1.00  0.00    -0.293 OA 
HETATM   34  C   UNL     1     -12.297  13.384  70.360  1.00  0.00    -0.312 C  
ENDBRANCH   8  33
ENDBRANCH   2   3
TORSDOF 9
ENDMDL
MODEL      184
REMARK 921   NORMALIZED FREE ENERGY PREDICTED BY IDOCK:   -4.30 KCAL/MOL
REMARK 922        TOTAL FREE ENERGY PREDICTED BY IDOCK:   -7.73 KCAL/MOL
REMARK 923 INTER-LIGAND FREE ENERGY PREDICTED BY IDOCK:   -6.32 KCAL/MOL
REMARK 924 INTRA-LIGAND FREE ENERGY PREDICTED BY IDOCK:   -1.41 KCAL/MOL
REMARK 927      BINDING AFFINITY PREDICTED BY RF-SCORE:    0.00 PKD
ROOT
HETATM    1  C   UNL     1     -10.769   6.904  70.615  1.00  0.00    -0.236 C  
HETATM    2  O   UNL     1      -9.809   5.882  70.317  1.00  0.00    -0.173 OA 
ENDROOT
BRANCH   2   3
HETATM    3  C   UNL     1      -9.151   6.064  69.123  1.00  0.00    -0.123 A  
HETATM    4  C   UNL     1      -9.470   7.230  68.390  1.00  0.00    -0.142 A  
HETATM    5  C   UNL     1      -8.775   7.603  67.222  1.00  0.00    -0.124 A  
HETATM    6  C   UNL     1      -7.830   6.651  66.798  1.00  0.00    -0.107 A  
HETATM    7  C   UNL     1      -8.223   5.153  68.630  1.00  0.00    -0.085 A  
HETATM    8  C   UNL     1      -7.563   5.444  67.455  1.00  0.00    -0.088 A  
BRANCH   5   9
HETATM    9  N   UNL     1      -8.978   8.833  66.511  1.00  0.00    -0.139 NA 
BRANCH   9  10
HETATM   10  C   UNL     1      -8.792   8.862  65.024  1.00  0.00    -0.140 C  
BRANCH  10  11
HETATM   11  C   UNL     1      -7.357   9.067  64.474  1.00  0.00    -0.099 C  
BRANCH  11  12
HETATM   12  N   UNL     1      -6.816  10.425  64.478  1.00  0.00    -0.317 NA 
HETATM   13  H   UNL     1      -7.487  11.066  64.901  1.00  0.00     0.000 HD 
BRANCH  12  14
HETATM   14  C   UNL     1      -5.508  10.584  65.112  1.00  0.00    -0.146 C  
HETATM   15  C   UNL     1      -5.468  11.711  66.148  1.00  0.00     0.215 C  
HETATM   16  C   UNL     1      -5.168   9.256  65.797  1.00  0.00    -0.039 C  
ENDBRANCH  12  14
ENDBRANCH  11  12
ENDBRANCH  10  11
ENDBRANCH   9  10
BRANCH   9  17
HETATM   17  C   UNL     1      -8.853  10.153  67.096  1.00  0.00    -0.132 A  
HETATM   18  C   UNL     1      -9.370  14.915  66.853  1.00  0.00    -0.241 A  
HETATM   19  C   UNL     1      -8.224  10.363  68.326  1.00  0.00    -0.114 A  
HETATM   20  C   UNL     1      -8.580  15.049  67.983  1.00  0.00    -0.158 A  
HETATM   21  N   UNL     1      -9.650  13.690  66.337  1.00  0.00    -0.281 NA 
HETATM   22  C   UNL     1      -9.137  12.613  66.975  1.00  0.00    -0.215 A  
HETATM   23  C   UNL     1      -7.931  11.645  68.808  1.00  0.00    -0.086 A  
HETATM   24  C   UNL     1      -8.368  12.773  68.147  1.00  0.00    -0.172 A  
HETATM   25  C   UNL     1      -9.344  11.321  66.470  1.00  0.00    -0.201 A  
HETATM   26  N   UNL     1      -8.074  13.986  68.651  1.00  0.00    -0.136 NA 
BRANCH  18  27
HETATM   27  C   UNL     1      -9.953  16.048  66.162  1.00  0.00    -0.347 A  
HETATM   28  N   UNL     1     -10.529  18.082  65.555  1.00  0.00    -0.608 NA 
HETATM   29  C   UNL     1      -9.787  17.385  66.467  1.00  0.00    -0.304 A  
HETATM   30  C   UNL     1     -10.679  19.513  65.466  1.00  0.00    -0.205 C  
HETATM   31  N   UNL     1     -11.174  17.295  64.675  1.00  0.00    -0.909 NA 
HETATM   32  C   UNL     1     -10.823  16.060  65.047  1.00  0.00    -0.404 A  
ENDBRANCH  18  27
ENDBRANCH   9  17
ENDBRANCH   5   9
BRANCH   8  33
HETATM   33  O   UNL     1      -6.623   4.663  66.840  1.00  0.00    -0.047 OA 
HETATM   34  C   UNL     1      -5.517   5.328  66.247  1.00  0.00    -0.013 C  
ENDBRANCH   8  33
ENDBRANCH   2   3
TORSDOF 9
ENDMDL
MODEL      185
REMARK 921   NORMALIZED FREE ENERGY PREDICTED BY IDOCK:   -4.25 KCAL/MOL
REMARK 922        TOTAL FREE ENERGY PREDICTED BY IDOCK:   -7.66 KCAL/MOL
REMARK 923 INTER-LIGAND FREE ENERGY PREDICTED BY IDOCK:   -6.51 KCAL/MOL
REMARK 924 INTRA-LIGAND FREE ENERGY PREDICTED BY IDOCK:   -1.15 KCAL/MOL
REMARK 927      BINDING AFFINITY PREDICTED BY RF-SCORE:    0.00 PKD
ROOT
HETATM    1  C   UNL     1      -7.576   5.755  68.616  1.00  0.00    -0.089 C  
HETATM    2  O   UNL     1      -7.021   5.890  67.301  1.00  0.00    -0.065 OA 
ENDROOT
BRANCH   2   3
HETATM    3  C   UNL     1      -7.600   6.885  66.550  1.00  0.00    -0.089 A  
HETATM    4  C   UNL     1      -8.144   7.983  67.255  1.00  0.00    -0.121 A  
HETATM    5  C   UNL     1      -8.644   9.128  66.603  1.00  0.00    -0.127 A  
HETATM    6  C   UNL     1      -8.660   9.019  65.201  1.00  0.00    -0.204 A  
HETATM    7  C   UNL     1      -7.674   6.832  65.162  1.00  0.00    -0.105 A  
HETATM    8  C   UNL     1      -8.215   7.902  64.482  1.00  0.00    -0.069 A  
BRANCH   5   9
HETATM    9  N   UNL     1      -9.095  10.315  67.272  1.00  0.00    -0.138 NA 
BRANCH   9  10
HETATM   10  C   UNL     1     -10.562  10.619  67.321  1.00  0.00    -0.263 C  
BRANCH  10  11
HETATM   11  C   UNL     1     -11.255  10.637  68.708  1.00  0.00    -0.279 C  
BRANCH  11  12
HETATM   12  N   UNL     1     -11.598   9.351  69.312  1.00  0.00    -0.306 NA 
HETATM   13  H   UNL     1     -10.917   8.644  69.036  1.00  0.00     0.000 HD 
BRANCH  12  14
HETATM   14  C   UNL     1     -11.752   9.355  70.766  1.00  0.00    -0.282 C  
HETATM   15  C   UNL     1     -10.476   8.958  71.513  1.00  0.00    -0.393 C  
HETATM   16  C   UNL     1     -12.157  10.774  71.178  1.00  0.00    -0.415 C  
ENDBRANCH  12  14
ENDBRANCH  11  12
ENDBRANCH  10  11
ENDBRANCH   9  10
BRANCH   9  17
HETATM   17  C   UNL     1      -8.291  11.503  67.473  1.00  0.00    -0.143 A  
HETATM   18  C   UNL     1      -7.762  16.269  67.421  1.00  0.00    -0.160 A  
HETATM   19  C   UNL     1      -6.927  11.434  67.771  1.00  0.00    -0.076 A  
HETATM   20  C   UNL     1      -6.391  16.110  67.537  1.00  0.00    -0.166 A  
HETATM   21  N   UNL     1      -8.590  15.193  67.377  1.00  0.00    -0.173 NA 
HETATM   22  C   UNL     1      -8.024  13.968  67.462  1.00  0.00    -0.187 A  
HETATM   23  C   UNL     1      -6.104  12.568  67.780  1.00  0.00    -0.119 A  
HETATM   24  C   UNL     1      -6.629  13.831  67.619  1.00  0.00    -0.168 A  
HETATM   25  C   UNL     1      -8.814  12.812  67.374  1.00  0.00    -0.190 A  
HETATM   26  N   UNL     1      -5.804  14.895  67.646  1.00  0.00    -0.326 NA 
BRANCH  18  27
HETATM   27  C   UNL     1      -8.399  17.570  67.352  1.00  0.00    -0.220 A  
HETATM   28  N   UNL     1      -9.559  19.320  66.697  1.00  0.00    -0.331 NA 
HETATM   29  C   UNL     1      -9.197  18.054  66.333  1.00  0.00    -0.242 A  
HETATM   30  C   UNL     1     -10.388  20.236  65.954  1.00  0.00    -0.218 C  
HETATM   31  N   UNL     1      -9.050  19.703  67.882  1.00  0.00    -0.321 NA 
HETATM   32  C   UNL     1      -8.345  18.638  68.277  1.00  0.00    -0.324 A  
ENDBRANCH  18  27
ENDBRANCH   9  17
ENDBRANCH   5   9
BRANCH   8  33
HETATM   33  O   UNL     1      -8.356   8.012  63.126  1.00  0.00    -0.103 OA 
HETATM   34  C   UNL     1      -7.221   8.446  62.390  1.00  0.00    -0.098 C  
ENDBRANCH   8  33
ENDBRANCH   2   3
TORSDOF 9
ENDMDL
MODEL      186
REMARK 921   NORMALIZED FREE ENERGY PREDICTED BY IDOCK:   -4.25 KCAL/MOL
REMARK 922        TOTAL FREE ENERGY PREDICTED BY IDOCK:   -7.65 KCAL/MOL
REMARK 923 INTER-LIGAND FREE ENERGY PREDICTED BY IDOCK:   -6.89 KCAL/MOL
REMARK 924 INTRA-LIGAND FREE ENERGY PREDICTED BY IDOCK:   -0.76 KCAL/MOL
REMARK 927      BINDING AFFINITY PREDICTED BY RF-SCORE:    0.00 PKD
ROOT
HETATM    1  C   UNL     1     -12.068   9.676  71.487  1.00  0.00    -0.401 C  
HETATM    2  O   UNL     1     -12.607   8.386  71.799  1.00  0.00    -0.313 OA 
ENDROOT
BRANCH   2   3
HETATM    3  C   UNL     1     -11.719   7.351  71.617  1.00  0.00    -0.279 A  
HETATM    4  C   UNL     1     -11.218   7.162  70.308  1.00  0.00    -0.309 A  
HETATM    5  C   UNL     1     -10.206   6.228  70.013  1.00  0.00    -0.188 A  
HETATM    6  C   UNL     1      -9.837   5.428  71.111  1.00  0.00    -0.243 A  
HETATM    7  C   UNL     1     -11.330   6.506  72.650  1.00  0.00    -0.259 A  
HETATM    8  C   UNL     1     -10.387   5.532  72.394  1.00  0.00    -0.206 A  
BRANCH   5   9
HETATM    9  N   UNL     1      -9.580   6.082  68.730  1.00  0.00    -0.127 NA 
BRANCH   9  10
HETATM   10  C   UNL     1      -8.522   5.037  68.542  1.00  0.00    -0.091 C  
BRANCH  10  11
HETATM   11  C   UNL     1      -8.971   3.555  68.459  1.00  0.00    -0.131 C  
BRANCH  11  12
HETATM   12  N   UNL     1      -9.706   3.134  67.267  1.00  0.00    -0.350 NA 
HETATM   13  H   UNL     1     -10.575   3.664  67.189  1.00  0.00     0.000 HD 
BRANCH  12  14
HETATM   14  C   UNL     1      -8.965   3.202  66.008  1.00  0.00    -0.146 C  
HETATM   15  C   UNL     1      -8.254   1.894  65.652  1.00  0.00    -0.088 C  
HETATM   16  C   UNL     1      -9.971   3.547  64.905  1.00  0.00    -0.096 C  
ENDBRANCH  12  14
ENDBRANCH  11  12
ENDBRANCH  10  11
ENDBRANCH   9  10
BRANCH   9  17
HETATM   17  C   UNL     1      -9.481   7.133  67.738  1.00  0.00    -0.126 A  
HETATM   18  C   UNL     1     -10.204  11.664  66.340  1.00  0.00    -0.221 A  
HETATM   19  C   UNL     1      -9.038   6.885  66.435  1.00  0.00    -0.185 A  
HETATM   20  C   UNL     1      -9.926  11.296  65.033  1.00  0.00    -0.274 A  
HETATM   21  N   UNL     1     -10.168  10.752  67.346  1.00  0.00    -0.195 NA 
HETATM   22  C   UNL     1      -9.841   9.480  67.023  1.00  0.00    -0.190 A  
HETATM   23  C   UNL     1      -9.119   7.848  65.421  1.00  0.00     0.135 A  
HETATM   24  C   UNL     1      -9.523   9.137  65.692  1.00  0.00    -0.240 A  
HETATM   25  C   UNL     1      -9.832   8.477  68.003  1.00  0.00    -0.202 A  
HETATM   26  N   UNL     1      -9.575  10.035  64.689  1.00  0.00    -0.306 NA 
BRANCH  18  27
HETATM   27  C   UNL     1     -10.536  13.023  66.720  1.00  0.00    -0.264 A  
HETATM   28  N   UNL     1     -10.512  15.027  67.627  1.00  0.00    -0.244 NA 
HETATM   29  C   UNL     1      -9.814  13.855  67.554  1.00  0.00    -0.236 A  
HETATM   30  C   UNL     1     -10.163  16.204  68.382  1.00  0.00    -0.240 C  
HETATM   31  N   UNL     1     -11.646  15.021  66.902  1.00  0.00    -0.282 NA 
HETATM   32  C   UNL     1     -11.658  13.802  66.353  1.00  0.00    -0.360 A  
ENDBRANCH  18  27
ENDBRANCH   9  17
ENDBRANCH   5   9
BRANCH   8  33
HETATM   33  O   UNL     1      -9.892   4.628  73.294  1.00  0.00    -0.140 OA 
HETATM   34  C   UNL     1      -8.484   4.450  73.325  1.00  0.00    -0.098 C  
ENDBRANCH   8  33
ENDBRANCH   2   3
TORSDOF 9
ENDMDL
MODEL      187
REMARK 921   NORMALIZED FREE ENERGY PREDICTED BY IDOCK:   -4.23 KCAL/MOL
REMARK 922        TOTAL FREE ENERGY PREDICTED BY IDOCK:   -7.63 KCAL/MOL
REMARK 923 INTER-LIGAND FREE ENERGY PREDICTED BY IDOCK:   -7.24 KCAL/MOL
REMARK 924 INTRA-LIGAND FREE ENERGY PREDICTED BY IDOCK:   -0.39 KCAL/MOL
REMARK 927      BINDING AFFINITY PREDICTED BY RF-SCORE:    0.00 PKD
ROOT
HETATM    1  C   UNL     1     -12.641  12.173  63.333  1.00  0.00    -0.463 C  
HETATM    2  O   UNL     1     -11.462  12.571  64.045  1.00  0.00    -0.346 OA 
ENDROOT
BRANCH   2   3
HETATM    3  C   UNL     1     -10.562  11.551  64.248  1.00  0.00    -0.347 A  
HETATM    4  C   UNL     1     -10.313  11.176  65.588  1.00  0.00    -0.311 A  
HETATM    5  C   UNL     1      -9.518  10.063  65.928  1.00  0.00    -0.205 A  
HETATM    6  C   UNL     1      -8.906   9.447  64.821  1.00  0.00    -0.243 A  
HETATM    7  C   UNL     1      -9.901  10.914  63.203  1.00  0.00    -0.392 A  
HETATM    8  C   UNL     1      -9.061   9.859  63.492  1.00  0.00    -0.256 A  
BRANCH   5   9
HETATM    9  N   UNL     1      -9.333   9.570  67.263  1.00  0.00    -0.133 NA 
BRANCH   9  10
HETATM   10  C   UNL     1     -10.442   8.810  67.925  1.00  0.00    -0.216 C  
BRANCH  10  11
HETATM   11  C   UNL     1     -10.541   8.866  69.471  1.00  0.00    -0.228 C  
BRANCH  11  12
HETATM   12  N   UNL     1     -11.855   9.125  70.059  1.00  0.00    -0.439 NA 
HETATM   13  H   UNL     1     -12.588   8.813  69.422  1.00  0.00     0.000 HD 
BRANCH  12  14
HETATM   14  C   UNL     1     -12.076   8.561  71.389  1.00  0.00    -0.303 C  
HETATM   15  C   UNL     1     -10.795   8.438  72.218  1.00  0.00    -0.422 C  
HETATM   16  C   UNL     1     -13.061   9.482  72.117  1.00  0.00    -0.522 C  
ENDBRANCH  12  14
ENDBRANCH  11  12
ENDBRANCH  10  11
ENDBRANCH   9  10
BRANCH   9  17
HETATM   17  C   UNL     1      -8.414  10.135  68.230  1.00  0.00    -0.115 A  
HETATM   18  C   UNL     1      -5.913  13.836  69.976  1.00  0.00    -0.144 A  
HETATM   19  C   UNL     1      -7.760   9.346  69.181  1.00  0.00    -0.079 A  
HETATM   20  C   UNL     1      -5.180  12.959  70.760  1.00  0.00    -0.147 A  
HETATM   21  N   UNL     1      -6.896  13.384  69.154  1.00  0.00    -0.101 NA 
HETATM   22  C   UNL     1      -7.135  12.053  69.141  1.00  0.00    -0.032 A  
HETATM   23  C   UNL     1      -6.733   9.847  69.990  1.00  0.00    -0.100 A  
HETATM   24  C   UNL     1      -6.403  11.185  69.978  1.00  0.00    -0.147 A  
HETATM   25  C   UNL     1      -8.101  11.512  68.280  1.00  0.00    -0.148 A  
HETATM   26  N   UNL     1      -5.416  11.626  70.781  1.00  0.00    -0.192 NA 
BRANCH  18  27
HETATM   27  C   UNL     1      -5.695  15.269  69.986  1.00  0.00    -0.131 A  
HETATM   28  N   UNL     1      -5.487  17.377  69.393  1.00  0.00    -0.176 NA 
HETATM   29  C   UNL     1      -5.784  16.133  68.912  1.00  0.00    -0.117 A  
HETATM   30  C   UNL     1      -5.444  18.611  68.649  1.00  0.00    -0.193 C  
HETATM   31  N   UNL     1      -5.204  17.389  70.708  1.00  0.00    -0.263 NA 
HETATM   32  C   UNL     1      -5.330  16.107  71.066  1.00  0.00    -0.032 A  
ENDBRANCH  18  27
ENDBRANCH   9  17
ENDBRANCH   5   9
BRANCH   8  33
HETATM   33  O   UNL     1      -8.345   9.124  62.587  1.00  0.00    -0.166 OA 
HETATM   34  C   UNL     1      -7.700   7.954  63.068  1.00  0.00    -0.132 C  
ENDBRANCH   8  33
ENDBRANCH   2   3
TORSDOF 9
ENDMDL
MODEL      188
REMARK 921   NORMALIZED FREE ENERGY PREDICTED BY IDOCK:   -4.15 KCAL/MOL
REMARK 922        TOTAL FREE ENERGY PREDICTED BY IDOCK:   -7.51 KCAL/MOL
REMARK 923 INTER-LIGAND FREE ENERGY PREDICTED BY IDOCK:   -6.58 KCAL/MOL
REMARK 924 INTRA-LIGAND FREE ENERGY PREDICTED BY IDOCK:   -0.93 KCAL/MOL
REMARK 927      BINDING AFFINITY PREDICTED BY RF-SCORE:    0.00 PKD
ROOT
HETATM    1  C   UNL     1     -12.750   8.112  71.544  1.00  0.00    -0.308 C  
HETATM    2  O   UNL     1     -11.779   8.249  70.499  1.00  0.00    -0.205 OA 
ENDROOT
BRANCH   2   3
HETATM    3  C   UNL     1     -10.807   7.276  70.509  1.00  0.00    -0.243 A  
HETATM    4  C   UNL     1      -9.909   7.260  69.418  1.00  0.00    -0.163 A  
HETATM    5  C   UNL     1      -8.790   6.405  69.371  1.00  0.00    -0.132 A  
HETATM    6  C   UNL     1      -8.726   5.498  70.445  1.00  0.00    -0.136 A  
HETATM    7  C   UNL     1     -10.700   6.332  71.524  1.00  0.00    -0.292 A  
HETATM    8  C   UNL     1      -9.657   5.431  71.489  1.00  0.00    -0.152 A  
BRANCH   5   9
HETATM    9  N   UNL     1      -7.784   6.433  68.347  1.00  0.00    -0.103 NA 
BRANCH   9  10
HETATM   10  C   UNL     1      -6.356   6.167  68.713  1.00  0.00    -0.041 C  
BRANCH  10  11
HETATM   11  C   UNL     1      -5.499   7.356  69.216  1.00  0.00    -0.015 C  
BRANCH  11  12
HETATM   12  N   UNL     1      -6.127   8.303  70.137  1.00  0.00    -0.031 NA 
HETATM   13  H   UNL     1      -5.608   8.332  71.015  1.00  0.00     0.000 HD 
BRANCH  12  14
HETATM   14  C   UNL     1      -6.312   9.659  69.622  1.00  0.00    -0.045 C  
HETATM   15  C   UNL     1      -7.757  10.155  69.723  1.00  0.00    -0.176 C  
HETATM   16  C   UNL     1      -5.403  10.585  70.437  1.00  0.00    -0.063 C  
ENDBRANCH  12  14
ENDBRANCH  11  12
ENDBRANCH  10  11
ENDBRANCH   9  10
BRANCH   9  17
HETATM   17  C   UNL     1      -7.895   7.170  67.105  1.00  0.00    -0.110 A  
HETATM   18  C   UNL     1     -10.012  10.495  64.373  1.00  0.00    -0.343 A  
HETATM   19  C   UNL     1      -7.125   6.851  65.982  1.00  0.00    -0.073 A  
HETATM   20  C   UNL     1      -9.341  10.000  63.266  1.00  0.00    -0.256 A  
HETATM   21  N   UNL     1      -9.837   9.942  65.601  1.00  0.00    -0.286 NA 
HETATM   22  C   UNL     1      -8.980   8.901  65.700  1.00  0.00    -0.201 A  
HETATM   23  C   UNL     1      -7.357   7.428  64.727  1.00  0.00    -0.077 A  
HETATM   24  C   UNL     1      -8.279   8.440  64.566  1.00  0.00    -0.146 A  
HETATM   25  C   UNL     1      -8.789   8.250  66.927  1.00  0.00    -0.155 A  
HETATM   26  N   UNL     1      -8.462   8.974  63.344  1.00  0.00    -0.192 NA 
BRANCH  18  27
HETATM   27  C   UNL     1     -10.919  11.624  64.303  1.00  0.00    -0.418 A  
HETATM   28  N   UNL     1     -12.087  13.427  64.776  1.00  0.00    -0.386 NA 
HETATM   29  C   UNL     1     -11.152  12.569  65.283  1.00  0.00    -0.297 A  
HETATM   30  C   UNL     1     -12.658  14.578  65.430  1.00  0.00    -0.232 C  
HETATM   31  N   UNL     1     -12.487  13.108  63.532  1.00  0.00    -0.749 NA 
HETATM   32  C   UNL     1     -11.777  12.012  63.247  1.00  0.00    -0.333 A  
ENDBRANCH  18  27
ENDBRANCH   9  17
ENDBRANCH   5   9
BRANCH   8  33
HETATM   33  O   UNL     1      -9.405   4.447  72.406  1.00  0.00    -0.122 OA 
HETATM   34  C   UNL     1     -10.449   3.522  72.667  1.00  0.00    -0.104 C  
ENDBRANCH   8  33
ENDBRANCH   2   3
TORSDOF 9
ENDMDL
MODEL      189
REMARK 921   NORMALIZED FREE ENERGY PREDICTED BY IDOCK:   -4.14 KCAL/MOL
REMARK 922        TOTAL FREE ENERGY PREDICTED BY IDOCK:   -7.48 KCAL/MOL
REMARK 923 INTER-LIGAND FREE ENERGY PREDICTED BY IDOCK:   -6.55 KCAL/MOL
REMARK 924 INTRA-LIGAND FREE ENERGY PREDICTED BY IDOCK:   -0.93 KCAL/MOL
REMARK 927      BINDING AFFINITY PREDICTED BY RF-SCORE:    0.00 PKD
ROOT
HETATM    1  C   UNL     1      -6.633  17.834  69.375  1.00  0.00    -0.202 C  
HETATM    2  O   UNL     1      -7.888  17.309  68.925  1.00  0.00    -0.256 OA 
ENDROOT
BRANCH   2   3
HETATM    3  C   UNL     1      -7.888  15.946  68.737  1.00  0.00    -0.185 A  
HETATM    4  C   UNL     1      -9.052  15.380  68.168  1.00  0.00    -0.184 A  
HETATM    5  C   UNL     1      -9.131  14.022  67.800  1.00  0.00    -0.192 A  
HETATM    6  C   UNL     1      -7.998  13.271  68.163  1.00  0.00    -0.150 A  
HETATM    7  C   UNL     1      -6.814  15.139  69.095  1.00  0.00    -0.136 A  
HETATM    8  C   UNL     1      -6.871  13.790  68.813  1.00  0.00    -0.106 A  
BRANCH   5   9
HETATM    9  N   UNL     1     -10.241  13.428  67.112  1.00  0.00    -0.245 NA 
BRANCH   9  10
HETATM   10  C   UNL     1     -11.523  13.190  67.851  1.00  0.00    -0.308 C  
BRANCH  10  11
HETATM   11  C   UNL     1     -11.453  13.018  69.390  1.00  0.00    -0.261 C  
BRANCH  11  12
HETATM   12  N   UNL     1     -12.530  13.602  70.189  1.00  0.00    -0.282 NA 
HETATM   13  H   UNL     1     -13.118  12.863  70.574  1.00  0.00     0.000 HD 
BRANCH  12  14
HETATM   14  C   UNL     1     -12.109  14.510  71.254  1.00  0.00    -0.354 C  
HETATM   15  C   UNL     1     -10.739  15.145  71.004  1.00  0.00    -0.000 C  
HETATM   16  C   UNL     1     -13.166  15.615  71.357  1.00  0.00    -0.540 C  
ENDBRANCH  12  14
ENDBRANCH  11  12
ENDBRANCH  10  11
ENDBRANCH   9  10
BRANCH   9  17
HETATM   17  C   UNL     1     -10.127  12.578  65.944  1.00  0.00    -0.254 A  
HETATM   18  C   UNL     1      -8.322   8.735  63.713  1.00  0.00    -0.136 A  
HETATM   19  C   UNL     1     -10.713  12.915  64.721  1.00  0.00    -0.354 A  
HETATM   20  C   UNL     1      -8.782   9.231  62.505  1.00  0.00    -0.230 A  
HETATM   21  N   UNL     1      -8.527   9.414  64.872  1.00  0.00    -0.152 NA 
HETATM   22  C   UNL     1      -9.205  10.582  64.798  1.00  0.00    -0.227 A  
HETATM   23  C   UNL     1     -10.452  12.201  63.544  1.00  0.00    -0.490 A  
HETATM   24  C   UNL     1      -9.699  11.047  63.562  1.00  0.00    -0.337 A  
HETATM   25  C   UNL     1      -9.411  11.359  65.947  1.00  0.00    -0.251 A  
HETATM   26  N   UNL     1      -9.482  10.386  62.409  1.00  0.00    -0.265 NA 
BRANCH  18  27
HETATM   27  C   UNL     1      -7.612   7.476  63.827  1.00  0.00    -0.118 A  
HETATM   28  N   UNL     1      -6.474   5.646  63.384  1.00  0.00    -0.028 NA 
HETATM   29  C   UNL     1      -7.001   6.769  62.809  1.00  0.00    -0.048 A  
HETATM   30  C   UNL     1      -5.743   4.593  62.726  1.00  0.00    -0.013 C  
HETATM   31  N   UNL     1      -6.702   5.565  64.707  1.00  0.00    -0.043 NA 
HETATM   32  C   UNL     1      -7.394   6.677  64.973  1.00  0.00    -0.082 A  
ENDBRANCH  18  27
ENDBRANCH   9  17
ENDBRANCH   5   9
BRANCH   8  33
HETATM   33  O   UNL     1      -5.904  12.863  69.091  1.00  0.00    -0.072 OA 
HETATM   34  C   UNL     1      -6.045  11.583  68.495  1.00  0.00    -0.049 C  
ENDBRANCH   8  33
ENDBRANCH   2   3
TORSDOF 9
ENDMDL
MODEL      190
REMARK 921   NORMALIZED FREE ENERGY PREDICTED BY IDOCK:   -4.11 KCAL/MOL
REMARK 922        TOTAL FREE ENERGY PREDICTED BY IDOCK:   -7.44 KCAL/MOL
REMARK 923 INTER-LIGAND FREE ENERGY PREDICTED BY IDOCK:   -6.38 KCAL/MOL
REMARK 924 INTRA-LIGAND FREE ENERGY PREDICTED BY IDOCK:   -1.07 KCAL/MOL
REMARK 927      BINDING AFFINITY PREDICTED BY RF-SCORE:    0.00 PKD
ROOT
HETATM    1  C   UNL     1     -11.743  13.368  63.803  1.00  0.00    -0.376 C  
HETATM    2  O   UNL     1     -10.624  14.074  64.356  1.00  0.00    -0.382 OA 
ENDROOT
BRANCH   2   3
HETATM    3  C   UNL     1     -10.459  13.887  65.708  1.00  0.00    -0.307 A  
HETATM    4  C   UNL     1     -10.499  12.555  66.179  1.00  0.00    -0.272 A  
HETATM    5  C   UNL     1     -10.211  12.216  67.516  1.00  0.00    -0.199 A  
HETATM    6  C   UNL     1     -10.006  13.329  68.350  1.00  0.00    -0.226 A  
HETATM    7  C   UNL     1     -10.277  14.943  66.595  1.00  0.00    -0.264 A  
HETATM    8  C   UNL     1     -10.057  14.663  67.927  1.00  0.00    -0.225 A  
BRANCH   5   9
HETATM    9  N   UNL     1     -10.119  10.873  68.014  1.00  0.00    -0.173 NA 
BRANCH   9  10
HETATM   10  C   UNL     1     -11.352  10.195  68.532  1.00  0.00    -0.108 C  
BRANCH  10  11
HETATM   11  C   UNL     1     -12.035  10.789  69.790  1.00  0.00    -0.325 C  
BRANCH  11  12
HETATM   12  N   UNL     1     -13.166  10.057  70.358  1.00  0.00    -0.577 NA 
HETATM   13  H   UNL     1     -13.504   9.365  69.689  1.00  0.00     0.000 HD 
BRANCH  12  14
HETATM   14  C   UNL     1     -12.925   9.422  71.653  1.00  0.00    -0.391 C  
HETATM   15  C   UNL     1     -14.159   8.722  72.226  1.00  0.00    -0.511 C  
HETATM   16  C   UNL     1     -11.806   8.394  71.456  1.00  0.00    -0.345 C  
ENDBRANCH  12  14
ENDBRANCH  11  12
ENDBRANCH  10  11
ENDBRANCH   9  10
BRANCH   9  17
HETATM   17  C   UNL     1      -8.911  10.270  68.539  1.00  0.00    -0.134 A  
HETATM   18  C   UNL     1      -6.674   7.370  71.635  1.00  0.00    -0.050 A  
HETATM   19  C   UNL     1      -7.640  10.647  68.096  1.00  0.00    -0.092 A  
HETATM   20  C   UNL     1      -5.460   7.927  71.267  1.00  0.00    -0.034 A  
HETATM   21  N   UNL     1      -7.836   7.788  71.070  1.00  0.00    -0.087 NA 
HETATM   22  C   UNL     1      -7.758   8.758  70.130  1.00  0.00    -0.084 A  
HETATM   23  C   UNL     1      -6.468  10.211  68.726  1.00  0.00    -0.052 A  
HETATM   24  C   UNL     1      -6.507   9.282  69.742  1.00  0.00    -0.040 A  
HETATM   25  C   UNL     1      -8.922   9.272  69.540  1.00  0.00    -0.154 A  
HETATM   26  N   UNL     1      -5.355   8.882  70.313  1.00  0.00    -0.027 NA 
BRANCH  18  27
HETATM   27  C   UNL     1      -6.786   6.314  72.623  1.00  0.00    -0.074 A  
HETATM   28  N   UNL     1      -7.416   4.529  73.741  1.00  0.00    -0.080 NA 
HETATM   29  C   UNL     1      -7.671   5.254  72.611  1.00  0.00    -0.098 A  
HETATM   30  C   UNL     1      -8.088   3.329  74.176  1.00  0.00    -0.070 C  
HETATM   31  N   UNL     1      -6.429   5.043  74.497  1.00  0.00    -0.064 NA 
HETATM   32  C   UNL     1      -6.049   6.128  73.815  1.00  0.00    -0.064 A  
ENDBRANCH  18  27
ENDBRANCH   9  17
ENDBRANCH   5   9
BRANCH   8  33
HETATM   33  O   UNL     1      -9.854  15.579  68.924  1.00  0.00    -0.198 OA 
HETATM   34  C   UNL     1     -10.540  15.364  70.148  1.00  0.00    -0.295 C  
ENDBRANCH   8  33
ENDBRANCH   2   3
TORSDOF 9
ENDMDL
MODEL      191
REMARK 921   NORMALIZED FREE ENERGY PREDICTED BY IDOCK:   -4.08 KCAL/MOL
REMARK 922        TOTAL FREE ENERGY PREDICTED BY IDOCK:   -7.40 KCAL/MOL
REMARK 923 INTER-LIGAND FREE ENERGY PREDICTED BY IDOCK:   -6.01 KCAL/MOL
REMARK 924 INTRA-LIGAND FREE ENERGY PREDICTED BY IDOCK:   -1.39 KCAL/MOL
REMARK 927      BINDING AFFINITY PREDICTED BY RF-SCORE:    0.00 PKD
ROOT
HETATM    1  C   UNL     1      -5.512  14.327  71.674  1.00  0.00    -0.201 C  
HETATM    2  O   UNL     1      -5.428  15.729  71.385  1.00  0.00     0.018 OA 
ENDROOT
BRANCH   2   3
HETATM    3  C   UNL     1      -5.894  16.070  70.137  1.00  0.00    -0.155 A  
HETATM    4  C   UNL     1      -7.173  15.588  69.778  1.00  0.00    -0.110 A  
HETATM    5  C   UNL     1      -7.821  15.973  68.588  1.00  0.00    -0.179 A  
HETATM    6  C   UNL     1      -7.029  16.776  67.747  1.00  0.00    -0.151 A  
HETATM    7  C   UNL     1      -5.154  16.839  69.245  1.00  0.00    -0.130 A  
HETATM    8  C   UNL     1      -5.722  17.189  68.038  1.00  0.00    -0.120 A  
BRANCH   5   9
HETATM    9  N   UNL     1      -9.164  15.609  68.236  1.00  0.00    -0.186 NA 
BRANCH   9  10
HETATM   10  C   UNL     1     -10.300  16.072  69.097  1.00  0.00    -0.247 C  
BRANCH  10  11
HETATM   11  C   UNL     1     -11.106  17.312  68.632  1.00  0.00     0.037 C  
BRANCH  11  12
HETATM   12  N   UNL     1     -10.731  17.928  67.360  1.00  0.00    -0.343 NA 
HETATM   13  H   UNL     1     -11.485  17.815  66.683  1.00  0.00     0.000 HD 
BRANCH  12  14
HETATM   14  C   UNL     1     -10.331  19.333  67.430  1.00  0.00    -0.438 C  
HETATM   15  C   UNL     1      -9.710  19.721  68.775  1.00  0.00    -0.428 C  
HETATM   16  C   UNL     1      -9.308  19.572  66.315  1.00  0.00    -0.431 C  
ENDBRANCH  12  14
ENDBRANCH  11  12
ENDBRANCH  10  11
ENDBRANCH   9  10
BRANCH   9  17
HETATM   17  C   UNL     1      -9.523  14.448  67.448  1.00  0.00    -0.207 A  
HETATM   18  C   UNL     1      -8.394  10.274  65.372  1.00  0.00    -0.162 A  
HETATM   19  C   UNL     1     -10.771  14.327  66.830  1.00  0.00    -0.287 A  
HETATM   20  C   UNL     1      -9.578  10.321  64.655  1.00  0.00    -0.312 A  
HETATM   21  N   UNL     1      -8.065  11.263  66.244  1.00  0.00    -0.146 NA 
HETATM   22  C   UNL     1      -8.942  12.282  66.390  1.00  0.00    -0.117 A  
HETATM   23  C   UNL     1     -11.058  13.305  65.916  1.00  0.00    -0.301 A  
HETATM   24  C   UNL     1     -10.160  12.288  65.678  1.00  0.00    -0.252 A  
HETATM   25  C   UNL     1      -8.645  13.361  67.236  1.00  0.00    -0.216 A  
HETATM   26  N   UNL     1     -10.481  11.318  64.801  1.00  0.00    -0.308 NA 
BRANCH  18  27
HETATM   27  C   UNL     1      -7.445   9.184  65.254  1.00  0.00    -0.097 A  
HETATM   28  N   UNL     1      -6.354   7.295  65.537  1.00  0.00    -0.037 NA 
HETATM   29  C   UNL     1      -7.428   8.012  65.985  1.00  0.00    -0.077 A  
HETATM   30  C   UNL     1      -5.916   6.002  65.999  1.00  0.00    -0.028 C  
HETATM   31  N   UNL     1      -5.662   7.918  64.566  1.00  0.00    -0.044 NA 
HETATM   32  C   UNL     1      -6.327   9.066  64.397  1.00  0.00    -0.071 A  
ENDBRANCH  18  27
ENDBRANCH   9  17
ENDBRANCH   5   9
BRANCH   8  33
HETATM   33  O   UNL     1      -5.138  17.941  67.056  1.00  0.00    -0.121 OA 
HETATM   34  C   UNL     1      -5.807  19.131  66.668  1.00  0.00    -0.161 C  
ENDBRANCH   8  33
ENDBRANCH   2   3
TORSDOF 9
ENDMDL
MODEL      192
REMARK 921   NORMALIZED FREE ENERGY PREDICTED BY IDOCK:   -4.05 KCAL/MOL
REMARK 922        TOTAL FREE ENERGY PREDICTED BY IDOCK:   -7.36 KCAL/MOL
REMARK 923 INTER-LIGAND FREE ENERGY PREDICTED BY IDOCK:   -6.53 KCAL/MOL
REMARK 924 INTRA-LIGAND FREE ENERGY PREDICTED BY IDOCK:   -0.83 KCAL/MOL
REMARK 927      BINDING AFFINITY PREDICTED BY RF-SCORE:    0.00 PKD
ROOT
HETATM    1  C   UNL     1     -11.574   4.741  73.091  1.00  0.00    -0.197 C  
HETATM    2  O   UNL     1     -11.637   5.834  72.165  1.00  0.00    -0.276 OA 
ENDROOT
BRANCH   2   3
HETATM    3  C   UNL     1     -10.443   6.106  71.540  1.00  0.00    -0.222 A  
HETATM    4  C   UNL     1     -10.332   5.727  70.182  1.00  0.00    -0.324 A  
HETATM    5  C   UNL     1      -9.218   6.066  69.390  1.00  0.00    -0.132 A  
HETATM    6  C   UNL     1      -8.188   6.703  70.106  1.00  0.00    -0.133 A  
HETATM    7  C   UNL     1      -9.374   6.710  72.193  1.00  0.00    -0.142 A  
HETATM    8  C   UNL     1      -8.235   7.004  71.473  1.00  0.00    -0.108 A  
BRANCH   5   9
HETATM    9  N   UNL     1      -9.111   5.811  67.982  1.00  0.00    -0.111 NA 
BRANCH   9  10
HETATM   10  C   UNL     1      -8.762   4.432  67.509  1.00  0.00    -0.105 C  
BRANCH  10  11
HETATM   11  C   UNL     1      -7.276   3.996  67.569  1.00  0.00    -0.067 C  
BRANCH  11  12
HETATM   12  N   UNL     1      -6.980   2.665  68.096  1.00  0.00    -0.047 NA 
HETATM   13  H   UNL     1      -6.500   2.109  67.388  1.00  0.00     0.000 HD 
BRANCH  12  14
HETATM   14  C   UNL     1      -6.229   2.631  69.350  1.00  0.00    -0.028 C  
HETATM   15  C   UNL     1      -7.115   2.441  70.584  1.00  0.00    -0.033 C  
HETATM   16  C   UNL     1      -5.236   1.468  69.257  1.00  0.00    -0.008 C  
ENDBRANCH  12  14
ENDBRANCH  11  12
ENDBRANCH  10  11
ENDBRANCH   9  10
BRANCH   9  17
HETATM   17  C   UNL     1      -8.808   6.816  66.983  1.00  0.00    -0.115 A  
HETATM   18  C   UNL     1     -10.023  10.685  64.423  1.00  0.00    -0.350 A  
HETATM   19  C   UNL     1      -7.644   6.768  66.211  1.00  0.00    -0.086 A  
HETATM   20  C   UNL     1      -8.941  10.462  63.587  1.00  0.00    -0.231 A  
HETATM   21  N   UNL     1     -10.279   9.861  65.472  1.00  0.00    -0.220 NA 
HETATM   22  C   UNL     1      -9.432   8.826  65.673  1.00  0.00    -0.101 A  
HETATM   23  C   UNL     1      -7.433   7.621  65.120  1.00  0.00    -0.088 A  
HETATM   24  C   UNL     1      -8.314   8.642  64.833  1.00  0.00    -0.164 A  
HETATM   25  C   UNL     1      -9.662   7.908  66.707  1.00  0.00    -0.303 A  
HETATM   26  N   UNL     1      -8.067   9.446  63.781  1.00  0.00    -0.144 NA 
BRANCH  18  27
HETATM   27  C   UNL     1     -10.935  11.799  64.247  1.00  0.00    -0.419 A  
HETATM   28  N   UNL     1     -11.865  13.792  64.282  1.00  0.00    -0.415 NA 
HETATM   29  C   UNL     1     -10.741  13.106  64.649  1.00  0.00    -0.380 A  
HETATM   30  C   UNL     1     -12.138  15.192  64.493  1.00  0.00    -0.301 C  
HETATM   31  N   UNL     1     -12.785  13.024  63.671  1.00  0.00    -0.704 NA 
HETATM   32  C   UNL     1     -12.217  11.814  63.651  1.00  0.00    -0.383 A  
ENDBRANCH  18  27
ENDBRANCH   9  17
ENDBRANCH   5   9
BRANCH   8  33
HETATM   33  O   UNL     1      -7.103   7.599  71.958  1.00  0.00    -0.061 OA 
HETATM   34  C   UNL     1      -7.161   8.126  73.275  1.00  0.00    -0.127 C  
ENDBRANCH   8  33
ENDBRANCH   2   3
TORSDOF 9
ENDMDL
MODEL      193
REMARK 921   NORMALIZED FREE ENERGY PREDICTED BY IDOCK:   -4.05 KCAL/MOL
REMARK 922        TOTAL FREE ENERGY PREDICTED BY IDOCK:   -7.36 KCAL/MOL
REMARK 923 INTER-LIGAND FREE ENERGY PREDICTED BY IDOCK:   -6.61 KCAL/MOL
REMARK 924 INTRA-LIGAND FREE ENERGY PREDICTED BY IDOCK:   -0.75 KCAL/MOL
REMARK 927      BINDING AFFINITY PREDICTED BY RF-SCORE:    0.00 PKD
ROOT
HETATM    1  C   UNL     1     -12.345  14.936  64.505  1.00  0.00    -0.315 C  
HETATM    2  O   UNL     1     -12.780  13.576  64.373  1.00  0.00    -0.643 OA 
ENDROOT
BRANCH   2   3
HETATM    3  C   UNL     1     -11.761  12.655  64.440  1.00  0.00    -0.369 A  
HETATM    4  C   UNL     1     -11.277  12.331  65.728  1.00  0.00    -0.378 A  
HETATM    5  C   UNL     1     -10.332  11.308  65.947  1.00  0.00    -0.253 A  
HETATM    6  C   UNL     1      -9.835  10.735  64.762  1.00  0.00    -0.358 A  
HETATM    7  C   UNL     1     -11.204  12.068  63.310  1.00  0.00    -0.403 A  
HETATM    8  C   UNL     1     -10.228  11.106  63.470  1.00  0.00    -0.390 A  
BRANCH   5   9
HETATM    9  N   UNL     1      -9.901  10.860  67.241  1.00  0.00    -0.173 NA 
BRANCH   9  10
HETATM   10  C   UNL     1      -9.639  11.868  68.318  1.00  0.00    -0.201 C  
BRANCH  10  11
HETATM   11  C   UNL     1      -8.172  12.303  68.566  1.00  0.00    -0.096 C  
BRANCH  11  12
HETATM   12  N   UNL     1      -7.676  13.469  67.835  1.00  0.00    -0.136 NA 
HETATM   13  H   UNL     1      -8.459  14.053  67.539  1.00  0.00     0.000 HD 
BRANCH  12  14
HETATM   14  C   UNL     1      -6.684  14.282  68.536  1.00  0.00    -0.099 C  
HETATM   15  C   UNL     1      -5.823  15.133  67.598  1.00  0.00    -0.078 C  
HETATM   16  C   UNL     1      -7.443  15.202  69.497  1.00  0.00    -0.213 C  
ENDBRANCH  12  14
ENDBRANCH  11  12
ENDBRANCH  10  11
ENDBRANCH   9  10
BRANCH   9  17
HETATM   17  C   UNL     1      -9.213   9.611  67.492  1.00  0.00    -0.133 A  
HETATM   18  C   UNL     1      -8.406   5.736  70.201  1.00  0.00    -0.117 A  
HETATM   19  C   UNL     1      -8.164   9.165  66.682  1.00  0.00    -0.115 A  
HETATM   20  C   UNL     1      -7.270   5.463  69.456  1.00  0.00    -0.064 A  
HETATM   21  N   UNL     1      -9.182   6.815  69.922  1.00  0.00    -0.147 NA 
HETATM   22  C   UNL     1      -8.809   7.600  68.886  1.00  0.00    -0.135 A  
HETATM   23  C   UNL     1      -7.372   8.062  67.023  1.00  0.00    -0.091 A  
HETATM   24  C   UNL     1      -7.671   7.279  68.117  1.00  0.00    -0.117 A  
HETATM   25  C   UNL     1      -9.536   8.758  68.571  1.00  0.00    -0.149 A  
HETATM   26  N   UNL     1      -6.889   6.221  68.402  1.00  0.00    -0.068 NA 
BRANCH  18  27
HETATM   27  C   UNL     1      -8.843   4.901  71.302  1.00  0.00    -0.154 A  
HETATM   28  N   UNL     1     -10.064   3.863  72.809  1.00  0.00    -0.154 NA 
HETATM   29  C   UNL     1     -10.138   4.724  71.751  1.00  0.00    -0.193 A  
HETATM   30  C   UNL     1     -11.156   3.378  73.615  1.00  0.00    -0.222 C  
HETATM   31  N   UNL     1      -8.810   3.466  73.090  1.00  0.00    -0.081 NA 
HETATM   32  C   UNL     1      -8.070   4.098  72.173  1.00  0.00    -0.090 A  
ENDBRANCH  18  27
ENDBRANCH   9  17
ENDBRANCH   5   9
BRANCH   8  33
HETATM   33  O   UNL     1      -9.586  10.430  62.470  1.00  0.00    -0.292 OA 
HETATM   34  C   UNL     1      -8.436   9.679  62.831  1.00  0.00    -0.181 C  
ENDBRANCH   8  33
ENDBRANCH   2   3
TORSDOF 9
ENDMDL
MODEL      194
REMARK 921   NORMALIZED FREE ENERGY PREDICTED BY IDOCK:   -4.02 KCAL/MOL
REMARK 922        TOTAL FREE ENERGY PREDICTED BY IDOCK:   -7.30 KCAL/MOL
REMARK 923 INTER-LIGAND FREE ENERGY PREDICTED BY IDOCK:   -6.43 KCAL/MOL
REMARK 924 INTRA-LIGAND FREE ENERGY PREDICTED BY IDOCK:   -0.87 KCAL/MOL
REMARK 927      BINDING AFFINITY PREDICTED BY RF-SCORE:    0.00 PKD
ROOT
HETATM    1  C   UNL     1      -9.802   5.297  71.884  1.00  0.00    -0.178 C  
HETATM    2  O   UNL     1      -8.612   4.983  71.150  1.00  0.00    -0.119 OA 
ENDROOT
BRANCH   2   3
HETATM    3  C   UNL     1      -8.018   6.072  70.557  1.00  0.00    -0.111 A  
HETATM    4  C   UNL     1      -8.397   6.360  69.226  1.00  0.00    -0.122 A  
HETATM    5  C   UNL     1      -7.967   7.519  68.550  1.00  0.00    -0.123 A  
HETATM    6  C   UNL     1      -7.038   8.285  69.278  1.00  0.00    -0.060 A  
HETATM    7  C   UNL     1      -7.073   6.858  71.207  1.00  0.00    -0.075 A  
HETATM    8  C   UNL     1      -6.573   7.969  70.560  1.00  0.00    -0.037 A  
BRANCH   5   9
HETATM    9  N   UNL     1      -8.418   7.918  67.247  1.00  0.00    -0.121 NA 
BRANCH   9  10
HETATM   10  C   UNL     1      -7.759   7.339  66.032  1.00  0.00    -0.095 C  
BRANCH  10  11
HETATM   11  C   UNL     1      -7.427   5.825  66.036  1.00  0.00    -0.082 C  
BRANCH  11  12
HETATM   12  N   UNL     1      -8.000   5.002  64.972  1.00  0.00    -0.097 NA 
HETATM   13  H   UNL     1      -7.254   4.571  64.426  1.00  0.00     0.000 HD 
BRANCH  12  14
HETATM   14  C   UNL     1      -8.955   3.982  65.403  1.00  0.00    -0.132 C  
HETATM   15  C   UNL     1     -10.331   4.123  64.747  1.00  0.00    -0.206 C  
HETATM   16  C   UNL     1      -8.360   2.617  65.042  1.00  0.00    -0.093 C  
ENDBRANCH  12  14
ENDBRANCH  11  12
ENDBRANCH  10  11
ENDBRANCH   9  10
BRANCH   9  17
HETATM   17  C   UNL     1      -9.085   9.170  66.955  1.00  0.00    -0.135 A  
HETATM   18  C   UNL     1     -11.631  12.992  68.340  1.00  0.00    -0.335 A  
HETATM   19  C   UNL     1      -9.228   9.647  65.648  1.00  0.00    -0.270 A  
HETATM   20  C   UNL     1     -11.880  13.296  67.011  1.00  0.00    -0.390 A  
HETATM   21  N   UNL     1     -10.883  11.910  68.681  1.00  0.00    -0.226 NA 
HETATM   22  C   UNL     1     -10.387  11.153  67.676  1.00  0.00    -0.192 A  
HETATM   23  C   UNL     1     -10.031  10.752  65.339  1.00  0.00    -0.330 A  
HETATM   24  C   UNL     1     -10.621  11.506  66.330  1.00  0.00    -0.259 A  
HETATM   25  C   UNL     1      -9.648   9.994  67.955  1.00  0.00    -0.154 A  
HETATM   26  N   UNL     1     -11.376  12.567  65.988  1.00  0.00    -0.325 NA 
BRANCH  18  27
HETATM   27  C   UNL     1     -12.130  13.796  69.437  1.00  0.00    -0.377 A  
HETATM   28  N   UNL     1     -12.888  14.464  71.391  1.00  0.00    -0.320 NA 
HETATM   29  C   UNL     1     -12.455  13.362  70.708  1.00  0.00    -0.341 A  
HETATM   30  C   UNL     1     -13.344  14.517  72.758  1.00  0.00    -0.507 C  
HETATM   31  N   UNL     1     -12.875  15.590  70.655  1.00  0.00    -0.457 NA 
HETATM   32  C   UNL     1     -12.415  15.181  69.469  1.00  0.00    -0.085 A  
ENDBRANCH  18  27
ENDBRANCH   9  17
ENDBRANCH   5   9
BRANCH   8  33
HETATM   33  O   UNL     1      -5.649   8.847  71.057  1.00  0.00    -0.032 OA 
HETATM   34  C   UNL     1      -5.761   9.198  72.428  1.00  0.00    -0.050 C  
ENDBRANCH   8  33
ENDBRANCH   2   3
TORSDOF 9
ENDMDL
MODEL      195
REMARK 921   NORMALIZED FREE ENERGY PREDICTED BY IDOCK:   -4.00 KCAL/MOL
REMARK 922        TOTAL FREE ENERGY PREDICTED BY IDOCK:   -7.27 KCAL/MOL
REMARK 923 INTER-LIGAND FREE ENERGY PREDICTED BY IDOCK:   -6.51 KCAL/MOL
REMARK 924 INTRA-LIGAND FREE ENERGY PREDICTED BY IDOCK:   -0.76 KCAL/MOL
REMARK 927      BINDING AFFINITY PREDICTED BY RF-SCORE:    0.00 PKD
ROOT
HETATM    1  C   UNL     1     -10.747  20.204  66.023  1.00  0.00    -0.156 C  
HETATM    2  O   UNL     1     -10.980  19.188  67.007  1.00  0.00    -0.426 OA 
ENDROOT
BRANCH   2   3
HETATM    3  C   UNL     1      -9.840  18.755  67.643  1.00  0.00    -0.324 A  
HETATM    4  C   UNL     1      -9.676  17.357  67.776  1.00  0.00    -0.268 A  
HETATM    5  C   UNL     1      -8.496  16.779  68.285  1.00  0.00    -0.222 A  
HETATM    6  C   UNL     1      -7.562  17.720  68.755  1.00  0.00    -0.260 A  
HETATM    7  C   UNL     1      -8.887  19.629  68.155  1.00  0.00    -0.370 A  
HETATM    8  C   UNL     1      -7.743  19.109  68.722  1.00  0.00    -0.355 A  
BRANCH   5   9
HETATM    9  N   UNL     1      -8.232  15.369  68.328  1.00  0.00    -0.142 NA 
BRANCH   9  10
HETATM   10  C   UNL     1      -6.855  14.889  68.675  1.00  0.00    -0.106 C  
BRANCH  10  11
HETATM   11  C   UNL     1      -6.630  14.279  70.082  1.00  0.00    -0.070 C  
BRANCH  11  12
HETATM   12  N   UNL     1      -5.566  13.286  70.230  1.00  0.00    -0.130 NA 
HETATM   13  H   UNL     1      -5.173  13.335  71.170  1.00  0.00     0.000 HD 
BRANCH  12  14
HETATM   14  C   UNL     1      -5.937  11.908  69.914  1.00  0.00    -0.148 C  
HETATM   15  C   UNL     1      -5.553  11.486  68.494  1.00  0.00    -0.042 C  
HETATM   16  C   UNL     1      -5.222  11.001  70.921  1.00  0.00    -0.113 C  
ENDBRANCH  12  14
ENDBRANCH  11  12
ENDBRANCH  10  11
ENDBRANCH   9  10
BRANCH   9  17
HETATM   17  C   UNL     1      -8.984  14.367  67.600  1.00  0.00    -0.192 A  
HETATM   18  C   UNL     1      -9.195  10.320  65.035  1.00  0.00    -0.213 A  
HETATM   19  C   UNL     1     -10.352  14.505  67.348  1.00  0.00    -0.252 A  
HETATM   20  C   UNL     1     -10.500  10.623  64.681  1.00  0.00    -0.205 A  
HETATM   21  N   UNL     1      -8.479  11.147  65.841  1.00  0.00    -0.144 NA 
HETATM   22  C   UNL     1      -9.093  12.266  66.288  1.00  0.00    -0.125 A  
HETATM   23  C   UNL     1     -11.046  13.643  66.489  1.00  0.00    -0.310 A  
HETATM   24  C   UNL     1     -10.435  12.533  65.947  1.00  0.00    -0.265 A  
HETATM   25  C   UNL     1      -8.398  13.190  67.083  1.00  0.00    -0.146 A  
HETATM   26  N   UNL     1     -11.142  11.724  65.135  1.00  0.00    -0.303 NA 
BRANCH  18  27
HETATM   27  C   UNL     1      -8.518   9.118  64.590  1.00  0.00    -0.197 A  
HETATM   28  N   UNL     1      -7.353   7.254  64.520  1.00  0.00    -0.074 NA 
HETATM   29  C   UNL     1      -7.823   8.215  65.370  1.00  0.00    -0.115 A  
HETATM   30  C   UNL     1      -6.562   6.099  64.864  1.00  0.00    -0.039 C  
HETATM   31  N   UNL     1      -7.687   7.466  63.234  1.00  0.00    -0.117 NA 
HETATM   32  C   UNL     1      -8.394   8.600  63.280  1.00  0.00    -0.135 A  
ENDBRANCH  18  27
ENDBRANCH   9  17
ENDBRANCH   5   9
BRANCH   8  33
HETATM   33  O   UNL     1      -6.710  19.824  69.263  1.00  0.00    -0.330 OA 
HETATM   34  C   UNL     1      -5.614  19.087  69.783  1.00  0.00    -0.217 C  
ENDBRANCH   8  33
ENDBRANCH   2   3
TORSDOF 9
ENDMDL
MODEL      196
REMARK 921   NORMALIZED FREE ENERGY PREDICTED BY IDOCK:   -3.98 KCAL/MOL
REMARK 922        TOTAL FREE ENERGY PREDICTED BY IDOCK:   -7.25 KCAL/MOL
REMARK 923 INTER-LIGAND FREE ENERGY PREDICTED BY IDOCK:   -7.33 KCAL/MOL
REMARK 924 INTRA-LIGAND FREE ENERGY PREDICTED BY IDOCK:    0.08 KCAL/MOL
REMARK 927      BINDING AFFINITY PREDICTED BY RF-SCORE:    0.00 PKD
ROOT
HETATM    1  C   UNL     1     -10.751  19.976  65.890  1.00  0.00    -0.274 C  
HETATM    2  O   UNL     1     -10.973  19.209  67.080  1.00  0.00    -0.453 OA 
ENDROOT
BRANCH   2   3
HETATM    3  C   UNL     1      -9.818  18.785  67.694  1.00  0.00    -0.324 A  
HETATM    4  C   UNL     1      -9.618  17.388  67.784  1.00  0.00    -0.264 A  
HETATM    5  C   UNL     1      -8.421  16.824  68.267  1.00  0.00    -0.222 A  
HETATM    6  C   UNL     1      -7.506  17.774  68.757  1.00  0.00    -0.263 A  
HETATM    7  C   UNL     1      -8.882  19.666  68.224  1.00  0.00    -0.361 A  
HETATM    8  C   UNL     1      -7.720  19.157  68.767  1.00  0.00    -0.355 A  
BRANCH   5   9
HETATM    9  N   UNL     1      -8.123  15.420  68.266  1.00  0.00    -0.134 NA 
BRANCH   9  10
HETATM   10  C   UNL     1      -6.950  14.918  67.479  1.00  0.00    -0.176 C  
BRANCH  10  11
HETATM   11  C   UNL     1      -6.269  13.605  67.945  1.00  0.00    -0.155 C  
BRANCH  11  12
HETATM   12  N   UNL     1      -5.739  12.713  66.914  1.00  0.00    -0.455 NA 
HETATM   13  H   UNL     1      -4.908  13.127  66.490  1.00  0.00     0.000 HD 
BRANCH  12  14
HETATM   14  C   UNL     1      -5.451  11.347  67.346  1.00  0.00    -0.059 C  
HETATM   15  C   UNL     1      -5.615  11.139  68.854  1.00  0.00    -0.039 C  
HETATM   16  C   UNL     1      -6.417  10.420  66.601  1.00  0.00    -0.080 C  
ENDBRANCH  12  14
ENDBRANCH  11  12
ENDBRANCH  10  11
ENDBRANCH   9  10
BRANCH   9  17
HETATM   17  C   UNL     1      -9.091  14.372  68.519  1.00  0.00    -0.193 A  
HETATM   18  C   UNL     1     -10.469   9.785  68.273  1.00  0.00    -0.216 A  
HETATM   19  C   UNL     1     -10.364  14.645  69.027  1.00  0.00    -0.237 A  
HETATM   20  C   UNL     1     -11.759  10.164  68.608  1.00  0.00     0.193 A  
HETATM   21  N   UNL     1      -9.475  10.705  68.165  1.00  0.00    -0.150 NA 
HETATM   22  C   UNL     1      -9.794  11.998  68.406  1.00  0.00    -0.204 A  
HETATM   23  C   UNL     1     -11.367  13.670  69.097  1.00  0.00    -0.335 A  
HETATM   24  C   UNL     1     -11.105  12.354  68.784  1.00  0.00    -0.262 A  
HETATM   25  C   UNL     1      -8.830  13.007  68.265  1.00  0.00    -0.172 A  
HETATM   26  N   UNL     1     -12.096  11.447  68.876  1.00  0.00    -0.469 NA 
BRANCH  18  27
HETATM   27  C   UNL     1     -10.092   8.406  68.031  1.00  0.00    -0.245 A  
HETATM   28  N   UNL     1      -9.735   6.449  67.094  1.00  0.00    -0.135 NA 
HETATM   29  C   UNL     1     -10.199   7.709  66.843  1.00  0.00    -0.294 A  
HETATM   30  C   UNL     1      -9.651   5.350  66.164  1.00  0.00    -0.153 C  
HETATM   31  N   UNL     1      -9.335   6.268  68.366  1.00  0.00    -0.114 NA 
HETATM   32  C   UNL     1      -9.554   7.459  68.933  1.00  0.00    -0.148 A  
ENDBRANCH  18  27
ENDBRANCH   9  17
ENDBRANCH   5   9
BRANCH   8  33
HETATM   33  O   UNL     1      -6.701  19.882  69.321  1.00  0.00    -0.333 OA 
HETATM   34  C   UNL     1      -5.713  19.161  70.042  1.00  0.00    -0.250 C  
ENDBRANCH   8  33
ENDBRANCH   2   3
TORSDOF 9
ENDMDL
MODEL      197
REMARK 921   NORMALIZED FREE ENERGY PREDICTED BY IDOCK:   -3.98 KCAL/MOL
REMARK 922        TOTAL FREE ENERGY PREDICTED BY IDOCK:   -7.25 KCAL/MOL
REMARK 923 INTER-LIGAND FREE ENERGY PREDICTED BY IDOCK:   -6.04 KCAL/MOL
REMARK 924 INTRA-LIGAND FREE ENERGY PREDICTED BY IDOCK:   -1.20 KCAL/MOL
REMARK 927      BINDING AFFINITY PREDICTED BY RF-SCORE:    0.00 PKD
ROOT
HETATM    1  C   UNL     1     -10.393  17.815  66.503  1.00  0.00    -0.345 C  
HETATM    2  O   UNL     1     -10.349  16.601  65.741  1.00  0.00    -0.389 OA 
ENDROOT
BRANCH   2   3
HETATM    3  C   UNL     1     -10.589  15.468  66.482  1.00  0.00    -0.307 A  
HETATM    4  C   UNL     1     -10.112  14.247  65.953  1.00  0.00    -0.344 A  
HETATM    5  C   UNL     1     -10.172  13.036  66.671  1.00  0.00    -0.257 A  
HETATM    6  C   UNL     1     -10.855  13.139  67.897  1.00  0.00    -0.260 A  
HETATM    7  C   UNL     1     -11.279  15.492  67.689  1.00  0.00    -0.291 A  
HETATM    8  C   UNL     1     -11.420  14.318  68.399  1.00  0.00    -0.301 A  
BRANCH   5   9
HETATM    9  N   UNL     1      -9.596  11.797  66.231  1.00  0.00    -0.220 NA 
BRANCH   9  10
HETATM   10  C   UNL     1     -10.228  11.057  65.091  1.00  0.00    -0.291 C  
BRANCH  10  11
HETATM   11  C   UNL     1     -10.025  11.615  63.659  1.00  0.00    -0.379 C  
BRANCH  11  12
HETATM   12  N   UNL     1      -9.024  10.968  62.813  1.00  0.00    -0.335 NA 
HETATM   13  H   UNL     1      -8.348  11.658  62.484  1.00  0.00     0.000 HD 
BRANCH  12  14
HETATM   14  C   UNL     1      -8.326   9.832  63.413  1.00  0.00    -0.167 C  
HETATM   15  C   UNL     1      -8.400   8.558  62.567  1.00  0.00    -0.182 C  
HETATM   16  C   UNL     1      -6.858  10.238  63.586  1.00  0.00    -0.075 C  
ENDBRANCH  12  14
ENDBRANCH  11  12
ENDBRANCH  10  11
ENDBRANCH   9  10
BRANCH   9  17
HETATM   17  C   UNL     1      -8.785  10.926  67.057  1.00  0.00    -0.141 A  
HETATM   18  C   UNL     1      -7.296   6.551  68.338  1.00  0.00    -0.087 A  
HETATM   19  C   UNL     1      -8.034  11.410  68.131  1.00  0.00    -0.133 A  
HETATM   20  C   UNL     1      -6.729   7.089  69.482  1.00  0.00    -0.049 A  
HETATM   21  N   UNL     1      -7.945   7.339  67.442  1.00  0.00    -0.111 NA 
HETATM   22  C   UNL     1      -8.004   8.664  67.706  1.00  0.00    -0.107 A  
HETATM   23  C   UNL     1      -7.402  10.559  69.047  1.00  0.00    -0.103 A  
HETATM   24  C   UNL     1      -7.385   9.194  68.857  1.00  0.00    -0.074 A  
HETATM   25  C   UNL     1      -8.700   9.530  66.851  1.00  0.00    -0.136 A  
HETATM   26  N   UNL     1      -6.756   8.414  69.756  1.00  0.00    -0.039 NA 
BRANCH  18  27
HETATM   27  C   UNL     1      -7.229   5.139  68.016  1.00  0.00    -0.067 A  
HETATM   28  N   UNL     1      -6.619   3.029  67.888  1.00  0.00    -0.036 NA 
HETATM   29  C   UNL     1      -6.287   4.228  68.454  1.00  0.00    -0.037 A  
HETATM   30  C   UNL     1      -5.929   1.773  68.042  1.00  0.00    -0.024 C  
HETATM   31  N   UNL     1      -7.712   3.091  67.106  1.00  0.00    -0.074 NA 
HETATM   32  C   UNL     1      -8.080   4.374  67.185  1.00  0.00    -0.101 A  
ENDBRANCH  18  27
ENDBRANCH   9  17
ENDBRANCH   5   9
BRANCH   8  33
HETATM   33  O   UNL     1     -12.061  14.169  69.598  1.00  0.00    -0.316 OA 
HETATM   34  C   UNL     1     -12.193  12.848  70.102  1.00  0.00    -0.266 C  
ENDBRANCH   8  33
ENDBRANCH   2   3
TORSDOF 9
ENDMDL
MODEL      198
REMARK 921   NORMALIZED FREE ENERGY PREDICTED BY IDOCK:   -3.96 KCAL/MOL
REMARK 922        TOTAL FREE ENERGY PREDICTED BY IDOCK:   -7.21 KCAL/MOL
REMARK 923 INTER-LIGAND FREE ENERGY PREDICTED BY IDOCK:   -6.56 KCAL/MOL
REMARK 924 INTRA-LIGAND FREE ENERGY PREDICTED BY IDOCK:   -0.66 KCAL/MOL
REMARK 927      BINDING AFFINITY PREDICTED BY RF-SCORE:    0.00 PKD
ROOT
HETATM    1  C   UNL     1      -9.972  19.966  65.926  1.00  0.00    -0.393 C  
HETATM    2  O   UNL     1     -10.594  18.732  65.544  1.00  0.00    -0.596 OA 
ENDROOT
BRANCH   2   3
HETATM    3  C   UNL     1      -9.894  17.612  65.928  1.00  0.00    -0.073 A  
HETATM    4  C   UNL     1     -10.626  16.407  66.034  1.00  0.00    -0.275 A  
HETATM    5  C   UNL     1     -10.008  15.166  66.287  1.00  0.00    -0.288 A  
HETATM    6  C   UNL     1      -8.628  15.263  66.542  1.00  0.00    -0.264 A  
HETATM    7  C   UNL     1      -8.535  17.640  66.221  1.00  0.00    -0.237 A  
HETATM    8  C   UNL     1      -7.898  16.458  66.537  1.00  0.00    -0.288 A  
BRANCH   5   9
HETATM    9  N   UNL     1     -10.687  13.901  66.283  1.00  0.00    -0.284 NA 
BRANCH   9  10
HETATM   10  C   UNL     1     -12.174  13.866  66.469  1.00  0.00    -0.442 C  
BRANCH  10  11
HETATM   11  C   UNL     1     -12.735  14.107  67.893  1.00  0.00     0.909 C  
BRANCH  11  12
HETATM   12  N   UNL     1     -12.490  15.411  68.508  1.00  0.00    -0.298 NA 
HETATM   13  H   UNL     1     -13.351  15.957  68.522  1.00  0.00     0.000 HD 
BRANCH  12  14
HETATM   14  C   UNL     1     -11.897  15.380  69.844  1.00  0.00    -0.350 C  
HETATM   15  C   UNL     1     -12.935  15.386  70.969  1.00  0.00    -0.556 C  
HETATM   16  C   UNL     1     -11.055  14.104  69.941  1.00  0.00    -0.083 C  
ENDBRANCH  12  14
ENDBRANCH  11  12
ENDBRANCH  10  11
ENDBRANCH   9  10
BRANCH   9  17
HETATM   17  C   UNL     1     -10.071  12.635  66.620  1.00  0.00    -0.241 A  
HETATM   18  C   UNL     1      -8.752   9.336  69.842  1.00  0.00    -0.180 A  
HETATM   19  C   UNL     1      -9.402  11.858  65.669  1.00  0.00    -0.125 A  
HETATM   20  C   UNL     1      -7.964   8.724  68.881  1.00  0.00    -0.105 A  
HETATM   21  N   UNL     1      -9.476  10.447  69.550  1.00  0.00    -0.182 NA 
HETATM   22  C   UNL     1      -9.405  10.923  68.286  1.00  0.00    -0.168 A  
HETATM   23  C   UNL     1      -8.644  10.734  66.019  1.00  0.00    -0.181 A  
HETATM   24  C   UNL     1      -8.627  10.260  67.313  1.00  0.00    -0.125 A  
HETATM   25  C   UNL     1     -10.087  12.094  67.926  1.00  0.00    -0.199 A  
HETATM   26  N   UNL     1      -7.894   9.168  67.604  1.00  0.00    -0.096 NA 
BRANCH  18  27
HETATM   27  C   UNL     1      -8.867   8.836  71.198  1.00  0.00    -0.275 A  
HETATM   28  N   UNL     1      -9.596   7.889  73.045  1.00  0.00    -0.252 NA 
HETATM   29  C   UNL     1      -9.929   8.141  71.743  1.00  0.00    -0.201 A  
HETATM   30  C   UNL     1     -10.389   7.193  74.027  1.00  0.00    -0.201 C  
HETATM   31  N   UNL     1      -8.392   8.376  73.394  1.00  0.00    -0.370 NA 
HETATM   32  C   UNL     1      -7.951   8.951  72.270  1.00  0.00     0.239 A  
ENDBRANCH  18  27
ENDBRANCH   9  17
ENDBRANCH   5   9
BRANCH   8  33
HETATM   33  O   UNL     1      -6.572  16.310  66.843  1.00  0.00    -0.221 OA 
HETATM   34  C   UNL     1      -6.228  15.265  67.740  1.00  0.00    -0.158 C  
ENDBRANCH   8  33
ENDBRANCH   2   3
TORSDOF 9
ENDMDL
MODEL      199
REMARK 921   NORMALIZED FREE ENERGY PREDICTED BY IDOCK:   -3.90 KCAL/MOL
REMARK 922        TOTAL FREE ENERGY PREDICTED BY IDOCK:   -7.13 KCAL/MOL
REMARK 923 INTER-LIGAND FREE ENERGY PREDICTED BY IDOCK:   -5.54 KCAL/MOL
REMARK 924 INTRA-LIGAND FREE ENERGY PREDICTED BY IDOCK:   -1.59 KCAL/MOL
REMARK 927      BINDING AFFINITY PREDICTED BY RF-SCORE:    0.00 PKD
ROOT
HETATM    1  C   UNL     1     -10.853   6.873  70.796  1.00  0.00    -0.245 C  
HETATM    2  O   UNL     1      -9.772   5.933  70.829  1.00  0.00    -0.167 OA 
ENDROOT
BRANCH   2   3
HETATM    3  C   UNL     1      -8.787   6.181  69.902  1.00  0.00    -0.140 A  
HETATM    4  C   UNL     1      -9.010   7.251  69.005  1.00  0.00    -0.134 A  
HETATM    5  C   UNL     1      -8.027   7.695  68.098  1.00  0.00    -0.123 A  
HETATM    6  C   UNL     1      -6.866   6.901  68.089  1.00  0.00    -0.074 A  
HETATM    7  C   UNL     1      -7.626   5.421  69.819  1.00  0.00    -0.070 A  
HETATM    8  C   UNL     1      -6.661   5.778  68.901  1.00  0.00    -0.054 A  
BRANCH   5   9
HETATM    9  N   UNL     1      -8.159   8.849  67.254  1.00  0.00    -0.104 NA 
BRANCH   9  10
HETATM   10  C   UNL     1      -7.894   8.718  65.785  1.00  0.00    -0.099 C  
BRANCH  10  11
HETATM   11  C   UNL     1      -8.607   7.577  65.016  1.00  0.00     0.089 C  
BRANCH  11  12
HETATM   12  N   UNL     1      -7.808   6.414  64.632  1.00  0.00    -0.107 NA 
HETATM   13  H   UNL     1      -6.920   6.421  65.134  1.00  0.00     0.000 HD 
BRANCH  12  14
HETATM   14  C   UNL     1      -8.461   5.116  64.792  1.00  0.00    -0.150 C  
HETATM   15  C   UNL     1      -7.515   4.015  65.280  1.00  0.00    -0.080 C  
HETATM   16  C   UNL     1      -9.592   5.296  65.810  1.00  0.00    -0.108 C  
ENDBRANCH  12  14
ENDBRANCH  11  12
ENDBRANCH  10  11
ENDBRANCH   9  10
BRANCH   9  17
HETATM   17  C   UNL     1      -8.029  10.219  67.706  1.00  0.00    -0.102 A  
HETATM   18  C   UNL     1      -8.798  14.918  67.128  1.00  0.00    -0.217 A  
HETATM   19  C   UNL     1      -7.270  10.562  68.829  1.00  0.00    -0.084 A  
HETATM   20  C   UNL     1      -7.888  15.182  68.139  1.00  0.00    -0.125 A  
HETATM   21  N   UNL     1      -9.077  13.642  66.755  1.00  0.00    -0.241 NA 
HETATM   22  C   UNL     1      -8.442  12.646  67.414  1.00  0.00    -0.186 A  
HETATM   23  C   UNL     1      -6.985  11.892  69.162  1.00  0.00    -0.079 A  
HETATM   24  C   UNL     1      -7.549  12.938  68.466  1.00  0.00    -0.120 A  
HETATM   25  C   UNL     1      -8.645  11.307  67.048  1.00  0.00    -0.148 A  
HETATM   26  N   UNL     1      -7.257  14.202  68.828  1.00  0.00    -0.115 NA 
BRANCH  18  27
HETATM   27  C   UNL     1      -9.511  15.962  66.420  1.00  0.00    -0.324 A  
HETATM   28  N   UNL     1     -10.320  17.904  65.778  1.00  0.00    -0.615 NA 
HETATM   29  C   UNL     1      -9.498  17.316  66.696  1.00  0.00    -0.265 A  
HETATM   30  C   UNL     1     -10.635  19.306  65.662  1.00  0.00    -0.258 C  
HETATM   31  N   UNL     1     -10.877  17.030  64.920  1.00  0.00    -0.751 NA 
HETATM   32  C   UNL     1     -10.384  15.851  65.312  1.00  0.00    -0.324 A  
ENDBRANCH  18  27
ENDBRANCH   9  17
ENDBRANCH   5   9
BRANCH   8  33
HETATM   33  O   UNL     1      -5.465   5.146  68.695  1.00  0.00    -0.009 OA 
HETATM   34  C   UNL     1      -5.508   3.752  68.430  1.00  0.00    -0.013 C  
ENDBRANCH   8  33
ENDBRANCH   2   3
TORSDOF 9
ENDMDL
MODEL      200
REMARK 921   NORMALIZED FREE ENERGY PREDICTED BY IDOCK:   -3.89 KCAL/MOL
REMARK 922        TOTAL FREE ENERGY PREDICTED BY IDOCK:   -7.10 KCAL/MOL
REMARK 923 INTER-LIGAND FREE ENERGY PREDICTED BY IDOCK:   -5.79 KCAL/MOL
REMARK 924 INTRA-LIGAND FREE ENERGY PREDICTED BY IDOCK:   -1.31 KCAL/MOL
REMARK 927      BINDING AFFINITY PREDICTED BY RF-SCORE:    0.00 PKD
ROOT
HETATM    1  C   UNL     1     -12.822  13.856  64.877  1.00  0.00    -0.180 C  
HETATM    2  O   UNL     1     -11.424  13.681  65.142  1.00  0.00    -0.306 OA 
ENDROOT
BRANCH   2   3
HETATM    3  C   UNL     1     -11.086  13.816  66.469  1.00  0.00    -0.306 A  
HETATM    4  C   UNL     1      -9.762  13.476  66.828  1.00  0.00    -0.271 A  
HETATM    5  C   UNL     1      -9.249  13.694  68.122  1.00  0.00    -0.204 A  
HETATM    6  C   UNL     1     -10.208  14.160  69.039  1.00  0.00    -0.130 A  
HETATM    7  C   UNL     1     -11.990  14.246  67.434  1.00  0.00    -0.426 A  
HETATM    8  C   UNL     1     -11.551  14.413  68.730  1.00  0.00    -0.315 A  
BRANCH   5   9
HETATM    9  N   UNL     1      -7.882  13.480  68.504  1.00  0.00    -0.138 NA 
BRANCH   9  10
HETATM   10  C   UNL     1      -6.824  14.414  67.999  1.00  0.00    -0.143 C  
BRANCH  10  11
HETATM   11  C   UNL     1      -6.571  15.723  68.790  1.00  0.00    -0.113 C  
BRANCH  11  12
HETATM   12  N   UNL     1      -7.600  16.760  68.732  1.00  0.00    -0.229 NA 
HETATM   13  H   UNL     1      -7.760  17.144  69.664  1.00  0.00     0.000 HD 
BRANCH  12  14
HETATM   14  C   UNL     1      -7.356  17.844  67.782  1.00  0.00    -0.208 C  
HETATM   15  C   UNL     1      -5.869  18.118  67.542  1.00  0.00    -0.153 C  
HETATM   16  C   UNL     1      -8.015  17.446  66.457  1.00  0.00    -0.317 C  
ENDBRANCH  12  14
ENDBRANCH  11  12
ENDBRANCH  10  11
ENDBRANCH   9  10
BRANCH   9  17
HETATM   17  C   UNL     1      -7.328  12.203  68.904  1.00  0.00    -0.054 A  
HETATM   18  C   UNL     1      -7.866   7.717  70.513  1.00  0.00    -0.095 A  
HETATM   19  C   UNL     1      -5.950  11.989  69.004  1.00  0.00    -0.068 A  
HETATM   20  C   UNL     1      -6.503   7.650  70.754  1.00  0.00    -0.038 A  
HETATM   21  N   UNL     1      -8.430   8.839  69.996  1.00  0.00    -0.126 NA 
HETATM   22  C   UNL     1      -7.610   9.878  69.720  1.00  0.00    -0.150 A  
HETATM   23  C   UNL     1      -5.412  10.826  69.568  1.00  0.00    -0.038 A  
HETATM   24  C   UNL     1      -6.220   9.772  69.937  1.00  0.00    -0.051 A  
HETATM   25  C   UNL     1      -8.130  11.086  69.231  1.00  0.00    -0.012 A  
HETATM   26  N   UNL     1      -5.659   8.668  70.465  1.00  0.00    -0.027 NA 
BRANCH  18  27
HETATM   27  C   UNL     1      -8.766   6.612  70.777  1.00  0.00    -0.143 A  
HETATM   28  N   UNL     1      -9.837   4.942  71.728  1.00  0.00    -0.173 NA 
HETATM   29  C   UNL     1      -8.867   5.880  71.945  1.00  0.00    -0.138 A  
HETATM   30  C   UNL     1     -10.299   3.938  72.653  1.00  0.00    -0.155 C  
HETATM   31  N   UNL     1     -10.377   5.004  70.497  1.00  0.00    -0.245 NA 
HETATM   32  C   UNL     1      -9.724   6.019  69.922  1.00  0.00    -0.163 A  
ENDBRANCH  18  27
ENDBRANCH   9  17
ENDBRANCH   5   9
BRANCH   8  33
HETATM   33  O   UNL     1     -12.304  14.833  69.793  1.00  0.00    -0.302 OA 
HETATM   34  C   UNL     1     -12.532  13.896  70.835  1.00  0.00    -0.375 C  
ENDBRANCH   8  33
ENDBRANCH   2   3
TORSDOF 9
ENDMDL
MODEL      201
REMARK 921   NORMALIZED FREE ENERGY PREDICTED BY IDOCK:   -3.86 KCAL/MOL
REMARK 922        TOTAL FREE ENERGY PREDICTED BY IDOCK:   -7.07 KCAL/MOL
REMARK 923 INTER-LIGAND FREE ENERGY PREDICTED BY IDOCK:   -5.72 KCAL/MOL
REMARK 924 INTRA-LIGAND FREE ENERGY PREDICTED BY IDOCK:   -1.34 KCAL/MOL
REMARK 927      BINDING AFFINITY PREDICTED BY RF-SCORE:    0.00 PKD
ROOT
HETATM    1  C   UNL     1     -11.789  13.947  69.995  1.00  0.00    -0.315 C  
HETATM    2  O   UNL     1     -11.776  14.964  68.986  1.00  0.00    -0.293 OA 
ENDROOT
BRANCH   2   3
HETATM    3  C   UNL     1     -10.601  15.028  68.273  1.00  0.00    -0.247 A  
HETATM    4  C   UNL     1      -9.770  13.885  68.307  1.00  0.00    -0.223 A  
HETATM    5  C   UNL     1      -8.610  13.769  67.517  1.00  0.00    -0.193 A  
HETATM    6  C   UNL     1      -8.298  14.935  66.795  1.00  0.00    -0.158 A  
HETATM    7  C   UNL     1     -10.217  16.157  67.558  1.00  0.00    -0.267 A  
HETATM    8  C   UNL     1      -9.054  16.114  66.819  1.00  0.00    -0.230 A  
BRANCH   5   9
HETATM    9  N   UNL     1      -7.801  12.586  67.425  1.00  0.00    -0.168 NA 
BRANCH   9  10
HETATM   10  C   UNL     1      -8.046  11.615  66.309  1.00  0.00     0.047 C  
BRANCH  10  11
HETATM   11  C   UNL     1      -9.374  10.816  66.318  1.00  0.00    -0.180 C  
BRANCH  11  12
HETATM   12  N   UNL     1     -10.429  11.242  65.400  1.00  0.00    -0.266 NA 
HETATM   13  H   UNL     1     -11.161  11.733  65.914  1.00  0.00     0.000 HD 
BRANCH  12  14
HETATM   14  C   UNL     1      -9.991  12.050  64.263  1.00  0.00    -0.240 C  
HETATM   15  C   UNL     1      -9.908  11.261  62.953  1.00  0.00    -0.317 C  
HETATM   16  C   UNL     1     -10.998  13.194  64.101  1.00  0.00    -0.418 C  
ENDBRANCH  12  14
ENDBRANCH  11  12
ENDBRANCH  10  11
ENDBRANCH   9  10
BRANCH   9  17
HETATM   17  C   UNL     1      -7.120  11.965  68.541  1.00  0.00    -0.089 A  
HETATM   18  C   UNL     1      -6.667   8.410  71.729  1.00  0.00    -0.076 A  
HETATM   19  C   UNL     1      -6.077  12.601  69.222  1.00  0.00    -0.100 A  
HETATM   20  C   UNL     1      -5.771   9.182  72.450  1.00  0.00    -0.050 A  
HETATM   21  N   UNL     1      -7.232   8.878  70.585  1.00  0.00    -0.065 NA 
HETATM   22  C   UNL     1      -6.878  10.118  70.178  1.00  0.00    -0.146 A  
HETATM   23  C   UNL     1      -5.542  12.095  70.413  1.00  0.00    -0.162 A  
HETATM   24  C   UNL     1      -5.933  10.870  70.907  1.00  0.00     0.038 A  
HETATM   25  C   UNL     1      -7.458  10.684  69.033  1.00  0.00    -0.117 A  
HETATM   26  N   UNL     1      -5.384  10.416  72.050  1.00  0.00    -0.296 NA 
BRANCH  18  27
HETATM   27  C   UNL     1      -7.049   7.069  72.129  1.00  0.00    -0.072 A  
HETATM   28  N   UNL     1      -8.066   5.127  72.300  1.00  0.00    -0.108 NA 
HETATM   29  C   UNL     1      -8.079   6.307  71.612  1.00  0.00    -0.106 A  
HETATM   30  C   UNL     1      -8.957   4.007  72.125  1.00  0.00    -0.114 C  
HETATM   31  N   UNL     1      -7.101   5.062  73.236  1.00  0.00    -0.079 NA 
HETATM   32  C   UNL     1      -6.485   6.244  73.129  1.00  0.00    -0.068 A  
ENDBRANCH  18  27
ENDBRANCH   9  17
ENDBRANCH   5   9
BRANCH   8  33
HETATM   33  O   UNL     1      -8.539  17.129  66.059  1.00  0.00    -0.479 OA 
HETATM   34  C   UNL     1      -7.125  17.251  66.014  1.00  0.00    -0.165 C  
ENDBRANCH   8  33
ENDBRANCH   2   3
TORSDOF 9
ENDMDL
MODEL      202
REMARK 921   NORMALIZED FREE ENERGY PREDICTED BY IDOCK:   -3.77 KCAL/MOL
REMARK 922        TOTAL FREE ENERGY PREDICTED BY IDOCK:   -6.92 KCAL/MOL
REMARK 923 INTER-LIGAND FREE ENERGY PREDICTED BY IDOCK:   -5.78 KCAL/MOL
REMARK 924 INTRA-LIGAND FREE ENERGY PREDICTED BY IDOCK:   -1.14 KCAL/MOL
REMARK 927      BINDING AFFINITY PREDICTED BY RF-SCORE:    0.00 PKD
ROOT
HETATM    1  C   UNL     1     -11.493   3.568  73.844  1.00  0.00     0.153 C  
HETATM    2  O   UNL     1     -11.943   4.893  73.536  1.00  0.00    -0.004 OA 
ENDROOT
BRANCH   2   3
HETATM    3  C   UNL     1     -10.982   5.688  72.956  1.00  0.00    -0.284 A  
HETATM    4  C   UNL     1     -10.674   5.430  71.600  1.00  0.00    -0.266 A  
HETATM    5  C   UNL     1      -9.810   6.253  70.851  1.00  0.00    -0.181 A  
HETATM    6  C   UNL     1      -9.199   7.269  71.608  1.00  0.00    -0.155 A  
HETATM    7  C   UNL     1     -10.320   6.694  73.650  1.00  0.00    -0.343 A  
HETATM    8  C   UNL     1      -9.415   7.486  72.974  1.00  0.00    -0.203 A  
BRANCH   5   9
HETATM    9  N   UNL     1      -9.559   6.105  69.445  1.00  0.00    -0.137 NA 
BRANCH   9  10
HETATM   10  C   UNL     1      -9.308   4.738  68.883  1.00  0.00    -0.135 C  
BRANCH  10  11
HETATM   11  C   UNL     1      -9.879   4.413  67.479  1.00  0.00    -0.128 C  
BRANCH  11  12
HETATM   12  N   UNL     1      -9.051   3.613  66.578  1.00  0.00    -0.148 NA 
HETATM   13  H   UNL     1      -9.555   2.773  66.295  1.00  0.00     0.000 HD 
BRANCH  12  14
HETATM   14  C   UNL     1      -8.544   4.311  65.397  1.00  0.00    -0.120 C  
HETATM   15  C   UNL     1      -7.105   3.930  65.038  1.00  0.00    -0.066 C  
HETATM   16  C   UNL     1      -9.467   3.958  64.227  1.00  0.00    -0.161 C  
ENDBRANCH  12  14
ENDBRANCH  11  12
ENDBRANCH  10  11
ENDBRANCH   9  10
BRANCH   9  17
HETATM   17  C   UNL     1      -9.028   7.146  68.589  1.00  0.00    -0.131 A  
HETATM   18  C   UNL     1      -9.525  11.282  66.213  1.00  0.00    -0.204 A  
HETATM   19  C   UNL     1      -7.768   7.046  67.993  1.00  0.00    -0.113 A  
HETATM   20  C   UNL     1      -8.349  11.019  65.528  1.00  0.00    -0.024 A  
HETATM   21  N   UNL     1     -10.002  10.413  67.141  1.00  0.00    -0.187 NA 
HETATM   22  C   UNL     1      -9.282   9.293  67.375  1.00  0.00    -0.126 A  
HETATM   23  C   UNL     1      -7.326   7.951  67.020  1.00  0.00    -0.091 A  
HETATM   24  C   UNL     1      -8.067   9.066  66.694  1.00  0.00    -0.107 A  
HETATM   25  C   UNL     1      -9.740   8.328  68.284  1.00  0.00    -0.173 A  
HETATM   26  N   UNL     1      -7.599   9.917  65.761  1.00  0.00    -0.108 NA 
BRANCH  18  27
HETATM   27  C   UNL     1     -10.306  12.484  66.000  1.00  0.00    -0.277 A  
HETATM   28  N   UNL     1     -11.394  14.160  65.079  1.00  0.00    -0.334 NA 
HETATM   29  C   UNL     1     -10.681  13.031  64.788  1.00  0.00    -0.352 A  
HETATM   30  C   UNL     1     -11.992  15.078  64.142  1.00  0.00    -0.201 C  
HETATM   31  N   UNL     1     -11.509  14.395  66.399  1.00  0.00    -0.351 NA 
HETATM   32  C   UNL     1     -10.847  13.375  66.956  1.00  0.00    -0.273 A  
ENDBRANCH  18  27
ENDBRANCH   9  17
ENDBRANCH   5   9
BRANCH   8  33
HETATM   33  O   UNL     1      -8.687   8.516  73.504  1.00  0.00    -0.314 OA 
HETATM   34  C   UNL     1      -7.696   8.182  74.464  1.00  0.00    -0.235 C  
ENDBRANCH   8  33
ENDBRANCH   2   3
TORSDOF 9
ENDMDL
MODEL      203
REMARK 921   NORMALIZED FREE ENERGY PREDICTED BY IDOCK:   -3.76 KCAL/MOL
REMARK 922        TOTAL FREE ENERGY PREDICTED BY IDOCK:   -6.91 KCAL/MOL
REMARK 923 INTER-LIGAND FREE ENERGY PREDICTED BY IDOCK:   -5.69 KCAL/MOL
REMARK 924 INTRA-LIGAND FREE ENERGY PREDICTED BY IDOCK:   -1.23 KCAL/MOL
REMARK 927      BINDING AFFINITY PREDICTED BY RF-SCORE:    0.00 PKD
ROOT
HETATM    1  C   UNL     1     -10.844   6.006  70.747  1.00  0.00    -0.292 C  
HETATM    2  O   UNL     1     -10.647   7.387  70.419  1.00  0.00    -0.218 OA 
ENDROOT
BRANCH   2   3
HETATM    3  C   UNL     1      -9.400   7.866  70.747  1.00  0.00    -0.157 A  
HETATM    4  C   UNL     1      -8.746   8.660  69.777  1.00  0.00    -0.132 A  
HETATM    5  C   UNL     1      -7.529   9.321  70.036  1.00  0.00    -0.094 A  
HETATM    6  C   UNL     1      -6.976   9.016  71.293  1.00  0.00    -0.089 A  
HETATM    7  C   UNL     1      -8.782   7.584  71.960  1.00  0.00    -0.132 A  
HETATM    8  C   UNL     1      -7.558   8.157  72.233  1.00  0.00    -0.117 A  
BRANCH   5   9
HETATM    9  N   UNL     1      -6.888  10.233  69.131  1.00  0.00    -0.057 NA 
BRANCH   9  10
HETATM   10  C   UNL     1      -5.728   9.758  68.309  1.00  0.00    -0.043 C  
BRANCH  10  11
HETATM   11  C   UNL     1      -6.031   9.028  66.975  1.00  0.00    -0.057 C  
BRANCH  11  12
HETATM   12  N   UNL     1      -6.225   7.579  67.023  1.00  0.00    -0.050 NA 
HETATM   13  H   UNL     1      -6.724   7.323  67.874  1.00  0.00     0.000 HD 
BRANCH  12  14
HETATM   14  C   UNL     1      -6.886   6.990  65.860  1.00  0.00    -0.057 C  
HETATM   15  C   UNL     1      -8.414   7.043  65.938  1.00  0.00    -0.151 C  
HETATM   16  C   UNL     1      -6.416   7.767  64.625  1.00  0.00    -0.044 C  
ENDBRANCH  12  14
ENDBRANCH  11  12
ENDBRANCH  10  11
ENDBRANCH   9  10
BRANCH   9  17
HETATM   17  C   UNL     1      -6.896  11.674  69.271  1.00  0.00    -0.104 A  
HETATM   18  C   UNL     1      -8.242  16.027  67.774  1.00  0.00    -0.149 A  
HETATM   19  C   UNL     1      -6.121  12.331  70.232  1.00  0.00    -0.075 A  
HETATM   20  C   UNL     1      -7.315  16.599  68.631  1.00  0.00    -0.203 A  
HETATM   21  N   UNL     1      -8.390  14.679  67.703  1.00  0.00    -0.164 NA 
HETATM   22  C   UNL     1      -7.607  13.923  68.505  1.00  0.00    -0.134 A  
HETATM   23  C   UNL     1      -5.976  13.724  70.252  1.00  0.00    -0.152 A  
HETATM   24  C   UNL     1      -6.698  14.529  69.398  1.00  0.00    -0.142 A  
HETATM   25  C   UNL     1      -7.671  12.523  68.448  1.00  0.00    -0.136 A  
HETATM   26  N   UNL     1      -6.536  15.864  69.459  1.00  0.00    -0.183 NA 
BRANCH  18  27
HETATM   27  C   UNL     1      -9.111  16.812  66.920  1.00  0.00    -0.248 A  
HETATM   28  N   UNL     1     -10.233  18.463  65.996  1.00  0.00    -0.557 NA 
HETATM   29  C   UNL     1      -9.340  18.173  66.989  1.00  0.00    -0.270 A  
HETATM   30  C   UNL     1     -10.785  19.755  65.671  1.00  0.00    -0.314 C  
HETATM   31  N   UNL     1     -10.610  17.386  65.282  1.00  0.00    -0.640 NA 
HETATM   32  C   UNL     1      -9.928  16.385  65.847  1.00  0.00    -0.332 A  
ENDBRANCH  18  27
ENDBRANCH   9  17
ENDBRANCH   5   9
BRANCH   8  33
HETATM   33  O   UNL     1      -6.822   7.990  73.374  1.00  0.00    -0.090 OA 
HETATM   34  C   UNL     1      -5.647   8.775  73.508  1.00  0.00    -0.104 C  
ENDBRANCH   8  33
ENDBRANCH   2   3
TORSDOF 9
ENDMDL
MODEL      204
REMARK 921   NORMALIZED FREE ENERGY PREDICTED BY IDOCK:   -3.75 KCAL/MOL
REMARK 922        TOTAL FREE ENERGY PREDICTED BY IDOCK:   -6.90 KCAL/MOL
REMARK 923 INTER-LIGAND FREE ENERGY PREDICTED BY IDOCK:   -5.51 KCAL/MOL
REMARK 924 INTRA-LIGAND FREE ENERGY PREDICTED BY IDOCK:   -1.39 KCAL/MOL
REMARK 927      BINDING AFFINITY PREDICTED BY RF-SCORE:    0.00 PKD
ROOT
HETATM    1  C   UNL     1     -11.094   6.606  70.466  1.00  0.00    -0.307 C  
HETATM    2  O   UNL     1     -11.705   6.582  69.170  1.00  0.00    -0.193 OA 
ENDROOT
BRANCH   2   3
HETATM    3  C   UNL     1     -10.829   6.317  68.143  1.00  0.00    -0.320 A  
HETATM    4  C   UNL     1      -9.937   7.353  67.782  1.00  0.00    -0.208 A  
HETATM    5  C   UNL     1      -8.904   7.168  66.842  1.00  0.00    -0.128 A  
HETATM    6  C   UNL     1      -8.925   5.907  66.219  1.00  0.00    -0.153 A  
HETATM    7  C   UNL     1     -10.812   5.103  67.466  1.00  0.00     0.224 A  
HETATM    8  C   UNL     1      -9.858   4.898  66.491  1.00  0.00    -0.207 A  
BRANCH   5   9
HETATM    9  N   UNL     1      -7.900   8.146  66.531  1.00  0.00    -0.092 NA 
BRANCH   9  10
HETATM   10  C   UNL     1      -6.706   7.741  65.721  1.00  0.00    -0.046 C  
BRANCH  10  11
HETATM   11  C   UNL     1      -6.810   7.829  64.176  1.00  0.00    -0.061 C  
BRANCH  11  12
HETATM   12  N   UNL     1      -8.039   8.384  63.609  1.00  0.00    -0.215 NA 
HETATM   13  H   UNL     1      -8.834   8.150  64.204  1.00  0.00     0.000 HD 
BRANCH  12  14
HETATM   14  C   UNL     1      -8.021   9.822  63.344  1.00  0.00    -0.147 C  
HETATM   15  C   UNL     1      -6.924  10.245  62.364  1.00  0.00    -0.145 C  
HETATM   16  C   UNL     1      -9.389  10.195  62.762  1.00  0.00    -0.323 C  
ENDBRANCH  12  14
ENDBRANCH  11  12
ENDBRANCH  10  11
ENDBRANCH   9  10
BRANCH   9  17
HETATM   17  C   UNL     1      -7.645   9.340  67.310  1.00  0.00    -0.091 A  
HETATM   18  C   UNL     1      -7.985  14.080  67.956  1.00  0.00    -0.152 A  
HETATM   19  C   UNL     1      -6.851   9.319  68.461  1.00  0.00    -0.062 A  
HETATM   20  C   UNL     1      -7.049  13.999  68.975  1.00  0.00    -0.106 A  
HETATM   21  N   UNL     1      -8.382  12.970  67.282  1.00  0.00    -0.190 NA 
HETATM   22  C   UNL     1      -7.836  11.788  67.650  1.00  0.00    -0.138 A  
HETATM   23  C   UNL     1      -6.444  10.492  69.110  1.00  0.00    -0.054 A  
HETATM   24  C   UNL     1      -6.915  11.725  68.717  1.00  0.00    -0.103 A  
HETATM   25  C   UNL     1      -8.162  10.609  66.965  1.00  0.00    -0.124 A  
HETATM   26  N   UNL     1      -6.507  12.826  69.376  1.00  0.00    -0.112 NA 
BRANCH  18  27
HETATM   27  C   UNL     1      -8.604  15.328  67.554  1.00  0.00    -0.190 A  
HETATM   28  N   UNL     1      -9.606  17.285  67.561  1.00  0.00    -0.255 NA 
HETATM   29  C   UNL     1      -9.124  16.304  68.381  1.00  0.00    -0.203 A  
HETATM   30  C   UNL     1     -10.251  18.513  67.958  1.00  0.00    -0.383 C  
HETATM   31  N   UNL     1      -9.443  17.019  66.253  1.00  0.00    -0.345 NA 
HETATM   32  C   UNL     1      -8.834  15.828  66.252  1.00  0.00    -0.343 A  
ENDBRANCH  18  27
ENDBRANCH   9  17
ENDBRANCH   5   9
BRANCH   8  33
HETATM   33  O   UNL     1      -9.700   3.766  65.738  1.00  0.00    -0.179 OA 
HETATM   34  C   UNL     1     -10.409   3.701  64.510  1.00  0.00    -0.157 C  
ENDBRANCH   8  33
ENDBRANCH   2   3
TORSDOF 9
ENDMDL
MODEL      205
REMARK 921   NORMALIZED FREE ENERGY PREDICTED BY IDOCK:   -3.75 KCAL/MOL
REMARK 922        TOTAL FREE ENERGY PREDICTED BY IDOCK:   -6.90 KCAL/MOL
REMARK 923 INTER-LIGAND FREE ENERGY PREDICTED BY IDOCK:   -5.76 KCAL/MOL
REMARK 924 INTRA-LIGAND FREE ENERGY PREDICTED BY IDOCK:   -1.13 KCAL/MOL
REMARK 927      BINDING AFFINITY PREDICTED BY RF-SCORE:    0.00 PKD
ROOT
HETATM    1  C   UNL     1      -5.380  13.917  71.562  1.00  0.00    -0.210 C  
HETATM    2  O   UNL     1      -5.546  15.230  71.012  1.00  0.00    -0.106 OA 
ENDROOT
BRANCH   2   3
HETATM    3  C   UNL     1      -6.107  15.243  69.757  1.00  0.00    -0.144 A  
HETATM    4  C   UNL     1      -7.206  14.381  69.540  1.00  0.00    -0.051 A  
HETATM    5  C   UNL     1      -7.954  14.394  68.345  1.00  0.00    -0.141 A  
HETATM    6  C   UNL     1      -7.429  15.249  67.359  1.00  0.00    -0.239 A  
HETATM    7  C   UNL     1      -5.624  16.043  68.727  1.00  0.00    -0.108 A  
HETATM    8  C   UNL     1      -6.285  16.042  67.517  1.00  0.00    -0.165 A  
BRANCH   5   9
HETATM    9  N   UNL     1      -9.147  13.628  68.122  1.00  0.00    -0.191 NA 
BRANCH   9  10
HETATM   10  C   UNL     1     -10.398  13.984  68.867  1.00  0.00    -0.176 C  
BRANCH  10  11
HETATM   11  C   UNL     1     -11.560  14.632  68.070  1.00  0.00    -0.340 C  
BRANCH  11  12
HETATM   12  N   UNL     1     -11.604  14.401  66.627  1.00  0.00    -0.371 NA 
HETATM   13  H   UNL     1     -12.445  13.877  66.384  1.00  0.00     0.000 HD 
BRANCH  12  14
HETATM   14  C   UNL     1     -11.502  15.596  65.790  1.00  0.00     0.146 C  
HETATM   15  C   UNL     1     -10.126  16.265  65.854  1.00  0.00    -0.381 C  
HETATM   16  C   UNL     1     -11.789  15.169  64.347  1.00  0.00    -0.314 C  
ENDBRANCH  12  14
ENDBRANCH  11  12
ENDBRANCH  10  11
ENDBRANCH   9  10
BRANCH   9  17
HETATM   17  C   UNL     1      -9.171  12.259  67.651  1.00  0.00    -0.183 A  
HETATM   18  C   UNL     1      -8.724   7.547  68.426  1.00  0.00    -0.123 A  
HETATM   19  C   UNL     1      -9.316  11.942  66.297  1.00  0.00    -0.234 A  
HETATM   20  C   UNL     1      -8.694   7.333  67.057  1.00  0.00    -0.123 A  
HETATM   21  N   UNL     1      -8.850   8.800  68.936  1.00  0.00    -0.137 NA 
HETATM   22  C   UNL     1      -8.956   9.822  68.057  1.00  0.00    -0.118 A  
HETATM   23  C   UNL     1      -9.151  10.639  65.811  1.00  0.00    -0.208 A  
HETATM   24  C   UNL     1      -8.963   9.577  66.668  1.00  0.00    -0.146 A  
HETATM   25  C   UNL     1      -9.040  11.146  68.513  1.00  0.00    -0.175 A  
HETATM   26  N   UNL     1      -8.820   8.338  66.159  1.00  0.00    -0.158 NA 
BRANCH  18  27
HETATM   27  C   UNL     1      -8.636   6.469  69.392  1.00  0.00    -0.134 A  
HETATM   28  N   UNL     1      -9.124   4.856  70.805  1.00  0.00    -0.132 NA 
HETATM   29  C   UNL     1      -9.684   5.759  69.946  1.00  0.00    -0.164 A  
HETATM   30  C   UNL     1      -9.813   3.892  71.626  1.00  0.00    -0.177 C  
HETATM   31  N   UNL     1      -7.781   4.927  70.857  1.00  0.00    -0.076 NA 
HETATM   32  C   UNL     1      -7.488   5.908  69.998  1.00  0.00    -0.079 A  
ENDBRANCH  18  27
ENDBRANCH   9  17
ENDBRANCH   5   9
BRANCH   8  33
HETATM   33  O   UNL     1      -5.948  16.771  66.409  1.00  0.00    -0.306 OA 
HETATM   34  C   UNL     1      -6.807  17.844  66.055  1.00  0.00    -0.301 C  
ENDBRANCH   8  33
ENDBRANCH   2   3
TORSDOF 9
ENDMDL
MODEL      206
REMARK 921   NORMALIZED FREE ENERGY PREDICTED BY IDOCK:   -3.74 KCAL/MOL
REMARK 922        TOTAL FREE ENERGY PREDICTED BY IDOCK:   -6.88 KCAL/MOL
REMARK 923 INTER-LIGAND FREE ENERGY PREDICTED BY IDOCK:   -5.49 KCAL/MOL
REMARK 924 INTRA-LIGAND FREE ENERGY PREDICTED BY IDOCK:   -1.39 KCAL/MOL
REMARK 927      BINDING AFFINITY PREDICTED BY RF-SCORE:    0.00 PKD
ROOT
HETATM    1  C   UNL     1     -12.102  14.004  65.995  1.00  0.00    -0.439 C  
HETATM    2  O   UNL     1     -11.490  12.822  66.526  1.00  0.00    -0.317 OA 
ENDROOT
BRANCH   2   3
HETATM    3  C   UNL     1     -10.270  13.044  67.121  1.00  0.00    -0.243 A  
HETATM    4  C   UNL     1      -9.706  11.967  67.842  1.00  0.00    -0.192 A  
HETATM    5  C   UNL     1      -8.406  12.017  68.384  1.00  0.00    -0.151 A  
HETATM    6  C   UNL     1      -7.783  13.271  68.245  1.00  0.00    -0.141 A  
HETATM    7  C   UNL     1      -9.609  14.265  67.046  1.00  0.00    -0.260 A  
HETATM    8  C   UNL     1      -8.360  14.383  67.618  1.00  0.00    -0.179 A  
BRANCH   5   9
HETATM    9  N   UNL     1      -7.744  10.912  69.018  1.00  0.00    -0.130 NA 
BRANCH   9  10
HETATM   10  C   UNL     1      -6.251  10.810  68.944  1.00  0.00    -0.041 C  
BRANCH  10  11
HETATM   11  C   UNL     1      -5.439  11.062  70.240  1.00  0.00    -0.091 C  
BRANCH  11  12
HETATM   12  N   UNL     1      -5.956  10.497  71.486  1.00  0.00    -0.299 NA 
HETATM   13  H   UNL     1      -6.935  10.235  71.369  1.00  0.00     0.000 HD 
BRANCH  12  14
HETATM   14  C   UNL     1      -5.201   9.372  72.034  1.00  0.00    -0.075 C  
HETATM   15  C   UNL     1      -5.527   9.077  73.500  1.00  0.00    -0.102 C  
HETATM   16  C   UNL     1      -5.536   8.141  71.185  1.00  0.00    -0.033 C  
ENDBRANCH  12  14
ENDBRANCH  11  12
ENDBRANCH  10  11
ENDBRANCH   9  10
BRANCH   9  17
HETATM   17  C   UNL     1      -8.360   9.630  69.291  1.00  0.00    -0.137 A  
HETATM   18  C   UNL     1      -9.596   5.197  67.939  1.00  0.00    -0.135 A  
HETATM   19  C   UNL     1      -9.068   9.382  70.471  1.00  0.00    -0.308 A  
HETATM   20  C   UNL     1     -10.422   5.099  69.047  1.00  0.00    -0.079 A  
HETATM   21  N   UNL     1      -8.872   6.323  67.703  1.00  0.00    -0.112 NA 
HETATM   22  C   UNL     1      -8.983   7.333  68.596  1.00  0.00    -0.128 A  
HETATM   23  C   UNL     1      -9.822   8.218  70.660  1.00  0.00    -0.203 A  
HETATM   24  C   UNL     1      -9.800   7.195  69.737  1.00  0.00    -0.173 A  
HETATM   25  C   UNL     1      -8.303   8.542  68.390  1.00  0.00    -0.124 A  
HETATM   26  N   UNL     1     -10.532   6.088  69.965  1.00  0.00    -0.226 NA 
BRANCH  18  27
HETATM   27  C   UNL     1      -9.439   4.123  66.978  1.00  0.00    -0.215 A  
HETATM   28  N   UNL     1      -9.438   2.923  65.135  1.00  0.00    -0.124 NA 
HETATM   29  C   UNL     1      -9.737   4.161  65.630  1.00  0.00    -0.204 A  
HETATM   30  C   UNL     1      -9.585   2.470  63.774  1.00  0.00    -0.119 C  
HETATM   31  N   UNL     1      -8.968   2.073  66.066  1.00  0.00    -0.122 NA 
HETATM   32  C   UNL     1      -8.971   2.805  67.185  1.00  0.00    -0.159 A  
ENDBRANCH  18  27
ENDBRANCH   9  17
ENDBRANCH   5   9
BRANCH   8  33
HETATM   33  O   UNL     1      -7.576  15.504  67.629  1.00  0.00    -0.133 OA 
HETATM   34  C   UNL     1      -6.486  15.523  68.538  1.00  0.00    -0.103 C  
ENDBRANCH   8  33
ENDBRANCH   2   3
TORSDOF 9
ENDMDL
MODEL      207
REMARK 921   NORMALIZED FREE ENERGY PREDICTED BY IDOCK:   -3.69 KCAL/MOL
REMARK 922        TOTAL FREE ENERGY PREDICTED BY IDOCK:   -6.81 KCAL/MOL
REMARK 923 INTER-LIGAND FREE ENERGY PREDICTED BY IDOCK:   -6.61 KCAL/MOL
REMARK 924 INTRA-LIGAND FREE ENERGY PREDICTED BY IDOCK:   -0.20 KCAL/MOL
REMARK 927      BINDING AFFINITY PREDICTED BY RF-SCORE:    0.00 PKD
ROOT
HETATM    1  C   UNL     1     -10.482  17.793  66.346  1.00  0.00    -0.297 C  
HETATM    2  O   UNL     1     -10.533  16.369  66.500  1.00  0.00    -0.302 OA 
ENDROOT
BRANCH   2   3
HETATM    3  C   UNL     1      -9.360  15.814  66.956  1.00  0.00    -0.220 A  
HETATM    4  C   UNL     1      -9.277  14.403  66.952  1.00  0.00    -0.269 A  
HETATM    5  C   UNL     1      -8.089  13.714  67.265  1.00  0.00    -0.139 A  
HETATM    6  C   UNL     1      -7.045  14.553  67.696  1.00  0.00    -0.202 A  
HETATM    7  C   UNL     1      -8.297  16.582  67.419  1.00  0.00    -0.188 A  
HETATM    8  C   UNL     1      -7.134  15.947  67.800  1.00  0.00    -0.148 A  
BRANCH   5   9
HETATM    9  N   UNL     1      -7.919  12.292  67.159  1.00  0.00    -0.173 NA 
BRANCH   9  10
HETATM   10  C   UNL     1      -8.482  11.572  65.972  1.00  0.00    -0.005 C  
BRANCH  10  11
HETATM   11  C   UNL     1      -9.970  11.141  66.021  1.00  0.00    -0.236 C  
BRANCH  11  12
HETATM   12  N   UNL     1     -10.964  12.067  65.479  1.00  0.00    -0.290 NA 
HETATM   13  H   UNL     1     -10.915  12.958  65.975  1.00  0.00     0.000 HD 
BRANCH  12  14
HETATM   14  C   UNL     1     -10.898  12.295  64.036  1.00  0.00    -0.389 C  
HETATM   15  C   UNL     1     -10.222  11.154  63.272  1.00  0.00    -0.403 C  
HETATM   16  C   UNL     1     -12.336  12.457  63.534  1.00  0.00    -0.648 C  
ENDBRANCH  12  14
ENDBRANCH  11  12
ENDBRANCH  10  11
ENDBRANCH   9  10
BRANCH   9  17
HETATM   17  C   UNL     1      -7.712  11.402  68.283  1.00  0.00    -0.124 A  
HETATM   18  C   UNL     1      -9.350   8.201  71.457  1.00  0.00    -0.160 A  
HETATM   19  C   UNL     1      -6.502  11.358  68.982  1.00  0.00    -0.069 A  
HETATM   20  C   UNL     1      -8.187   8.351  72.195  1.00  0.00    -0.147 A  
HETATM   21  N   UNL     1      -9.544   8.900  70.308  1.00  0.00    -0.176 NA 
HETATM   22  C   UNL     1      -8.557   9.735  69.912  1.00  0.00    -0.218 A  
HETATM   23  C   UNL     1      -6.354  10.644  70.178  1.00  0.00    -0.139 A  
HETATM   24  C   UNL     1      -7.365   9.841  70.659  1.00  0.00    -0.050 A  
HETATM   25  C   UNL     1      -8.710  10.524  68.763  1.00  0.00    -0.154 A  
HETATM   26  N   UNL     1      -7.176   9.164  71.808  1.00  0.00    -0.326 NA 
BRANCH  18  27
HETATM   27  C   UNL     1     -10.415   7.297  71.844  1.00  0.00    -0.224 A  
HETATM   28  N   UNL     1     -11.565   5.650  72.740  1.00  0.00    -0.280 NA 
HETATM   29  C   UNL     1     -10.315   6.198  72.675  1.00  0.00    -0.196 A  
HETATM   30  C   UNL     1     -11.966   4.481  73.481  1.00  0.00     0.382 C  
HETATM   31  N   UNL     1     -12.478   6.310  72.005  1.00  0.00    -0.214 NA 
HETATM   32  C   UNL     1     -11.777   7.310  71.461  1.00  0.00    -0.289 A  
ENDBRANCH  18  27
ENDBRANCH   9  17
ENDBRANCH   5   9
BRANCH   8  33
HETATM   33  O   UNL     1      -5.999  16.549  68.270  1.00  0.00    -0.115 OA 
HETATM   34  C   UNL     1      -5.863  16.664  69.678  1.00  0.00    -0.199 C  
ENDBRANCH   8  33
ENDBRANCH   2   3
TORSDOF 9
ENDMDL
MODEL      208
REMARK 921   NORMALIZED FREE ENERGY PREDICTED BY IDOCK:   -3.68 KCAL/MOL
REMARK 922        TOTAL FREE ENERGY PREDICTED BY IDOCK:   -6.79 KCAL/MOL
REMARK 923 INTER-LIGAND FREE ENERGY PREDICTED BY IDOCK:   -5.37 KCAL/MOL
REMARK 924 INTRA-LIGAND FREE ENERGY PREDICTED BY IDOCK:   -1.43 KCAL/MOL
REMARK 927      BINDING AFFINITY PREDICTED BY RF-SCORE:    0.00 PKD
ROOT
HETATM    1  C   UNL     1     -13.029  13.732  64.441  1.00  0.00     0.387 C  
HETATM    2  O   UNL     1     -12.326  12.554  64.855  1.00  0.00    -0.466 OA 
ENDROOT
BRANCH   2   3
HETATM    3  C   UNL     1     -11.315  12.793  65.755  1.00  0.00    -0.320 A  
HETATM    4  C   UNL     1     -10.681  11.663  66.320  1.00  0.00    -0.317 A  
HETATM    5  C   UNL     1      -9.548  11.766  67.150  1.00  0.00    -0.181 A  
HETATM    6  C   UNL     1      -9.190  13.092  67.456  1.00  0.00    -0.206 A  
HETATM    7  C   UNL     1     -10.927  14.077  66.124  1.00  0.00    -0.295 A  
HETATM    8  C   UNL     1      -9.861  14.228  66.986  1.00  0.00    -0.254 A  
BRANCH   5   9
HETATM    9  N   UNL     1      -8.797  10.649  67.648  1.00  0.00    -0.131 NA 
BRANCH   9  10
HETATM   10  C   UNL     1      -7.315  10.780  67.826  1.00  0.00    -0.093 C  
BRANCH  10  11
HETATM   11  C   UNL     1      -6.758  10.847  69.271  1.00  0.00    -0.086 C  
BRANCH  11  12
HETATM   12  N   UNL     1      -7.619  10.372  70.353  1.00  0.00    -0.445 NA 
HETATM   13  H   UNL     1      -8.573  10.255  70.013  1.00  0.00     0.000 HD 
BRANCH  12  14
HETATM   14  C   UNL     1      -7.176   9.151  71.026  1.00  0.00    -0.100 C  
HETATM   15  C   UNL     1      -8.327   8.218  71.411  1.00  0.00    -0.163 C  
HETATM   16  C   UNL     1      -6.231   8.419  70.068  1.00  0.00    -0.034 C  
ENDBRANCH  12  14
ENDBRANCH  11  12
ENDBRANCH  10  11
ENDBRANCH   9  10
BRANCH   9  17
HETATM   17  C   UNL     1      -9.206   9.264  67.532  1.00  0.00    -0.124 A  
HETATM   18  C   UNL     1      -9.114   5.039  65.265  1.00  0.00    -0.139 A  
HETATM   19  C   UNL     1     -10.167   8.701  68.376  1.00  0.00    -0.232 A  
HETATM   20  C   UNL     1     -10.193   4.618  66.024  1.00  0.00    -0.277 A  
HETATM   21  N   UNL     1      -8.584   6.279  65.430  1.00  0.00    -0.129 NA 
HETATM   22  C   UNL     1      -9.144   7.076  66.368  1.00  0.00    -0.160 A  
HETATM   23  C   UNL     1     -10.705   7.427  68.153  1.00  0.00    -0.169 A  
HETATM   24  C   UNL     1     -10.217   6.611  67.156  1.00  0.00    -0.213 A  
HETATM   25  C   UNL     1      -8.680   8.386  66.557  1.00  0.00    -0.151 A  
HETATM   26  N   UNL     1     -10.756   5.389  66.984  1.00  0.00    -0.220 NA 
BRANCH  18  27
HETATM   27  C   UNL     1      -8.478   4.199  64.268  1.00  0.00    -0.105 A  
HETATM   28  N   UNL     1      -7.007   3.063  63.092  1.00  0.00    -0.038 NA 
HETATM   29  C   UNL     1      -7.142   3.856  64.197  1.00  0.00    -0.050 A  
HETATM   30  C   UNL     1      -5.795   2.460  62.596  1.00  0.00    -0.009 C  
HETATM   31  N   UNL     1      -8.162   2.866  62.430  1.00  0.00    -0.072 NA 
HETATM   32  C   UNL     1      -9.053   3.558  63.147  1.00  0.00    -0.096 A  
ENDBRANCH  18  27
ENDBRANCH   9  17
ENDBRANCH   5   9
BRANCH   8  33
HETATM   33  O   UNL     1      -9.350  15.413  67.441  1.00  0.00    -0.198 OA 
HETATM   34  C   UNL     1      -8.844  16.315  66.469  1.00  0.00    -0.283 C  
ENDBRANCH   8  33
ENDBRANCH   2   3
TORSDOF 9
ENDMDL
MODEL      209
REMARK 921   NORMALIZED FREE ENERGY PREDICTED BY IDOCK:   -3.55 KCAL/MOL
REMARK 922        TOTAL FREE ENERGY PREDICTED BY IDOCK:   -6.58 KCAL/MOL
REMARK 923 INTER-LIGAND FREE ENERGY PREDICTED BY IDOCK:   -6.07 KCAL/MOL
REMARK 924 INTRA-LIGAND FREE ENERGY PREDICTED BY IDOCK:   -0.51 KCAL/MOL
REMARK 927      BINDING AFFINITY PREDICTED BY RF-SCORE:    0.00 PKD
ROOT
HETATM    1  C   UNL     1      -7.206   6.635  73.445  1.00  0.00    -0.080 C  
HETATM    2  O   UNL     1      -7.904   7.884  73.359  1.00  0.00    -0.135 OA 
ENDROOT
BRANCH   2   3
HETATM    3  C   UNL     1      -9.196   7.771  72.903  1.00  0.00    -0.208 A  
HETATM    4  C   UNL     1      -9.805   8.949  72.414  1.00  0.00    -0.054 A  
HETATM    5  C   UNL     1     -11.072   8.946  71.796  1.00  0.00    -0.363 A  
HETATM    6  C   UNL     1     -11.712   7.694  71.826  1.00  0.00    -0.319 A  
HETATM    7  C   UNL     1      -9.899   6.571  72.926  1.00  0.00    -0.174 A  
HETATM    8  C   UNL     1     -11.169   6.533  72.391  1.00  0.00    -0.275 A  
BRANCH   5   9
HETATM    9  N   UNL     1     -11.680  10.089  71.177  1.00  0.00    -0.374 NA 
BRANCH   9  10
HETATM   10  C   UNL     1     -13.087  10.459  71.537  1.00  0.00    -0.431 C  
BRANCH  10  11
HETATM   11  C   UNL     1     -13.407  11.956  71.777  1.00  0.00    -0.232 C  
BRANCH  11  12
HETATM   12  N   UNL     1     -12.281  12.872  71.955  1.00  0.00     0.270 NA 
HETATM   13  H   UNL     1     -11.530  12.629  71.309  1.00  0.00     0.000 HD 
BRANCH  12  14
HETATM   14  C   UNL     1     -12.597  14.295  71.841  1.00  0.00    -0.315 C  
HETATM   15  C   UNL     1     -14.046  14.564  71.428  1.00  0.00    -0.428 C  
HETATM   16  C   UNL     1     -12.335  14.932  73.209  1.00  0.00    -0.485 C  
ENDBRANCH  12  14
ENDBRANCH  11  12
ENDBRANCH  10  11
ENDBRANCH   9  10
BRANCH   9  17
HETATM   17  C   UNL     1     -11.291  10.634  69.892  1.00  0.00    -0.313 A  
HETATM   18  C   UNL     1      -9.488  14.177  67.210  1.00  0.00    -0.229 A  
HETATM   19  C   UNL     1     -11.556   9.967  68.692  1.00  0.00     0.174 A  
HETATM   20  C   UNL     1      -9.946  13.536  66.070  1.00  0.00    -0.299 A  
HETATM   21  N   UNL     1      -9.690  13.643  68.442  1.00  0.00    -0.227 NA 
HETATM   22  C   UNL     1     -10.344  12.460  68.509  1.00  0.00    -0.221 A  
HETATM   23  C   UNL     1     -11.357  10.567  67.443  1.00  0.00    -0.120 A  
HETATM   24  C   UNL     1     -10.765  11.806  67.333  1.00  0.00    -0.236 A  
HETATM   25  C   UNL     1     -10.630  11.875  69.751  1.00  0.00     0.531 A  
HETATM   26  N   UNL     1     -10.582  12.342  66.111  1.00  0.00    -0.243 NA 
BRANCH  18  27
HETATM   27  C   UNL     1      -8.765  15.433  67.168  1.00  0.00    -0.243 A  
HETATM   28  N   UNL     1      -8.245  17.570  67.156  1.00  0.00    -0.207 NA 
HETATM   29  C   UNL     1      -9.299  16.705  67.251  1.00  0.00    -0.230 A  
HETATM   30  C   UNL     1      -8.297  19.011  67.186  1.00  0.00    -0.278 C  
HETATM   31  N   UNL     1      -7.058  16.955  67.012  1.00  0.00    -0.178 NA 
HETATM   32  C   UNL     1      -7.377  15.657  67.018  1.00  0.00    -0.168 A  
ENDBRANCH  18  27
ENDBRANCH   9  17
ENDBRANCH   5   9
BRANCH   8  33
HETATM   33  O   UNL     1     -11.988   5.439  72.329  1.00  0.00    -0.041 OA 
HETATM   34  C   UNL     1     -11.575   4.280  73.036  1.00  0.00     0.060 C  
ENDBRANCH   8  33
ENDBRANCH   2   3
TORSDOF 9
ENDMDL
MODEL      210
REMARK 921   NORMALIZED FREE ENERGY PREDICTED BY IDOCK:   -3.48 KCAL/MOL
REMARK 922        TOTAL FREE ENERGY PREDICTED BY IDOCK:   -6.49 KCAL/MOL
REMARK 923 INTER-LIGAND FREE ENERGY PREDICTED BY IDOCK:   -5.48 KCAL/MOL
REMARK 924 INTRA-LIGAND FREE ENERGY PREDICTED BY IDOCK:   -1.01 KCAL/MOL
REMARK 927      BINDING AFFINITY PREDICTED BY RF-SCORE:    0.00 PKD
ROOT
HETATM    1  C   UNL     1     -11.137   6.266  66.964  1.00  0.00    -0.297 C  
HETATM    2  O   UNL     1     -10.340   7.337  66.444  1.00  0.00    -0.096 OA 
ENDROOT
BRANCH   2   3
HETATM    3  C   UNL     1      -9.053   7.362  66.927  1.00  0.00    -0.141 A  
HETATM    4  C   UNL     1      -8.689   8.476  67.719  1.00  0.00    -0.137 A  
HETATM    5  C   UNL     1      -7.450   8.559  68.384  1.00  0.00    -0.095 A  
HETATM    6  C   UNL     1      -6.576   7.498  68.086  1.00  0.00    -0.050 A  
HETATM    7  C   UNL     1      -8.128   6.361  66.652  1.00  0.00    -0.110 A  
HETATM    8  C   UNL     1      -6.877   6.432  67.229  1.00  0.00    -0.069 A  
BRANCH   5   9
HETATM    9  N   UNL     1      -7.082   9.607  69.293  1.00  0.00    -0.060 NA 
BRANCH   9  10
HETATM   10  C   UNL     1      -7.539   9.537  70.719  1.00  0.00    -0.071 C  
BRANCH  10  11
HETATM   11  C   UNL     1      -9.038   9.249  70.989  1.00  0.00    -0.183 C  
BRANCH  11  12
HETATM   12  N   UNL     1      -9.374   8.025  71.714  1.00  0.00    -0.153 NA 
HETATM   13  H   UNL     1      -8.526   7.492  71.911  1.00  0.00     0.000 HD 
BRANCH  12  14
HETATM   14  C   UNL     1     -10.144   8.207  72.944  1.00  0.00    -0.278 C  
HETATM   15  C   UNL     1     -11.656   8.079  72.738  1.00  0.00    -0.390 C  
HETATM   16  C   UNL     1      -9.677   7.139  73.938  1.00  0.00    -0.334 C  
ENDBRANCH  12  14
ENDBRANCH  11  12
ENDBRANCH  10  11
ENDBRANCH   9  10
BRANCH   9  17
HETATM   17  C   UNL     1      -6.750  10.961  68.899  1.00  0.00    -0.067 A  
HETATM   18  C   UNL     1      -8.046  15.438  67.767  1.00  0.00    -0.140 A  
HETATM   19  C   UNL     1      -5.446  11.338  68.564  1.00  0.00    -0.042 A  
HETATM   20  C   UNL     1      -6.768  15.676  67.285  1.00  0.00    -0.132 A  
HETATM   21  N   UNL     1      -8.382  14.230  68.289  1.00  0.00    -0.157 NA 
HETATM   22  C   UNL     1      -7.420  13.279  68.330  1.00  0.00    -0.126 A  
HETATM   23  C   UNL     1      -5.148  12.586  68.003  1.00  0.00    -0.077 A  
HETATM   24  C   UNL     1      -6.116  13.558  67.870  1.00  0.00    -0.151 A  
HETATM   25  C   UNL     1      -7.710  11.994  68.811  1.00  0.00    -0.054 A  
HETATM   26  N   UNL     1      -5.784  14.748  67.336  1.00  0.00    -0.313 NA 
BRANCH  18  27
HETATM   27  C   UNL     1      -9.090  16.444  67.757  1.00  0.00    -0.199 A  
HETATM   28  N   UNL     1     -10.200  18.333  67.563  1.00  0.00    -0.351 NA 
HETATM   29  C   UNL     1      -8.961  17.775  67.411  1.00  0.00    -0.240 A  
HETATM   30  C   UNL     1     -10.571  19.706  67.328  1.00  0.00    -0.472 C  
HETATM   31  N   UNL     1     -11.131  17.461  67.990  1.00  0.00    -0.153 NA 
HETATM   32  C   UNL     1     -10.454  16.314  68.108  1.00  0.00    -0.289 A  
ENDBRANCH  18  27
ENDBRANCH   9  17
ENDBRANCH   5   9
BRANCH   8  33
HETATM   33  O   UNL     1      -5.859   5.533  67.069  1.00  0.00    -0.017 OA 
HETATM   34  C   UNL     1      -6.110   4.413  66.234  1.00  0.00    -0.031 C  
ENDBRANCH   8  33
ENDBRANCH   2   3
TORSDOF 9
ENDMDL
MODEL      211
REMARK 921   NORMALIZED FREE ENERGY PREDICTED BY IDOCK:   -3.42 KCAL/MOL
REMARK 922        TOTAL FREE ENERGY PREDICTED BY IDOCK:   -6.40 KCAL/MOL
REMARK 923 INTER-LIGAND FREE ENERGY PREDICTED BY IDOCK:   -5.34 KCAL/MOL
REMARK 924 INTRA-LIGAND FREE ENERGY PREDICTED BY IDOCK:   -1.06 KCAL/MOL
REMARK 927      BINDING AFFINITY PREDICTED BY RF-SCORE:    0.00 PKD
ROOT
HETATM    1  C   UNL     1     -10.401  17.253  66.825  1.00  0.00    -0.308 C  
HETATM    2  O   UNL     1     -10.329  15.892  67.267  1.00  0.00    -0.279 OA 
ENDROOT
BRANCH   2   3
HETATM    3  C   UNL     1      -9.048  15.441  67.482  1.00  0.00    -0.194 A  
HETATM    4  C   UNL     1      -8.856  14.041  67.492  1.00  0.00    -0.199 A  
HETATM    5  C   UNL     1      -7.578  13.452  67.568  1.00  0.00    -0.169 A  
HETATM    6  C   UNL     1      -6.538  14.381  67.755  1.00  0.00    -0.189 A  
HETATM    7  C   UNL     1      -7.977  16.301  67.699  1.00  0.00    -0.160 A  
HETATM    8  C   UNL     1      -6.713  15.768  67.844  1.00  0.00    -0.145 A  
BRANCH   5   9
HETATM    9  N   UNL     1      -7.322  12.044  67.461  1.00  0.00    -0.126 NA 
BRANCH   9  10
HETATM   10  C   UNL     1      -7.825  11.295  66.264  1.00  0.00    -0.069 C  
BRANCH  10  11
HETATM   11  C   UNL     1      -7.264   9.873  66.007  1.00  0.00    -0.106 C  
BRANCH  11  12
HETATM   12  N   UNL     1      -8.212   8.830  65.614  1.00  0.00    -0.114 NA 
HETATM   13  H   UNL     1      -7.813   8.261  64.868  1.00  0.00     0.000 HD 
BRANCH  12  14
HETATM   14  C   UNL     1      -8.693   7.971  66.695  1.00  0.00    -0.140 C  
HETATM   15  C   UNL     1     -10.217   7.972  66.838  1.00  0.00    -0.385 C  
HETATM   16  C   UNL     1      -8.216   6.547  66.393  1.00  0.00    -0.116 C  
ENDBRANCH  12  14
ENDBRANCH  11  12
ENDBRANCH  10  11
ENDBRANCH   9  10
BRANCH   9  17
HETATM   17  C   UNL     1      -7.076  11.163  68.584  1.00  0.00    -0.090 A  
HETATM   18  C   UNL     1      -8.606   8.000  71.848  1.00  0.00    -0.137 A  
HETATM   19  C   UNL     1      -5.841  11.121  69.238  1.00  0.00    -0.044 A  
HETATM   20  C   UNL     1      -7.416   8.153  72.541  1.00  0.00    -0.117 A  
HETATM   21  N   UNL     1      -8.840   8.688  70.700  1.00  0.00    -0.152 NA 
HETATM   22  C   UNL     1      -7.866   9.516  70.260  1.00  0.00    -0.168 A  
HETATM   23  C   UNL     1      -5.651  10.419  70.435  1.00  0.00    -0.073 A  
HETATM   24  C   UNL     1      -6.647   9.625  70.961  1.00  0.00    -0.031 A  
HETATM   25  C   UNL     1      -8.059  10.294  69.109  1.00  0.00    -0.138 A  
HETATM   26  N   UNL     1      -6.417   8.957  72.108  1.00  0.00    -0.218 NA 
BRANCH  18  27
HETATM   27  C   UNL     1      -9.660   7.104  72.283  1.00  0.00    -0.161 A  
HETATM   28  N   UNL     1     -10.770   5.407  73.134  1.00  0.00    -0.243 NA 
HETATM   29  C   UNL     1      -9.510   5.898  72.939  1.00  0.00    -0.151 A  
HETATM   30  C   UNL     1     -11.132   4.167  73.775  1.00  0.00    -0.223 C  
HETATM   31  N   UNL     1     -11.737   6.205  72.647  1.00  0.00    -0.207 NA 
HETATM   32  C   UNL     1     -11.059   7.235  72.130  1.00  0.00    -0.246 A  
ENDBRANCH  18  27
ENDBRANCH   9  17
ENDBRANCH   5   9
BRANCH   8  33
HETATM   33  O   UNL     1      -5.558  16.469  68.056  1.00  0.00    -0.101 OA 
HETATM   34  C   UNL     1      -5.201  16.736  69.404  1.00  0.00    -0.135 C  
ENDBRANCH   8  33
ENDBRANCH   2   3
TORSDOF 9
ENDMDL
MODEL      212
REMARK 921   NORMALIZED FREE ENERGY PREDICTED BY IDOCK:   -3.34 KCAL/MOL
REMARK 922        TOTAL FREE ENERGY PREDICTED BY IDOCK:   -6.26 KCAL/MOL
REMARK 923 INTER-LIGAND FREE ENERGY PREDICTED BY IDOCK:   -5.52 KCAL/MOL
REMARK 924 INTRA-LIGAND FREE ENERGY PREDICTED BY IDOCK:   -0.74 KCAL/MOL
REMARK 927      BINDING AFFINITY PREDICTED BY RF-SCORE:    0.00 PKD
ROOT
HETATM    1  C   UNL     1     -10.223   4.822  66.151  1.00  0.00    -0.281 C  
HETATM    2  O   UNL     1      -9.925   5.413  67.422  1.00  0.00    -0.143 OA 
ENDROOT
BRANCH   2   3
HETATM    3  C   UNL     1      -9.481   6.713  67.343  1.00  0.00    -0.129 A  
HETATM    4  C   UNL     1      -8.873   7.251  68.500  1.00  0.00    -0.129 A  
HETATM    5  C   UNL     1      -8.257   8.519  68.511  1.00  0.00    -0.123 A  
HETATM    6  C   UNL     1      -8.414   9.234  67.310  1.00  0.00    -0.125 A  
HETATM    7  C   UNL     1      -9.625   7.487  66.197  1.00  0.00    -0.056 A  
HETATM    8  C   UNL     1      -9.095   8.760  66.182  1.00  0.00    -0.202 A  
BRANCH   5   9
HETATM    9  N   UNL     1      -7.523   9.059  69.620  1.00  0.00    -0.073 NA 
BRANCH   9  10
HETATM   10  C   UNL     1      -7.675   8.436  70.975  1.00  0.00    -0.097 C  
BRANCH  10  11
HETATM   11  C   UNL     1      -8.785   8.985  71.908  1.00  0.00     0.137 C  
BRANCH  11  12
HETATM   12  N   UNL     1     -10.069   9.335  71.302  1.00  0.00    -0.307 NA 
HETATM   13  H   UNL     1     -10.002   9.281  70.286  1.00  0.00     0.000 HD 
BRANCH  12  14
HETATM   14  C   UNL     1     -11.221   8.564  71.768  1.00  0.00    -0.309 C  
HETATM   15  C   UNL     1     -11.609   7.423  70.824  1.00  0.00    -0.317 C  
HETATM   16  C   UNL     1     -10.857   7.984  73.139  1.00  0.00    -0.193 C  
ENDBRANCH  12  14
ENDBRANCH  11  12
ENDBRANCH  10  11
ENDBRANCH   9  10
BRANCH   9  17
HETATM   17  C   UNL     1      -7.043  10.423  69.704  1.00  0.00    -0.135 A  
HETATM   18  C   UNL     1      -7.076  14.981  68.212  1.00  0.00    -0.114 A  
HETATM   19  C   UNL     1      -5.983  10.787  70.539  1.00  0.00    -0.122 A  
HETATM   20  C   UNL     1      -5.913  15.214  68.928  1.00  0.00    -0.093 A  
HETATM   21  N   UNL     1      -7.663  13.756  68.212  1.00  0.00    -0.128 NA 
HETATM   22  C   UNL     1      -7.074  12.782  68.943  1.00  0.00    -0.067 A  
HETATM   23  C   UNL     1      -5.390  12.055  70.487  1.00  0.00    -0.143 A  
HETATM   24  C   UNL     1      -5.912  13.054  69.695  1.00  0.00    -0.118 A  
HETATM   25  C   UNL     1      -7.597  11.481  68.948  1.00  0.00    -0.102 A  
HETATM   26  N   UNL     1      -5.318  14.263  69.684  1.00  0.00    -0.091 NA 
BRANCH  18  27
HETATM   27  C   UNL     1      -7.742  16.010  67.438  1.00  0.00    -0.195 A  
HETATM   28  N   UNL     1      -9.232  17.412  66.631  1.00  0.00    -0.253 NA 
HETATM   29  C   UNL     1      -9.047  16.443  67.576  1.00  0.00    -0.193 A  
HETATM   30  C   UNL     1     -10.437  18.162  66.377  1.00  0.00    -0.350 C  
HETATM   31  N   UNL     1      -8.141  17.642  65.878  1.00  0.00    -0.554 NA 
HETATM   32  C   UNL     1      -7.238  16.789  66.371  1.00  0.00    -0.191 A  
ENDBRANCH  18  27
ENDBRANCH   9  17
ENDBRANCH   5   9
BRANCH   8  33
HETATM   33  O   UNL     1      -9.144   9.645  65.140  1.00  0.00    -0.197 OA 
HETATM   34  C   UNL     1      -8.746   9.165  63.864  1.00  0.00    -0.128 C  
ENDBRANCH   8  33
ENDBRANCH   2   3
TORSDOF 9
ENDMDL
MODEL      213
REMARK 921   NORMALIZED FREE ENERGY PREDICTED BY IDOCK:   -3.34 KCAL/MOL
REMARK 922        TOTAL FREE ENERGY PREDICTED BY IDOCK:   -6.26 KCAL/MOL
REMARK 923 INTER-LIGAND FREE ENERGY PREDICTED BY IDOCK:   -6.45 KCAL/MOL
REMARK 924 INTRA-LIGAND FREE ENERGY PREDICTED BY IDOCK:    0.18 KCAL/MOL
REMARK 927      BINDING AFFINITY PREDICTED BY RF-SCORE:    0.00 PKD
ROOT
HETATM    1  C   UNL     1     -12.422  14.083  64.791  1.00  0.00    -0.365 C  
HETATM    2  O   UNL     1     -11.043  14.474  64.818  1.00  0.00    -0.382 OA 
ENDROOT
BRANCH   2   3
HETATM    3  C   UNL     1     -10.387  14.123  65.975  1.00  0.00    -0.309 A  
HETATM    4  C   UNL     1     -10.943  13.065  66.729  1.00  0.00    -0.299 A  
HETATM    5  C   UNL     1     -10.299  12.520  67.858  1.00  0.00    -0.216 A  
HETATM    6  C   UNL     1      -9.127  13.205  68.225  1.00  0.00    -0.181 A  
HETATM    7  C   UNL     1      -9.238  14.773  66.412  1.00  0.00    -0.301 A  
HETATM    8  C   UNL     1      -8.607  14.316  67.550  1.00  0.00    -0.196 A  
BRANCH   5   9
HETATM    9  N   UNL     1     -10.760  11.371  68.584  1.00  0.00    -0.196 NA 
BRANCH   9  10
HETATM   10  C   UNL     1     -12.091  11.421  69.270  1.00  0.00    -0.289 C  
BRANCH  10  11
HETATM   11  C   UNL     1     -12.116  11.740  70.787  1.00  0.00    -0.252 C  
BRANCH  11  12
HETATM   12  N   UNL     1     -13.342  11.437  71.525  1.00  0.00    -0.203 NA 
HETATM   13  H   UNL     1     -14.156  11.644  70.947  1.00  0.00     0.000 HD 
BRANCH  12  14
HETATM   14  C   UNL     1     -13.441  10.080  72.059  1.00  0.00    -0.347 C  
HETATM   15  C   UNL     1     -14.210   9.122  71.146  1.00  0.00     0.024 C  
HETATM   16  C   UNL     1     -12.013   9.559  72.250  1.00  0.00     0.020 C  
ENDBRANCH  12  14
ENDBRANCH  11  12
ENDBRANCH  10  11
ENDBRANCH   9  10
BRANCH   9  17
HETATM   17  C   UNL     1      -9.898  10.355  69.152  1.00  0.00    -0.223 A  
HETATM   18  C   UNL     1      -9.266   6.268  71.581  1.00  0.00    -0.144 A  
HETATM   19  C   UNL     1      -8.506  10.482  69.160  1.00  0.00    -0.152 A  
HETATM   20  C   UNL     1      -7.917   6.559  71.702  1.00  0.00    -0.104 A  
HETATM   21  N   UNL     1     -10.107   7.111  70.927  1.00  0.00    -0.193 NA 
HETATM   22  C   UNL     1      -9.574   8.233  70.393  1.00  0.00    -0.168 A  
HETATM   23  C   UNL     1      -7.678   9.604  69.870  1.00  0.00    -0.146 A  
HETATM   24  C   UNL     1      -8.190   8.489  70.495  1.00  0.00    -0.115 A  
HETATM   25  C   UNL     1     -10.392   9.172  69.747  1.00  0.00    -0.226 A  
HETATM   26  N   UNL     1      -7.356   7.665  71.158  1.00  0.00    -0.072 NA 
BRANCH  18  27
HETATM   27  C   UNL     1      -9.861   5.062  72.122  1.00  0.00    -0.220 A  
HETATM   28  N   UNL     1     -10.450   2.972  72.472  1.00  0.00    -0.109 NA 
HETATM   29  C   UNL     1      -9.691   3.770  71.663  1.00  0.00    -0.168 A  
HETATM   30  C   UNL     1     -10.603   1.541  72.387  1.00  0.00    -0.146 C  
HETATM   31  N   UNL     1     -11.111   3.651  73.427  1.00  0.00    -0.215 NA 
HETATM   32  C   UNL     1     -10.751   4.920  73.212  1.00  0.00    -0.255 A  
ENDBRANCH  18  27
ENDBRANCH   9  17
ENDBRANCH   5   9
BRANCH   8  33
HETATM   33  O   UNL     1      -7.471  14.834  68.109  1.00  0.00    -0.102 OA 
HETATM   34  C   UNL     1      -6.763  15.807  67.355  1.00  0.00    -0.194 C  
ENDBRANCH   8  33
ENDBRANCH   2   3
TORSDOF 9
ENDMDL
MODEL      214
REMARK 921   NORMALIZED FREE ENERGY PREDICTED BY IDOCK:   -3.33 KCAL/MOL
REMARK 922        TOTAL FREE ENERGY PREDICTED BY IDOCK:   -6.26 KCAL/MOL
REMARK 923 INTER-LIGAND FREE ENERGY PREDICTED BY IDOCK:   -5.41 KCAL/MOL
REMARK 924 INTRA-LIGAND FREE ENERGY PREDICTED BY IDOCK:   -0.85 KCAL/MOL
REMARK 927      BINDING AFFINITY PREDICTED BY RF-SCORE:    0.00 PKD
ROOT
HETATM    1  C   UNL     1      -9.130   2.375  65.787  1.00  0.00    -0.088 C  
HETATM    2  O   UNL     1      -9.944   3.552  65.700  1.00  0.00    -0.060 OA 
ENDROOT
BRANCH   2   3
HETATM    3  C   UNL     1      -9.248   4.726  65.872  1.00  0.00    -0.149 A  
HETATM    4  C   UNL     1      -9.381   5.368  67.124  1.00  0.00    -0.117 A  
HETATM    5  C   UNL     1      -8.621   6.502  67.478  1.00  0.00    -0.119 A  
HETATM    6  C   UNL     1      -7.821   6.995  66.431  1.00  0.00    -0.106 A  
HETATM    7  C   UNL     1      -8.459   5.284  64.873  1.00  0.00    -0.150 A  
HETATM    8  C   UNL     1      -7.746   6.431  65.151  1.00  0.00    -0.100 A  
BRANCH   5   9
HETATM    9  N   UNL     1      -8.630   7.117  68.775  1.00  0.00    -0.125 NA 
BRANCH   9  10
HETATM   10  C   UNL     1      -9.738   6.798  69.732  1.00  0.00    -0.156 C  
BRANCH  10  11
HETATM   11  C   UNL     1     -10.680   7.950  70.165  1.00  0.00    -0.244 C  
BRANCH  11  12
HETATM   12  N   UNL     1     -12.111   7.662  70.251  1.00  0.00    -0.428 NA 
HETATM   13  H   UNL     1     -12.263   6.653  70.256  1.00  0.00     0.000 HD 
BRANCH  12  14
HETATM   14  C   UNL     1     -12.815   8.278  71.374  1.00  0.00    -0.247 C  
HETATM   15  C   UNL     1     -14.151   7.604  71.697  1.00  0.00    -0.547 C  
HETATM   16  C   UNL     1     -11.895   8.185  72.596  1.00  0.00    -0.389 C  
ENDBRANCH  12  14
ENDBRANCH  11  12
ENDBRANCH  10  11
ENDBRANCH   9  10
BRANCH   9  17
HETATM   17  C   UNL     1      -7.987   8.375  69.094  1.00  0.00    -0.110 A  
HETATM   18  C   UNL     1      -7.481  13.104  68.473  1.00  0.00    -0.117 A  
HETATM   19  C   UNL     1      -6.881   8.448  69.945  1.00  0.00    -0.043 A  
HETATM   20  C   UNL     1      -6.291  13.060  69.180  1.00  0.00    -0.105 A  
HETATM   21  N   UNL     1      -8.213  11.978  68.265  1.00  0.00    -0.156 NA 
HETATM   22  C   UNL     1      -7.738  10.822  68.783  1.00  0.00    -0.121 A  
HETATM   23  C   UNL     1      -6.139   9.625  70.110  1.00  0.00    -0.053 A  
HETATM   24  C   UNL     1      -6.544  10.809  69.534  1.00  0.00    -0.099 A  
HETATM   25  C   UNL     1      -8.416   9.614  68.566  1.00  0.00    -0.118 A  
HETATM   26  N   UNL     1      -5.808  11.920  69.727  1.00  0.00    -0.105 NA 
BRANCH  18  27
HETATM   27  C   UNL     1      -8.026  14.330  67.925  1.00  0.00    -0.156 A  
HETATM   28  N   UNL     1      -9.375  15.971  67.354  1.00  0.00    -0.215 NA 
HETATM   29  C   UNL     1      -9.326  14.785  68.030  1.00  0.00    -0.196 A  
HETATM   30  C   UNL     1     -10.522  16.826  67.176  1.00  0.00    -0.299 C  
HETATM   31  N   UNL     1      -8.197  16.325  66.808  1.00  0.00    -0.229 NA 
HETATM   32  C   UNL     1      -7.380  15.326  67.157  1.00  0.00    -0.143 A  
ENDBRANCH  18  27
ENDBRANCH   9  17
ENDBRANCH   5   9
BRANCH   8  33
HETATM   33  O   UNL     1      -6.922   7.101  64.288  1.00  0.00    -0.051 OA 
HETATM   34  C   UNL     1      -6.622   8.454  64.599  1.00  0.00    -0.065 C  
ENDBRANCH   8  33
ENDBRANCH   2   3
TORSDOF 9
ENDMDL
MODEL      215
REMARK 921   NORMALIZED FREE ENERGY PREDICTED BY IDOCK:   -3.21 KCAL/MOL
REMARK 922        TOTAL FREE ENERGY PREDICTED BY IDOCK:   -6.07 KCAL/MOL
REMARK 923 INTER-LIGAND FREE ENERGY PREDICTED BY IDOCK:   -5.12 KCAL/MOL
REMARK 924 INTRA-LIGAND FREE ENERGY PREDICTED BY IDOCK:   -0.94 KCAL/MOL
REMARK 927      BINDING AFFINITY PREDICTED BY RF-SCORE:    0.00 PKD
ROOT
HETATM    1  C   UNL     1     -10.812  14.426  69.009  1.00  0.00    -0.252 C  
HETATM    2  O   UNL     1      -9.764  14.714  68.075  1.00  0.00    -0.208 OA 
ENDROOT
BRANCH   2   3
HETATM    3  C   UNL     1      -8.681  13.872  68.174  1.00  0.00    -0.182 A  
HETATM    4  C   UNL     1      -8.764  12.642  67.481  1.00  0.00    -0.184 A  
HETATM    5  C   UNL     1      -7.677  11.750  67.389  1.00  0.00    -0.151 A  
HETATM    6  C   UNL     1      -6.558  12.143  68.147  1.00  0.00    -0.061 A  
HETATM    7  C   UNL     1      -7.553  14.183  68.925  1.00  0.00    -0.098 A  
HETATM    8  C   UNL     1      -6.487  13.310  68.918  1.00  0.00    -0.100 A  
BRANCH   5   9
HETATM    9  N   UNL     1      -7.671  10.551  66.601  1.00  0.00    -0.117 NA 
BRANCH   9  10
HETATM   10  C   UNL     1      -8.344  10.549  65.262  1.00  0.00    -0.155 C  
BRANCH  10  11
HETATM   11  C   UNL     1      -9.806  10.037  65.184  1.00  0.00    -0.318 C  
BRANCH  11  12
HETATM   12  N   UNL     1     -10.876  11.034  65.200  1.00  0.00    -0.173 NA 
HETATM   13  H   UNL     1     -10.845  11.563  66.072  1.00  0.00     0.000 HD 
BRANCH  12  14
HETATM   14  C   UNL     1     -10.906  11.950  64.061  1.00  0.00    -0.379 C  
HETATM   15  C   UNL     1     -10.254  11.375  62.802  1.00  0.00    -0.069 C  
HETATM   16  C   UNL     1     -12.376  12.267  63.769  1.00  0.00    -0.637 C  
ENDBRANCH  12  14
ENDBRANCH  11  12
ENDBRANCH  10  11
ENDBRANCH   9  10
BRANCH   9  17
HETATM   17  C   UNL     1      -7.533   9.213  67.138  1.00  0.00    -0.087 A  
HETATM   18  C   UNL     1      -8.156   6.023  70.665  1.00  0.00    -0.116 A  
HETATM   19  C   UNL     1      -6.826   8.212  66.465  1.00  0.00    -0.067 A  
HETATM   20  C   UNL     1      -7.295   5.152  70.018  1.00  0.00    -0.060 A  
HETATM   21  N   UNL     1      -8.446   7.241  70.137  1.00  0.00    -0.137 NA 
HETATM   22  C   UNL     1      -7.871   7.562  68.956  1.00  0.00    -0.120 A  
HETATM   23  C   UNL     1      -6.527   6.979  67.058  1.00  0.00    -0.050 A  
HETATM   24  C   UNL     1      -7.028   6.642  68.296  1.00  0.00    -0.077 A  
HETATM   25  C   UNL     1      -8.087   8.821  68.378  1.00  0.00    -0.117 A  
HETATM   26  N   UNL     1      -6.725   5.441  68.824  1.00  0.00    -0.051 NA 
BRANCH  18  27
HETATM   27  C   UNL     1      -8.805   5.699  71.920  1.00  0.00    -0.137 A  
HETATM   28  N   UNL     1      -9.709   4.625  73.614  1.00  0.00    -0.133 NA 
HETATM   29  C   UNL     1      -9.087   4.439  72.411  1.00  0.00    -0.120 A  
HETATM   30  C   UNL     1     -10.201   3.606  74.507  1.00  0.00    -0.194 C  
HETATM   31  N   UNL     1      -9.859   5.921  73.944  1.00  0.00    -0.173 NA 
HETATM   32  C   UNL     1      -9.310   6.570  72.913  1.00  0.00    -0.135 A  
ENDBRANCH  18  27
ENDBRANCH   9  17
ENDBRANCH   5   9
BRANCH   8  33
HETATM   33  O   UNL     1      -5.307  13.467  69.593  1.00  0.00    -0.084 OA 
HETATM   34  C   UNL     1      -5.340  13.297  71.002  1.00  0.00    -0.181 C  
ENDBRANCH   8  33
ENDBRANCH   2   3
TORSDOF 9
ENDMDL
MODEL      216
REMARK 921   NORMALIZED FREE ENERGY PREDICTED BY IDOCK:   -3.13 KCAL/MOL
REMARK 922        TOTAL FREE ENERGY PREDICTED BY IDOCK:   -5.94 KCAL/MOL
REMARK 923 INTER-LIGAND FREE ENERGY PREDICTED BY IDOCK:   -5.16 KCAL/MOL
REMARK 924 INTRA-LIGAND FREE ENERGY PREDICTED BY IDOCK:   -0.78 KCAL/MOL
REMARK 927      BINDING AFFINITY PREDICTED BY RF-SCORE:    0.00 PKD
ROOT
HETATM    1  C   UNL     1     -12.190  13.947  69.764  1.00  0.00    -0.332 C  
HETATM    2  O   UNL     1     -11.520  15.203  69.594  1.00  0.00    -0.255 OA 
ENDROOT
BRANCH   2   3
HETATM    3  C   UNL     1     -10.191  15.087  69.260  1.00  0.00    -0.241 A  
HETATM    4  C   UNL     1      -9.760  13.827  68.785  1.00  0.00    -0.069 A  
HETATM    5  C   UNL     1      -8.461  13.611  68.284  1.00  0.00    -0.170 A  
HETATM    6  C   UNL     1      -7.612  14.725  68.417  1.00  0.00    -0.116 A  
HETATM    7  C   UNL     1      -9.290  16.138  69.390  1.00  0.00    -0.186 A  
HETATM    8  C   UNL     1      -7.989  15.954  68.973  1.00  0.00    -0.222 A  
BRANCH   5   9
HETATM    9  N   UNL     1      -8.013  12.389  67.681  1.00  0.00    -0.151 NA 
BRANCH   9  10
HETATM   10  C   UNL     1      -8.635  11.932  66.396  1.00  0.00    -0.077 C  
BRANCH  10  11
HETATM   11  C   UNL     1     -10.013  11.226  66.465  1.00  0.00    -0.212 C  
BRANCH  11  12
HETATM   12  N   UNL     1     -11.121  11.825  65.723  1.00  0.00    -0.313 NA 
HETATM   13  H   UNL     1     -11.646  12.455  66.329  1.00  0.00     0.000 HD 
BRANCH  12  14
HETATM   14  C   UNL     1     -10.757  12.513  64.485  1.00  0.00    -0.330 C  
HETATM   15  C   UNL     1     -10.996  11.671  63.229  1.00  0.00    -0.361 C  
HETATM   16  C   UNL     1     -11.601  13.789  64.406  1.00  0.00    -0.418 C  
ENDBRANCH  12  14
ENDBRANCH  11  12
ENDBRANCH  10  11
ENDBRANCH   9  10
BRANCH   9  17
HETATM   17  C   UNL     1      -7.395  11.294  68.400  1.00  0.00    -0.097 A  
HETATM   18  C   UNL     1      -7.435   6.773  70.001  1.00  0.00    -0.094 A  
HETATM   19  C   UNL     1      -6.209  11.456  69.123  1.00  0.00    -0.064 A  
HETATM   20  C   UNL     1      -6.365   7.066  70.830  1.00  0.00    -0.043 A  
HETATM   21  N   UNL     1      -7.970   7.720  69.187  1.00  0.00    -0.117 NA 
HETATM   22  C   UNL     1      -7.410   8.951  69.212  1.00  0.00    -0.070 A  
HETATM   23  C   UNL     1      -5.708  10.460  69.971  1.00  0.00    -0.055 A  
HETATM   24  C   UNL     1      -6.295   9.215  70.035  1.00  0.00    -0.039 A  
HETATM   25  C   UNL     1      -7.941   9.991  68.435  1.00  0.00    -0.097 A  
HETATM   26  N   UNL     1      -5.774   8.284  70.856  1.00  0.00    -0.032 NA 
BRANCH  18  27
HETATM   27  C   UNL     1      -8.041   5.457  69.935  1.00  0.00    -0.088 A  
HETATM   28  N   UNL     1      -8.896   3.560  69.224  1.00  0.00    -0.089 NA 
HETATM   29  C   UNL     1      -8.322   4.725  68.798  1.00  0.00    -0.082 A  
HETATM   30  C   UNL     1      -9.368   2.472  68.404  1.00  0.00    -0.200 C  
HETATM   31  N   UNL     1      -9.016   3.479  70.561  1.00  0.00    -0.083 NA 
HETATM   32  C   UNL     1      -8.497   4.634  70.991  1.00  0.00    -0.106 A  
ENDBRANCH  18  27
ENDBRANCH   9  17
ENDBRANCH   5   9
BRANCH   8  33
HETATM   33  O   UNL     1      -6.983  16.881  69.024  1.00  0.00    -0.202 OA 
HETATM   34  C   UNL     1      -5.695  16.418  69.401  1.00  0.00    -0.149 C  
ENDBRANCH   8  33
ENDBRANCH   2   3
TORSDOF 9
ENDMDL
MODEL      217
REMARK 921   NORMALIZED FREE ENERGY PREDICTED BY IDOCK:   -2.91 KCAL/MOL
REMARK 922        TOTAL FREE ENERGY PREDICTED BY IDOCK:   -5.61 KCAL/MOL
REMARK 923 INTER-LIGAND FREE ENERGY PREDICTED BY IDOCK:   -4.95 KCAL/MOL
REMARK 924 INTRA-LIGAND FREE ENERGY PREDICTED BY IDOCK:   -0.67 KCAL/MOL
REMARK 927      BINDING AFFINITY PREDICTED BY RF-SCORE:    0.00 PKD
ROOT
HETATM    1  C   UNL     1     -12.522  14.555  67.299  1.00  0.00     0.240 C  
HETATM    2  O   UNL     1     -12.160  13.406  68.076  1.00  0.00    -0.342 OA 
ENDROOT
BRANCH   2   3
HETATM    3  C   UNL     1     -11.145  12.658  67.527  1.00  0.00    -0.272 A  
HETATM    4  C   UNL     1      -9.891  12.708  68.178  1.00  0.00    -0.226 A  
HETATM    5  C   UNL     1      -8.809  11.890  67.800  1.00  0.00    -0.166 A  
HETATM    6  C   UNL     1      -9.058  11.119  66.649  1.00  0.00    -0.180 A  
HETATM    7  C   UNL     1     -11.313  11.894  66.378  1.00  0.00    -0.400 A  
HETATM    8  C   UNL     1     -10.259  11.124  65.930  1.00  0.00    -0.251 A  
BRANCH   5   9
HETATM    9  N   UNL     1      -7.559  11.815  68.502  1.00  0.00    -0.125 NA 
BRANCH   9  10
HETATM   10  C   UNL     1      -6.324  12.377  67.865  1.00  0.00    -0.096 C  
BRANCH  10  11
HETATM   11  C   UNL     1      -5.487  11.444  66.952  1.00  0.00    -0.115 C  
BRANCH  11  12
HETATM   12  N   UNL     1      -6.176  10.780  65.846  1.00  0.00    -0.199 NA 
HETATM   13  H   UNL     1      -5.910  11.211  64.961  1.00  0.00     0.000 HD 
BRANCH  12  14
HETATM   14  C   UNL     1      -5.999   9.330  65.768  1.00  0.00    -0.055 C  
HETATM   15  C   UNL     1      -5.145   8.886  64.578  1.00  0.00    -0.049 C  
HETATM   16  C   UNL     1      -5.324   8.883  67.069  1.00  0.00    -0.040 C  
ENDBRANCH  12  14
ENDBRANCH  11  12
ENDBRANCH  10  11
ENDBRANCH   9  10
BRANCH   9  17
HETATM   17  C   UNL     1      -7.242  10.833  69.518  1.00  0.00    -0.132 A  
HETATM   18  C   UNL     1      -8.550   7.311  72.500  1.00  0.00    -0.111 A  
HETATM   19  C   UNL     1      -5.980  10.762  70.114  1.00  0.00    -0.106 A  
HETATM   20  C   UNL     1      -7.335   7.428  73.157  1.00  0.00    -0.074 A  
HETATM   21  N   UNL     1      -8.851   8.105  71.439  1.00  0.00    -0.139 NA 
HETATM   22  C   UNL     1      -7.917   9.001  71.047  1.00  0.00    -0.150 A  
HETATM   23  C   UNL     1      -5.721   9.948  71.224  1.00  0.00    -0.054 A  
HETATM   24  C   UNL     1      -6.672   9.075  71.706  1.00  0.00     0.012 A  
HETATM   25  C   UNL     1      -8.179   9.886  69.991  1.00  0.00    -0.187 A  
HETATM   26  N   UNL     1      -6.377   8.302  72.769  1.00  0.00    -0.080 NA 
BRANCH  18  27
HETATM   27  C   UNL     1      -9.560   6.345  72.883  1.00  0.00    -0.158 A  
HETATM   28  N   UNL     1     -10.590   4.526  73.567  1.00  0.00    -0.208 NA 
HETATM   29  C   UNL     1      -9.352   5.061  73.348  1.00  0.00    -0.136 A  
HETATM   30  C   UNL     1     -10.893   3.202  74.051  1.00  0.00    -0.184 C  
HETATM   31  N   UNL     1     -11.597   5.368  73.274  1.00  0.00    -0.146 NA 
HETATM   32  C   UNL     1     -10.969   6.472  72.858  1.00  0.00    -0.250 A  
ENDBRANCH  18  27
ENDBRANCH   9  17
ENDBRANCH   5   9
BRANCH   8  33
HETATM   33  O   UNL     1     -10.259  10.314  64.827  1.00  0.00    -0.329 OA 
HETATM   34  C   UNL     1      -8.998   9.870  64.351  1.00  0.00    -0.239 C  
ENDBRANCH   8  33
ENDBRANCH   2   3
TORSDOF 9
ENDMDL
MODEL      218
REMARK 921   NORMALIZED FREE ENERGY PREDICTED BY IDOCK:   -2.89 KCAL/MOL
REMARK 922        TOTAL FREE ENERGY PREDICTED BY IDOCK:   -5.59 KCAL/MOL
REMARK 923 INTER-LIGAND FREE ENERGY PREDICTED BY IDOCK:   -6.09 KCAL/MOL
REMARK 924 INTRA-LIGAND FREE ENERGY PREDICTED BY IDOCK:    0.50 KCAL/MOL
REMARK 927      BINDING AFFINITY PREDICTED BY RF-SCORE:    0.00 PKD
ROOT
HETATM    1  C   UNL     1     -11.708  10.242  70.938  1.00  0.00    -0.379 C  
HETATM    2  O   UNL     1     -12.562   9.116  71.174  1.00  0.00    -0.301 OA 
ENDROOT
BRANCH   2   3
HETATM    3  C   UNL     1     -11.887   7.931  71.354  1.00  0.00    -0.299 A  
HETATM    4  C   UNL     1     -10.795   7.681  70.492  1.00  0.00    -0.249 A  
HETATM    5  C   UNL     1      -9.940   6.573  70.656  1.00  0.00    -0.184 A  
HETATM    6  C   UNL     1     -10.349   5.688  71.671  1.00  0.00    -0.270 A  
HETATM    7  C   UNL     1     -12.252   6.999  72.320  1.00  0.00    -0.174 A  
HETATM    8  C   UNL     1     -11.482   5.866  72.475  1.00  0.00    -0.298 A  
BRANCH   5   9
HETATM    9  N   UNL     1      -8.751   6.340  69.886  1.00  0.00    -0.139 NA 
BRANCH   9  10
HETATM   10  C   UNL     1      -7.730   5.365  70.389  1.00  0.00    -0.080 C  
BRANCH  10  11
HETATM   11  C   UNL     1      -8.154   4.378  71.507  1.00  0.00    -0.091 C  
BRANCH  11  12
HETATM   12  N   UNL     1      -8.214   2.956  71.170  1.00  0.00    -0.060 NA 
HETATM   13  H   UNL     1      -8.089   2.394  72.012  1.00  0.00     0.000 HD 
BRANCH  12  14
HETATM   14  C   UNL     1      -9.414   2.525  70.455  1.00  0.00    -0.108 C  
HETATM   15  C   UNL     1      -9.116   1.913  69.083  1.00  0.00    -0.173 C  
HETATM   16  C   UNL     1     -10.117   1.482  71.330  1.00  0.00    -0.117 C  
ENDBRANCH  12  14
ENDBRANCH  11  12
ENDBRANCH  10  11
ENDBRANCH   9  10
BRANCH   9  17
HETATM   17  C   UNL     1      -8.180   7.283  68.947  1.00  0.00    -0.125 A  
HETATM   18  C   UNL     1      -8.656  10.518  65.439  1.00  0.00    -0.180 A  
HETATM   19  C   UNL     1      -6.799   7.415  68.774  1.00  0.00    -0.072 A  
HETATM   20  C   UNL     1      -7.291  10.455  65.208  1.00  0.00    -0.108 A  
HETATM   21  N   UNL     1      -9.236   9.767  66.410  1.00  0.00    -0.154 NA 
HETATM   22  C   UNL     1      -8.430   8.967  67.145  1.00  0.00    -0.113 A  
HETATM   23  C   UNL     1      -6.244   8.181  67.741  1.00  0.00    -0.052 A  
HETATM   24  C   UNL     1      -7.038   8.950  66.918  1.00  0.00    -0.082 A  
HETATM   25  C   UNL     1      -8.967   8.128  68.131  1.00  0.00    -0.135 A  
HETATM   26  N   UNL     1      -6.461   9.681  65.944  1.00  0.00    -0.076 NA 
BRANCH  18  27
HETATM   27  C   UNL     1      -9.542  11.382  64.683  1.00  0.00    -0.228 A  
HETATM   28  N   UNL     1     -10.991  12.932  64.103  1.00  0.00    -0.385 NA 
HETATM   29  C   UNL     1     -10.320  12.412  65.174  1.00  0.00    -0.287 A  
HETATM   30  C   UNL     1     -11.931  14.025  64.111  1.00  0.00    -0.408 C  
HETATM   31  N   UNL     1     -10.711  12.311  62.943  1.00  0.00     0.168 NA 
HETATM   32  C   UNL     1      -9.831  11.369  63.299  1.00  0.00    -0.404 A  
ENDBRANCH  18  27
ENDBRANCH   9  17
ENDBRANCH   5   9
BRANCH   8  33
HETATM   33  O   UNL     1     -11.696   4.859  73.376  1.00  0.00    -0.265 OA 
HETATM   34  C   UNL     1     -10.552   4.281  73.985  1.00  0.00    -0.259 C  
ENDBRANCH   8  33
ENDBRANCH   2   3
TORSDOF 9
ENDMDL
MODEL      219
REMARK 921   NORMALIZED FREE ENERGY PREDICTED BY IDOCK:   -2.81 KCAL/MOL
REMARK 922        TOTAL FREE ENERGY PREDICTED BY IDOCK:   -5.46 KCAL/MOL
REMARK 923 INTER-LIGAND FREE ENERGY PREDICTED BY IDOCK:   -6.08 KCAL/MOL
REMARK 924 INTRA-LIGAND FREE ENERGY PREDICTED BY IDOCK:    0.62 KCAL/MOL
REMARK 927      BINDING AFFINITY PREDICTED BY RF-SCORE:    0.00 PKD
ROOT
HETATM    1  C   UNL     1     -12.194  10.493  71.073  1.00  0.00    -0.400 C  
HETATM    2  O   UNL     1     -12.909   9.259  71.212  1.00  0.00    -0.322 OA 
ENDROOT
BRANCH   2   3
HETATM    3  C   UNL     1     -12.099   8.161  71.390  1.00  0.00    -0.297 A  
HETATM    4  C   UNL     1     -10.840   8.185  70.746  1.00  0.00    -0.247 A  
HETATM    5  C   UNL     1      -9.865   7.190  70.953  1.00  0.00    -0.181 A  
HETATM    6  C   UNL     1     -10.308   6.123  71.756  1.00  0.00    -0.250 A  
HETATM    7  C   UNL     1     -12.482   7.061  72.148  1.00  0.00    -0.193 A  
HETATM    8  C   UNL     1     -11.584   6.030  72.327  1.00  0.00    -0.307 A  
BRANCH   5   9
HETATM    9  N   UNL     1      -8.533   7.230  70.421  1.00  0.00    -0.138 NA 
BRANCH   9  10
HETATM   10  C   UNL     1      -7.490   6.309  70.979  1.00  0.00    -0.085 C  
BRANCH  10  11
HETATM   11  C   UNL     1      -7.965   5.100  71.825  1.00  0.00    -0.111 C  
BRANCH  11  12
HETATM   12  N   UNL     1      -7.601   3.762  71.361  1.00  0.00    -0.054 NA 
HETATM   13  H   UNL     1      -7.656   3.099  72.134  1.00  0.00     0.000 HD 
BRANCH  12  14
HETATM   14  C   UNL     1      -8.362   3.259  70.218  1.00  0.00    -0.055 C  
HETATM   15  C   UNL     1      -7.501   3.019  68.975  1.00  0.00    -0.048 C  
HETATM   16  C   UNL     1      -9.010   1.939  70.646  1.00  0.00    -0.137 C  
ENDBRANCH  12  14
ENDBRANCH  11  12
ENDBRANCH  10  11
ENDBRANCH   9  10
BRANCH   9  17
HETATM   17  C   UNL     1      -7.943   8.379  69.765  1.00  0.00    -0.104 A  
HETATM   18  C   UNL     1      -8.334  12.686  67.692  1.00  0.00    -0.174 A  
HETATM   19  C   UNL     1      -6.594   8.413  69.399  1.00  0.00    -0.041 A  
HETATM   20  C   UNL     1      -7.041  12.562  67.210  1.00  0.00    -0.112 A  
HETATM   21  N   UNL     1      -8.898  11.705  68.443  1.00  0.00    -0.166 NA 
HETATM   22  C   UNL     1      -8.145  10.613  68.708  1.00  0.00    -0.139 A  
HETATM   23  C   UNL     1      -6.060   9.433  68.600  1.00  0.00    -0.044 A  
HETATM   24  C   UNL     1      -6.817  10.527  68.241  1.00  0.00    -0.068 A  
HETATM   25  C   UNL     1      -8.679   9.540  69.436  1.00  0.00    -0.166 A  
HETATM   26  N   UNL     1      -6.261  11.490  67.481  1.00  0.00    -0.066 NA 
BRANCH  18  27
HETATM   27  C   UNL     1      -9.157  13.854  67.443  1.00  0.00    -0.217 A  
HETATM   28  N   UNL     1     -10.294  15.722  67.672  1.00  0.00    -0.275 NA 
HETATM   29  C   UNL     1      -9.506  14.836  68.350  1.00  0.00    -0.213 A  
HETATM   30  C   UNL     1     -10.909  16.917  68.195  1.00  0.00    -0.351 C  
HETATM   31  N   UNL     1     -10.491  15.388  66.384  1.00  0.00    -0.295 NA 
HETATM   32  C   UNL     1      -9.799  14.252  66.248  1.00  0.00    -0.307 A  
ENDBRANCH  18  27
ENDBRANCH   9  17
ENDBRANCH   5   9
BRANCH   8  33
HETATM   33  O   UNL     1     -11.798   4.885  73.045  1.00  0.00    -0.251 OA 
HETATM   34  C   UNL     1     -10.757   4.462  73.913  1.00  0.00    -0.272 C  
ENDBRANCH   8  33
ENDBRANCH   2   3
TORSDOF 9
ENDMDL
MODEL      220
REMARK 921   NORMALIZED FREE ENERGY PREDICTED BY IDOCK:   -2.80 KCAL/MOL
REMARK 922        TOTAL FREE ENERGY PREDICTED BY IDOCK:   -5.45 KCAL/MOL
REMARK 923 INTER-LIGAND FREE ENERGY PREDICTED BY IDOCK:   -3.98 KCAL/MOL
REMARK 924 INTRA-LIGAND FREE ENERGY PREDICTED BY IDOCK:   -1.47 KCAL/MOL
REMARK 927      BINDING AFFINITY PREDICTED BY RF-SCORE:    0.00 PKD
ROOT
HETATM    1  C   UNL     1     -11.367   4.642  73.356  1.00  0.00    -0.305 C  
HETATM    2  O   UNL     1     -11.217   5.513  72.227  1.00  0.00    -0.257 OA 
ENDROOT
BRANCH   2   3
HETATM    3  C   UNL     1      -9.920   5.640  71.788  1.00  0.00    -0.176 A  
HETATM    4  C   UNL     1      -9.644   5.197  70.474  1.00  0.00    -0.244 A  
HETATM    5  C   UNL     1      -8.393   5.392  69.857  1.00  0.00    -0.100 A  
HETATM    6  C   UNL     1      -7.424   5.953  70.708  1.00  0.00    -0.091 A  
HETATM    7  C   UNL     1      -8.906   6.161  72.584  1.00  0.00    -0.123 A  
HETATM    8  C   UNL     1      -7.646   6.312  72.043  1.00  0.00    -0.096 A  
BRANCH   5   9
HETATM    9  N   UNL     1      -8.100   5.071  68.488  1.00  0.00    -0.085 NA 
BRANCH   9  10
HETATM   10  C   UNL     1      -7.603   3.699  68.146  1.00  0.00    -0.061 C  
BRANCH  10  11
HETATM   11  C   UNL     1      -8.592   2.715  67.471  1.00  0.00    -0.103 C  
BRANCH  11  12
HETATM   12  N   UNL     1      -8.216   2.159  66.171  1.00  0.00    -0.085 NA 
HETATM   13  H   UNL     1      -8.939   1.517  65.845  1.00  0.00     0.000 HD 
BRANCH  12  14
HETATM   14  C   UNL     1      -7.910   3.138  65.129  1.00  0.00    -0.082 C  
HETATM   15  C   UNL     1      -6.550   2.912  64.465  1.00  0.00    -0.035 C  
HETATM   16  C   UNL     1      -9.012   3.035  64.069  1.00  0.00    -0.102 C  
ENDBRANCH  12  14
ENDBRANCH  11  12
ENDBRANCH  10  11
ENDBRANCH   9  10
BRANCH   9  17
HETATM   17  C   UNL     1      -7.750   6.041  67.471  1.00  0.00    -0.097 A  
HETATM   18  C   UNL     1      -8.845   9.811  64.716  1.00  0.00    -0.207 A  
HETATM   19  C   UNL     1      -6.548   5.971  66.761  1.00  0.00    -0.056 A  
HETATM   20  C   UNL     1      -7.721   9.562  63.945  1.00  0.00    -0.123 A  
HETATM   21  N   UNL     1      -9.151   9.024  65.780  1.00  0.00    -0.205 NA 
HETATM   22  C   UNL     1      -8.313   8.000  66.060  1.00  0.00    -0.126 A  
HETATM   23  C   UNL     1      -6.286   6.786  65.652  1.00  0.00    -0.039 A  
HETATM   24  C   UNL     1      -7.153   7.791  65.284  1.00  0.00    -0.060 A  
HETATM   25  C   UNL     1      -8.593   7.118  67.113  1.00  0.00    -0.121 A  
HETATM   26  N   UNL     1      -6.856   8.559  64.219  1.00  0.00    -0.074 NA 
BRANCH  18  27
HETATM   27  C   UNL     1      -9.750  10.913  64.454  1.00  0.00    -0.342 A  
HETATM   28  N   UNL     1     -11.545  12.126  64.071  1.00  0.00    -0.391 NA 
HETATM   29  C   UNL     1     -11.123  10.850  64.319  1.00  0.00     0.260 A  
HETATM   30  C   UNL     1     -12.899  12.569  63.852  1.00  0.00    -0.214 C  
HETATM   31  N   UNL     1     -10.542  13.022  64.029  1.00  0.00    -0.397 NA 
HETATM   32  C   UNL     1      -9.453  12.282  64.262  1.00  0.00     0.255 A  
ENDBRANCH  18  27
ENDBRANCH   9  17
ENDBRANCH   5   9
BRANCH   8  33
HETATM   33  O   UNL     1      -6.545   6.811  72.683  1.00  0.00    -0.061 OA 
HETATM   34  C   UNL     1      -5.441   7.187  71.874  1.00  0.00    -0.036 C  
ENDBRANCH   8  33
ENDBRANCH   2   3
TORSDOF 9
ENDMDL
MODEL      221
REMARK 921   NORMALIZED FREE ENERGY PREDICTED BY IDOCK:   -2.80 KCAL/MOL
REMARK 922        TOTAL FREE ENERGY PREDICTED BY IDOCK:   -5.45 KCAL/MOL
REMARK 923 INTER-LIGAND FREE ENERGY PREDICTED BY IDOCK:   -4.79 KCAL/MOL
REMARK 924 INTRA-LIGAND FREE ENERGY PREDICTED BY IDOCK:   -0.66 KCAL/MOL
REMARK 927      BINDING AFFINITY PREDICTED BY RF-SCORE:    0.00 PKD
ROOT
HETATM    1  C   UNL     1     -11.390  12.631  63.016  1.00  0.00     0.253 C  
HETATM    2  O   UNL     1     -10.180  12.814  63.761  1.00  0.00    -0.378 OA 
ENDROOT
BRANCH   2   3
HETATM    3  C   UNL     1      -9.463  11.656  63.955  1.00  0.00    -0.050 A  
HETATM    4  C   UNL     1      -8.676  11.582  65.127  1.00  0.00     0.287 A  
HETATM    5  C   UNL     1      -8.002  10.406  65.513  1.00  0.00    -0.153 A  
HETATM    6  C   UNL     1      -8.089   9.369  64.567  1.00  0.00    -0.136 A  
HETATM    7  C   UNL     1      -9.482  10.601  63.050  1.00  0.00    -0.363 A  
HETATM    8  C   UNL     1      -8.784   9.451  63.353  1.00  0.00    -0.204 A  
BRANCH   5   9
HETATM    9  N   UNL     1      -7.292  10.242  66.749  1.00  0.00    -0.103 NA 
BRANCH   9  10
HETATM   10  C   UNL     1      -7.133   8.868  67.328  1.00  0.00    -0.083 C  
BRANCH  10  11
HETATM   11  C   UNL     1      -8.387   8.180  67.924  1.00  0.00    -0.129 C  
BRANCH  11  12
HETATM   12  N   UNL     1      -8.244   7.509  69.216  1.00  0.00    -0.129 NA 
HETATM   13  H   UNL     1      -7.293   7.626  69.566  1.00  0.00     0.000 HD 
BRANCH  12  14
HETATM   14  C   UNL     1      -9.206   7.903  70.244  1.00  0.00    -0.152 C  
HETATM   15  C   UNL     1      -8.603   8.801  71.328  1.00  0.00    -0.258 C  
HETATM   16  C   UNL     1     -10.343   8.652  69.543  1.00  0.00    -0.214 C  
ENDBRANCH  12  14
ENDBRANCH  11  12
ENDBRANCH  10  11
ENDBRANCH   9  10
BRANCH   9  17
HETATM   17  C   UNL     1      -7.142  11.272  67.756  1.00  0.00    -0.087 A  
HETATM   18  C   UNL     1      -7.335  15.867  69.117  1.00  0.00    -0.198 A  
HETATM   19  C   UNL     1      -6.621  11.001  69.024  1.00  0.00    -0.065 A  
HETATM   20  C   UNL     1      -6.650  15.543  70.277  1.00  0.00     0.085 A  
HETATM   21  N   UNL     1      -7.640  14.916  68.196  1.00  0.00    -0.106 NA 
HETATM   22  C   UNL     1      -7.259  13.646  68.462  1.00  0.00    -0.109 A  
HETATM   23  C   UNL     1      -6.296  12.015  69.933  1.00  0.00    -0.089 A  
HETATM   24  C   UNL     1      -6.597  13.334  69.668  1.00  0.00     0.002 A  
HETATM   25  C   UNL     1      -7.497  12.622  67.534  1.00  0.00    -0.155 A  
HETATM   26  N   UNL     1      -6.278  14.276  70.575  1.00  0.00    -0.179 NA 
BRANCH  18  27
HETATM   27  C   UNL     1      -7.777  17.215  68.816  1.00  0.00    -0.259 A  
HETATM   28  N   UNL     1      -8.982  18.962  68.239  1.00  0.00    -0.316 NA 
HETATM   29  C   UNL     1      -9.039  17.608  68.415  1.00  0.00    -0.277 A  
HETATM   30  C   UNL     1     -10.053  19.831  67.818  1.00  0.00    -0.419 C  
HETATM   31  N   UNL     1      -7.769  19.484  68.491  1.00  0.00    -0.346 NA 
HETATM   32  C   UNL     1      -7.038  18.420  68.841  1.00  0.00    -0.276 A  
ENDBRANCH  18  27
ENDBRANCH   9  17
ENDBRANCH   5   9
BRANCH   8  33
HETATM   33  O   UNL     1      -8.703   8.325  62.580  1.00  0.00    -0.060 OA 
HETATM   34  C   UNL     1      -7.774   7.329  62.982  1.00  0.00    -0.124 C  
ENDBRANCH   8  33
ENDBRANCH   2   3
TORSDOF 9
ENDMDL
MODEL      222
REMARK 921   NORMALIZED FREE ENERGY PREDICTED BY IDOCK:   -2.53 KCAL/MOL
REMARK 922        TOTAL FREE ENERGY PREDICTED BY IDOCK:   -5.04 KCAL/MOL
REMARK 923 INTER-LIGAND FREE ENERGY PREDICTED BY IDOCK:   -4.06 KCAL/MOL
REMARK 924 INTRA-LIGAND FREE ENERGY PREDICTED BY IDOCK:   -0.98 KCAL/MOL
REMARK 927      BINDING AFFINITY PREDICTED BY RF-SCORE:    0.00 PKD
ROOT
HETATM    1  C   UNL     1      -6.257  16.772  70.433  1.00  0.00     0.346 C  
HETATM    2  O   UNL     1      -7.489  16.238  69.932  1.00  0.00     0.132 OA 
ENDROOT
BRANCH   2   3
HETATM    3  C   UNL     1      -7.418  14.913  69.571  1.00  0.00    -0.162 A  
HETATM    4  C   UNL     1      -8.578  14.345  68.996  1.00  0.00     0.005 A  
HETATM    5  C   UNL     1      -8.597  13.041  68.461  1.00  0.00    -0.049 A  
HETATM    6  C   UNL     1      -7.401  12.329  68.666  1.00  0.00    -0.106 A  
HETATM    7  C   UNL     1      -6.278  14.142  69.767  1.00  0.00    -0.138 A  
HETATM    8  C   UNL     1      -6.271  12.838  69.318  1.00  0.00    -0.105 A  
BRANCH   5   9
HETATM    9  N   UNL     1      -9.708  12.463  67.761  1.00  0.00    -0.195 NA 
BRANCH   9  10
HETATM   10  C   UNL     1     -10.860  11.907  68.542  1.00  0.00    -0.221 C  
BRANCH  10  11
HETATM   11  C   UNL     1     -11.081  10.373  68.521  1.00  0.00    -0.266 C  
BRANCH  11  12
HETATM   12  N   UNL     1     -10.201   9.549  69.349  1.00  0.00    -0.195 NA 
HETATM   13  H   UNL     1     -10.235   9.868  70.318  1.00  0.00     0.000 HD 
BRANCH  12  14
HETATM   14  C   UNL     1     -10.441   8.108  69.289  1.00  0.00    -0.214 C  
HETATM   15  C   UNL     1     -10.273   7.523  67.885  1.00  0.00    -0.245 C  
HETATM   16  C   UNL     1      -9.440   7.440  70.238  1.00  0.00    -0.165 C  
ENDBRANCH  12  14
ENDBRANCH  11  12
ENDBRANCH  10  11
ENDBRANCH   9  10
BRANCH   9  17
HETATM   17  C   UNL     1      -9.639  11.901  66.427  1.00  0.00    -0.225 A  
HETATM   18  C   UNL     1      -8.323   8.417  63.406  1.00  0.00    -0.064 A  
HETATM   19  C   UNL     1     -10.054  12.615  65.299  1.00  0.00    -0.271 A  
HETATM   20  C   UNL     1      -8.588   9.256  62.336  1.00  0.00    -0.219 A  
HETATM   21  N   UNL     1      -8.509   8.834  64.685  1.00  0.00    -0.169 NA 
HETATM   22  C   UNL     1      -8.972  10.091  64.870  1.00  0.00    -0.205 A  
HETATM   23  C   UNL     1      -9.817  12.159  63.996  1.00  0.00    -0.217 A  
HETATM   24  C   UNL     1      -9.273  10.914  63.764  1.00  0.00    -0.215 A  
HETATM   25  C   UNL     1      -9.142  10.605  66.164  1.00  0.00    -0.190 A  
HETATM   26  N   UNL     1      -9.073  10.510  62.495  1.00  0.00    -0.262 NA 
BRANCH  18  27
HETATM   27  C   UNL     1      -7.847   7.058  63.239  1.00  0.00    -0.110 A  
HETATM   28  N   UNL     1      -7.535   4.890  63.445  1.00  0.00    -0.053 NA 
HETATM   29  C   UNL     1      -8.266   5.938  63.932  1.00  0.00    -0.056 A  
HETATM   30  C   UNL     1      -7.608   3.511  63.859  1.00  0.00    -0.074 C  
HETATM   31  N   UNL     1      -6.662   5.245  62.485  1.00  0.00    -0.025 NA 
HETATM   32  C   UNL     1      -6.854   6.563  62.363  1.00  0.00    -0.039 A  
ENDBRANCH  18  27
ENDBRANCH   9  17
ENDBRANCH   5   9
BRANCH   8  33
HETATM   33  O   UNL     1      -5.235  11.950  69.425  1.00  0.00    -0.056 OA 
HETATM   34  C   UNL     1      -5.570  10.576  69.549  1.00  0.00    -0.038 C  
ENDBRANCH   8  33
ENDBRANCH   2   3
TORSDOF 9
ENDMDL
MODEL      223
REMARK 921   NORMALIZED FREE ENERGY PREDICTED BY IDOCK:   -2.38 KCAL/MOL
REMARK 922        TOTAL FREE ENERGY PREDICTED BY IDOCK:   -4.80 KCAL/MOL
REMARK 923 INTER-LIGAND FREE ENERGY PREDICTED BY IDOCK:   -5.76 KCAL/MOL
REMARK 924 INTRA-LIGAND FREE ENERGY PREDICTED BY IDOCK:    0.96 KCAL/MOL
REMARK 927      BINDING AFFINITY PREDICTED BY RF-SCORE:    0.00 PKD
ROOT
HETATM    1  C   UNL     1     -10.806  20.335  68.119  1.00  0.00     0.311 C  
HETATM    2  O   UNL     1     -10.893  19.239  67.200  1.00  0.00    -0.475 OA 
ENDROOT
BRANCH   2   3
HETATM    3  C   UNL     1      -9.705  18.570  67.015  1.00  0.00    -0.310 A  
HETATM    4  C   UNL     1      -9.480  17.432  67.823  1.00  0.00    -0.261 A  
HETATM    5  C   UNL     1      -8.370  16.583  67.643  1.00  0.00    -0.165 A  
HETATM    6  C   UNL     1      -7.458  17.042  66.675  1.00  0.00    -0.300 A  
HETATM    7  C   UNL     1      -8.747  18.982  66.095  1.00  0.00    -0.197 A  
HETATM    8  C   UNL     1      -7.612  18.217  65.929  1.00  0.00    -0.129 A  
BRANCH   5   9
HETATM    9  N   UNL     1      -8.161  15.354  68.354  1.00  0.00    -0.135 NA 
BRANCH   9  10
HETATM   10  C   UNL     1      -6.762  14.908  68.654  1.00  0.00    -0.094 C  
BRANCH  10  11
HETATM   11  C   UNL     1      -6.199  13.698  67.865  1.00  0.00    -0.155 C  
BRANCH  11  12
HETATM   12  N   UNL     1      -5.635  12.589  68.633  1.00  0.00    -0.054 NA 
HETATM   13  H   UNL     1      -4.617  12.650  68.636  1.00  0.00     0.000 HD 
BRANCH  12  14
HETATM   14  C   UNL     1      -6.130  12.450  70.002  1.00  0.00    -0.123 C  
HETATM   15  C   UNL     1      -6.027  11.021  70.543  1.00  0.00    -0.116 C  
HETATM   16  C   UNL     1      -5.299  13.386  70.886  1.00  0.00    -0.163 C  
ENDBRANCH  12  14
ENDBRANCH  11  12
ENDBRANCH  10  11
ENDBRANCH   9  10
BRANCH   9  17
HETATM   17  C   UNL     1      -9.097  14.249  68.382  1.00  0.00    -0.194 A  
HETATM   18  C   UNL     1     -10.043   9.559  68.724  1.00  0.00    -0.188 A  
HETATM   19  C   UNL     1     -10.461  14.426  68.135  1.00  0.00    -0.237 A  
HETATM   20  C   UNL     1     -11.339   9.799  68.295  1.00  0.00     0.102 A  
HETATM   21  N   UNL     1      -9.153  10.577  68.862  1.00  0.00    -0.169 NA 
HETATM   22  C   UNL     1      -9.585  11.826  68.576  1.00  0.00    -0.170 A  
HETATM   23  C   UNL     1     -11.339  13.346  67.973  1.00  0.00    -0.320 A  
HETATM   24  C   UNL     1     -10.920  12.049  68.179  1.00  0.00    -0.230 A  
HETATM   25  C   UNL     1      -8.707  12.917  68.649  1.00  0.00     0.060 A  
HETATM   26  N   UNL     1     -11.800  11.042  68.024  1.00  0.00    -0.613 NA 
BRANCH  18  27
HETATM   27  C   UNL     1      -9.558   8.235  69.060  1.00  0.00    -0.156 A  
HETATM   28  N   UNL     1      -8.344   6.555  69.796  1.00  0.00    -0.126 NA 
HETATM   29  C   UNL     1      -8.381   7.919  69.711  1.00  0.00    -0.127 A  
HETATM   30  C   UNL     1      -7.307   5.748  70.389  1.00  0.00    -0.080 C  
HETATM   31  N   UNL     1      -9.412   5.954  69.242  1.00  0.00    -0.127 NA 
HETATM   32  C   UNL     1     -10.148   6.977  68.795  1.00  0.00    -0.170 A  
ENDBRANCH  18  27
ENDBRANCH   9  17
ENDBRANCH   5   9
BRANCH   8  33
HETATM   33  O   UNL     1      -6.581  18.476  65.067  1.00  0.00    -0.497 OA 
HETATM   34  C   UNL     1      -5.285  18.615  65.632  1.00  0.00    -0.153 C  
ENDBRANCH   8  33
ENDBRANCH   2   3
TORSDOF 9
ENDMDL
MODEL      224
REMARK 921   NORMALIZED FREE ENERGY PREDICTED BY IDOCK:   -2.22 KCAL/MOL
REMARK 922        TOTAL FREE ENERGY PREDICTED BY IDOCK:   -4.56 KCAL/MOL
REMARK 923 INTER-LIGAND FREE ENERGY PREDICTED BY IDOCK:   -4.34 KCAL/MOL
REMARK 924 INTRA-LIGAND FREE ENERGY PREDICTED BY IDOCK:   -0.23 KCAL/MOL
REMARK 927      BINDING AFFINITY PREDICTED BY RF-SCORE:    0.00 PKD
ROOT
HETATM    1  C   UNL     1      -6.111  15.985  70.373  1.00  0.00     0.055 C  
HETATM    2  O   UNL     1      -7.350  15.413  69.936  1.00  0.00    -0.160 OA 
ENDROOT
BRANCH   2   3
HETATM    3  C   UNL     1      -7.284  14.063  69.683  1.00  0.00     0.169 A  
HETATM    4  C   UNL     1      -8.409  13.473  69.063  1.00  0.00     0.310 A  
HETATM    5  C   UNL     1      -8.418  12.132  68.629  1.00  0.00    -0.005 A  
HETATM    6  C   UNL     1      -7.259  11.416  68.981  1.00  0.00    -0.118 A  
HETATM    7  C   UNL     1      -6.181  13.288  70.027  1.00  0.00    -0.079 A  
HETATM    8  C   UNL     1      -6.171  11.953  69.680  1.00  0.00    -0.129 A  
BRANCH   5   9
HETATM    9  N   UNL     1      -9.485  11.522  67.888  1.00  0.00    -0.172 NA 
BRANCH   9  10
HETATM   10  C   UNL     1     -10.667  10.968  68.624  1.00  0.00    -0.198 C  
BRANCH  10  11
HETATM   11  C   UNL     1     -11.640  11.969  69.298  1.00  0.00    -0.321 C  
BRANCH  11  12
HETATM   12  N   UNL     1     -11.133  13.305  69.606  1.00  0.00    -0.466 NA 
HETATM   13  H   UNL     1     -10.376  13.546  68.966  1.00  0.00     0.000 HD 
BRANCH  12  14
HETATM   14  C   UNL     1     -12.131  14.373  69.622  1.00  0.00    -0.334 C  
HETATM   15  C   UNL     1     -12.372  14.959  71.016  1.00  0.00    -0.388 C  
HETATM   16  C   UNL     1     -11.631  15.481  68.689  1.00  0.00    -0.379 C  
ENDBRANCH  12  14
ENDBRANCH  11  12
ENDBRANCH  10  11
ENDBRANCH   9  10
BRANCH   9  17
HETATM   17  C   UNL     1      -9.342  10.932  66.573  1.00  0.00    -0.173 A  
HETATM   18  C   UNL     1      -8.122   7.267  63.730  1.00  0.00    -0.011 A  
HETATM   19  C   UNL     1      -9.555  11.666  65.402  1.00  0.00    -0.228 A  
HETATM   20  C   UNL     1      -8.180   8.111  62.632  1.00  0.00    -0.142 A  
HETATM   21  N   UNL     1      -8.392   7.726  64.980  1.00  0.00    -0.123 NA 
HETATM   22  C   UNL     1      -8.727   9.030  65.106  1.00  0.00    -0.189 A  
HETATM   23  C   UNL     1      -9.238  11.162  64.135  1.00  0.00    -0.121 A  
HETATM   24  C   UNL     1      -8.817   9.861  63.969  1.00  0.00    -0.228 A  
HETATM   25  C   UNL     1      -8.970   9.583  66.371  1.00  0.00    -0.182 A  
HETATM   26  N   UNL     1      -8.534   9.414  62.731  1.00  0.00    -0.186 NA 
BRANCH  18  27
HETATM   27  C   UNL     1      -7.789   5.861  63.623  1.00  0.00    -0.104 A  
HETATM   28  N   UNL     1      -7.777   3.729  63.082  1.00  0.00    -0.062 NA 
HETATM   29  C   UNL     1      -8.433   4.907  62.858  1.00  0.00    -0.118 A  
HETATM   30  C   UNL     1      -8.083   2.441  62.511  1.00  0.00    -0.068 C  
HETATM   31  N   UNL     1      -6.751   3.841  63.944  1.00  0.00    -0.042 NA 
HETATM   32  C   UNL     1      -6.760   5.138  64.271  1.00  0.00    -0.047 A  
ENDBRANCH  18  27
ENDBRANCH   9  17
ENDBRANCH   5   9
BRANCH   8  33
HETATM   33  O   UNL     1      -5.168  11.058  69.935  1.00  0.00    -0.041 OA 
HETATM   34  C   UNL     1      -5.510   9.899  70.679  1.00  0.00    -0.056 C  
ENDBRANCH   8  33
ENDBRANCH   2   3
TORSDOF 9
ENDMDL
MODEL      225
REMARK 921   NORMALIZED FREE ENERGY PREDICTED BY IDOCK:   -1.85 KCAL/MOL
REMARK 922        TOTAL FREE ENERGY PREDICTED BY IDOCK:   -3.99 KCAL/MOL
REMARK 923 INTER-LIGAND FREE ENERGY PREDICTED BY IDOCK:   -4.33 KCAL/MOL
REMARK 924 INTRA-LIGAND FREE ENERGY PREDICTED BY IDOCK:    0.33 KCAL/MOL
REMARK 927      BINDING AFFINITY PREDICTED BY RF-SCORE:    0.00 PKD
ROOT
HETATM    1  C   UNL     1      -7.961  19.257  66.532  1.00  0.00    -0.294 C  
HETATM    2  O   UNL     1      -8.536  17.962  66.315  1.00  0.00    -0.378 OA 
ENDROOT
BRANCH   2   3
HETATM    3  C   UNL     1      -7.918  16.953  67.015  1.00  0.00    -0.196 A  
HETATM    4  C   UNL     1      -8.338  15.632  66.735  1.00  0.00    -0.313 A  
HETATM    5  C   UNL     1      -7.697  14.502  67.281  1.00  0.00    -0.149 A  
HETATM    6  C   UNL     1      -6.692  14.818  68.214  1.00  0.00    -0.114 A  
HETATM    7  C   UNL     1      -6.935  17.193  67.969  1.00  0.00    -0.175 A  
HETATM    8  C   UNL     1      -6.323  16.118  68.579  1.00  0.00    -0.116 A  
BRANCH   5   9
HETATM    9  N   UNL     1      -8.006  13.144  66.937  1.00  0.00     0.031 NA 
BRANCH   9  10
HETATM   10  C   UNL     1      -9.307  12.835  66.259  1.00  0.00    -0.152 C  
BRANCH  10  11
HETATM   11  C   UNL     1     -10.617  13.080  67.051  1.00  0.00    -0.257 C  
BRANCH  11  12
HETATM   12  N   UNL     1     -10.813  14.401  67.647  1.00  0.00    -0.269 NA 
HETATM   13  H   UNL     1     -11.521  14.917  67.124  1.00  0.00     0.000 HD 
BRANCH  12  14
HETATM   14  C   UNL     1     -11.140  14.412  69.072  1.00  0.00    -0.261 C  
HETATM   15  C   UNL     1     -11.811  13.122  69.550  1.00  0.00    -0.383 C  
HETATM   16  C   UNL     1      -9.829  14.613  69.839  1.00  0.00     0.360 C  
ENDBRANCH  12  14
ENDBRANCH  11  12
ENDBRANCH  10  11
ENDBRANCH   9  10
BRANCH   9  17
HETATM   17  C   UNL     1      -7.454  11.980  67.599  1.00  0.00    -0.132 A  
HETATM   18  C   UNL     1      -7.195   7.230  68.211  1.00  0.00    -0.094 A  
HETATM   19  C   UNL     1      -6.587  12.088  68.690  1.00  0.00    -0.075 A  
HETATM   20  C   UNL     1      -6.490   7.429  69.387  1.00  0.00    -0.036 A  
HETATM   21  N   UNL     1      -7.615   8.282  67.461  1.00  0.00    -0.097 NA 
HETATM   22  C   UNL     1      -7.310   9.523  67.902  1.00  0.00    -0.083 A  
HETATM   23  C   UNL     1      -6.200  10.979  69.452  1.00  0.00    -0.071 A  
HETATM   24  C   UNL     1      -6.556   9.700  69.082  1.00  0.00    -0.049 A  
HETATM   25  C   UNL     1      -7.754  10.656  67.205  1.00  0.00    -0.110 A  
HETATM   26  N   UNL     1      -6.153   8.660  69.837  1.00  0.00    -0.034 NA 
BRANCH  18  27
HETATM   27  C   UNL     1      -7.518   5.912  67.702  1.00  0.00    -0.078 A  
HETATM   28  N   UNL     1      -8.149   3.812  67.528  1.00  0.00    -0.089 NA 
HETATM   29  C   UNL     1      -8.010   4.838  68.419  1.00  0.00    -0.084 A  
HETATM   30  C   UNL     1      -8.625   2.479  67.802  1.00  0.00    -0.096 C  
HETATM   31  N   UNL     1      -7.778   4.135  66.275  1.00  0.00    -0.089 NA 
HETATM   32  C   UNL     1      -7.395   5.412  66.385  1.00  0.00    -0.082 A  
ENDBRANCH  18  27
ENDBRANCH   9  17
ENDBRANCH   5   9
BRANCH   8  33
HETATM   33  O   UNL     1      -5.339  16.179  69.528  1.00  0.00    -0.110 OA 
HETATM   34  C   UNL     1      -5.297  17.340  70.343  1.00  0.00    -0.253 C  
ENDBRANCH   8  33
ENDBRANCH   2   3
TORSDOF 9
ENDMDL
MODEL      226
REMARK 921   NORMALIZED FREE ENERGY PREDICTED BY IDOCK:   -1.54 KCAL/MOL
REMARK 922        TOTAL FREE ENERGY PREDICTED BY IDOCK:   -3.52 KCAL/MOL
REMARK 923 INTER-LIGAND FREE ENERGY PREDICTED BY IDOCK:   -2.55 KCAL/MOL
REMARK 924 INTRA-LIGAND FREE ENERGY PREDICTED BY IDOCK:   -0.97 KCAL/MOL
REMARK 927      BINDING AFFINITY PREDICTED BY RF-SCORE:    0.00 PKD
ROOT
HETATM    1  C   UNL     1     -10.642   8.034  66.416  1.00  0.00     0.473 C  
HETATM    2  O   UNL     1      -9.399   7.448  66.823  1.00  0.00    -0.146 OA 
ENDROOT
BRANCH   2   3
HETATM    3  C   UNL     1      -8.327   8.308  66.755  1.00  0.00    -0.107 A  
HETATM    4  C   UNL     1      -7.889   8.878  67.972  1.00  0.00    -0.102 A  
HETATM    5  C   UNL     1      -6.724   9.667  68.062  1.00  0.00    -0.062 A  
HETATM    6  C   UNL     1      -6.120   9.926  66.818  1.00  0.00    -0.060 A  
HETATM    7  C   UNL     1      -7.698   8.630  65.558  1.00  0.00    -0.092 A  
HETATM    8  C   UNL     1      -6.590   9.451  65.588  1.00  0.00    -0.070 A  
BRANCH   5   9
HETATM    9  N   UNL     1      -6.171  10.167  69.288  1.00  0.00    -0.044 NA 
BRANCH   9  10
HETATM   10  C   UNL     1      -5.126  11.240  69.239  1.00  0.00    -0.044 C  
BRANCH  10  11
HETATM   11  C   UNL     1      -5.578  12.680  68.883  1.00  0.00    -0.063 C  
BRANCH  11  12
HETATM   12  N   UNL     1      -6.803  13.181  69.505  1.00  0.00    -0.321 NA 
HETATM   13  H   UNL     1      -6.570  13.814  70.271  1.00  0.00     0.000 HD 
BRANCH  12  14
HETATM   14  C   UNL     1      -7.757  13.821  68.601  1.00  0.00    -0.120 C  
HETATM   15  C   UNL     1      -7.089  14.614  67.475  1.00  0.00    -0.203 C  
HETATM   16  C   UNL     1      -8.624  12.713  67.994  1.00  0.00    -0.189 C  
ENDBRANCH  12  14
ENDBRANCH  11  12
ENDBRANCH  10  11
ENDBRANCH   9  10
BRANCH   9  17
HETATM   17  C   UNL     1      -6.128   9.429  70.534  1.00  0.00    -0.059 A  
HETATM   18  C   UNL     1      -7.465   5.714  73.257  1.00  0.00    -0.096 A  
HETATM   19  C   UNL     1      -5.469   9.919  71.665  1.00  0.00    -0.039 A  
HETATM   20  C   UNL     1      -6.943   6.354  74.370  1.00  0.00    -0.089 A  
HETATM   21  N   UNL     1      -7.404   6.289  72.028  1.00  0.00    -0.091 NA 
HETATM   22  C   UNL     1      -6.807   7.499  71.934  1.00  0.00    -0.061 A  
HETATM   23  C   UNL     1      -5.581   9.308  72.920  1.00  0.00    -0.011 A  
HETATM   24  C   UNL     1      -6.248   8.113  73.075  1.00  0.00    -0.079 A  
HETATM   25  C   UNL     1      -6.752   8.172  70.705  1.00  0.00    -0.037 A  
HETATM   26  N   UNL     1      -6.322   7.554  74.298  1.00  0.00    -0.080 NA 
BRANCH  18  27
HETATM   27  C   UNL     1      -8.089   4.407  73.322  1.00  0.00    -0.095 A  
HETATM   28  N   UNL     1      -9.267   2.605  72.870  1.00  0.00    -0.084 NA 
HETATM   29  C   UNL     1      -8.912   3.829  72.375  1.00  0.00    -0.104 A  
HETATM   30  C   UNL     1     -10.123   1.628  72.246  1.00  0.00    -0.148 C  
HETATM   31  N   UNL     1      -8.738   2.343  74.079  1.00  0.00    -0.070 NA 
HETATM   32  C   UNL     1      -8.023   3.439  74.351  1.00  0.00    -0.069 A  
ENDBRANCH  18  27
ENDBRANCH   9  17
ENDBRANCH   5   9
BRANCH   8  33
HETATM   33  O   UNL     1      -5.855   9.858  64.508  1.00  0.00    -0.083 OA 
HETATM   34  C   UNL     1      -6.411   9.629  63.222  1.00  0.00    -0.110 C  
ENDBRANCH   8  33
ENDBRANCH   2   3
TORSDOF 9
ENDMDL
MODEL      227
REMARK 921   NORMALIZED FREE ENERGY PREDICTED BY IDOCK:   -1.48 KCAL/MOL
REMARK 922        TOTAL FREE ENERGY PREDICTED BY IDOCK:   -3.43 KCAL/MOL
REMARK 923 INTER-LIGAND FREE ENERGY PREDICTED BY IDOCK:   -3.78 KCAL/MOL
REMARK 924 INTRA-LIGAND FREE ENERGY PREDICTED BY IDOCK:    0.36 KCAL/MOL
REMARK 927      BINDING AFFINITY PREDICTED BY RF-SCORE:    0.00 PKD
ROOT
HETATM    1  C   UNL     1     -12.564  12.975  65.327  1.00  0.00    -0.457 C  
HETATM    2  O   UNL     1     -11.629  14.046  65.507  1.00  0.00    -0.318 OA 
ENDROOT
BRANCH   2   3
HETATM    3  C   UNL     1     -10.440  13.660  66.080  1.00  0.00    -0.300 A  
HETATM    4  C   UNL     1     -10.313  12.296  66.428  1.00  0.00    -0.250 A  
HETATM    5  C   UNL     1      -9.104  11.744  66.897  1.00  0.00    -0.192 A  
HETATM    6  C   UNL     1      -8.088  12.697  67.098  1.00  0.00    -0.141 A  
HETATM    7  C   UNL     1      -9.403  14.552  66.332  1.00  0.00    -0.300 A  
HETATM    8  C   UNL     1      -8.221  14.069  66.852  1.00  0.00     0.057 A  
BRANCH   5   9
HETATM    9  N   UNL     1      -8.888  10.347  67.147  1.00  0.00    -0.136 NA 
BRANCH   9  10
HETATM   10  C   UNL     1      -9.456   9.335  66.200  1.00  0.00    -0.236 C  
BRANCH  10  11
HETATM   11  C   UNL     1      -9.665   9.757  64.723  1.00  0.00    -0.143 C  
BRANCH  11  12
HETATM   12  N   UNL     1      -8.481  10.122  63.947  1.00  0.00    -0.171 NA 
HETATM   13  H   UNL     1      -8.181  11.066  64.192  1.00  0.00     0.000 HD 
BRANCH  12  14
HETATM   14  C   UNL     1      -7.351   9.200  64.042  1.00  0.00    -0.100 C  
HETATM   15  C   UNL     1      -6.642   9.246  65.398  1.00  0.00    -0.069 C  
HETATM   16  C   UNL     1      -7.894   7.787  63.805  1.00  0.00    -0.132 C  
ENDBRANCH  12  14
ENDBRANCH  11  12
ENDBRANCH  10  11
ENDBRANCH   9  10
BRANCH   9  17
HETATM   17  C   UNL     1      -8.623   9.776  68.452  1.00  0.00    -0.119 A  
HETATM   18  C   UNL     1      -9.891   7.006  72.156  1.00  0.00    -0.154 A  
HETATM   19  C   UNL     1      -7.513  10.152  69.215  1.00  0.00    -0.111 A  
HETATM   20  C   UNL     1      -8.872   7.565  72.911  1.00  0.00    -0.143 A  
HETATM   21  N   UNL     1     -10.101   7.392  70.870  1.00  0.00    -0.189 NA 
HETATM   22  C   UNL     1      -9.273   8.331  70.358  1.00  0.00    -0.151 A  
HETATM   23  C   UNL     1      -7.350   9.751  70.547  1.00  0.00    -0.126 A  
HETATM   24  C   UNL     1      -8.218   8.856  71.133  1.00  0.00    -0.173 A  
HETATM   25  C   UNL     1      -9.462   8.812  69.055  1.00  0.00    -0.160 A  
HETATM   26  N   UNL     1      -8.017   8.488  72.413  1.00  0.00    -0.314 NA 
BRANCH  18  27
HETATM   27  C   UNL     1     -10.780   5.983  72.670  1.00  0.00    -0.266 A  
HETATM   28  N   UNL     1     -11.587   4.155  73.590  1.00  0.00    -0.126 NA 
HETATM   29  C   UNL     1     -10.421   4.801  73.289  1.00  0.00    -0.202 A  
HETATM   30  C   UNL     1     -11.731   2.876  74.239  1.00  0.00     1.004 C  
HETATM   31  N   UNL     1     -12.687   4.829  73.207  1.00  0.00     0.565 NA 
HETATM   32  C   UNL     1     -12.194   5.939  72.648  1.00  0.00     0.092 A  
ENDBRANCH  18  27
ENDBRANCH   9  17
ENDBRANCH   5   9
BRANCH   8  33
HETATM   33  O   UNL     1      -7.107  14.805  67.150  1.00  0.00    -0.192 OA 
HETATM   34  C   UNL     1      -7.297  15.981  67.923  1.00  0.00    -0.131 C  
ENDBRANCH   8  33
ENDBRANCH   2   3
TORSDOF 9
ENDMDL
MODEL      228
REMARK 921   NORMALIZED FREE ENERGY PREDICTED BY IDOCK:   -1.26 KCAL/MOL
REMARK 922        TOTAL FREE ENERGY PREDICTED BY IDOCK:   -3.09 KCAL/MOL
REMARK 923 INTER-LIGAND FREE ENERGY PREDICTED BY IDOCK:   -2.25 KCAL/MOL
REMARK 924 INTRA-LIGAND FREE ENERGY PREDICTED BY IDOCK:   -0.85 KCAL/MOL
REMARK 927      BINDING AFFINITY PREDICTED BY RF-SCORE:    0.00 PKD
ROOT
HETATM    1  C   UNL     1     -10.972   8.136  66.354  1.00  0.00     1.344 C  
HETATM    2  O   UNL     1      -9.610   7.850  66.695  1.00  0.00    -0.197 OA 
ENDROOT
BRANCH   2   3
HETATM    3  C   UNL     1      -8.731   8.861  66.381  1.00  0.00    -0.129 A  
HETATM    4  C   UNL     1      -8.377   9.746  67.425  1.00  0.00    -0.114 A  
HETATM    5  C   UNL     1      -7.388  10.738  67.273  1.00  0.00    -0.097 A  
HETATM    6  C   UNL     1      -6.885  10.839  65.963  1.00  0.00    -0.107 A  
HETATM    7  C   UNL     1      -8.214   9.036  65.102  1.00  0.00    -0.147 A  
HETATM    8  C   UNL     1      -7.290  10.037  64.889  1.00  0.00    -0.140 A  
BRANCH   5   9
HETATM    9  N   UNL     1      -6.907  11.579  68.332  1.00  0.00    -0.065 NA 
BRANCH   9  10
HETATM   10  C   UNL     1      -6.411  12.956  68.010  1.00  0.00    -0.109 C  
BRANCH  10  11
HETATM   11  C   UNL     1      -7.431  14.123  68.039  1.00  0.00    -0.140 C  
BRANCH  11  12
HETATM   12  N   UNL     1      -7.577  14.928  66.827  1.00  0.00    -0.269 NA 
HETATM   13  H   UNL     1      -7.909  14.344  66.059  1.00  0.00     0.000 HD 
BRANCH  12  14
HETATM   14  C   UNL     1      -8.423  16.114  66.953  1.00  0.00    -0.230 C  
HETATM   15  C   UNL     1      -9.913  15.821  66.760  1.00  0.00    -0.260 C  
HETATM   16  C   UNL     1      -8.198  16.688  68.355  1.00  0.00    -0.206 C  
ENDBRANCH  12  14
ENDBRANCH  11  12
ENDBRANCH  10  11
ENDBRANCH   9  10
BRANCH   9  17
HETATM   17  C   UNL     1      -6.379  11.096  69.591  1.00  0.00    -0.119 A  
HETATM   18  C   UNL     1      -6.205   7.817  73.087  1.00  0.00    -0.064 A  
HETATM   19  C   UNL     1      -5.515  11.865  70.378  1.00  0.00    -0.142 A  
HETATM   20  C   UNL     1      -5.503   8.711  73.879  1.00  0.00    -0.102 A  
HETATM   21  N   UNL     1      -6.604   8.157  71.833  1.00  0.00    -0.055 NA 
HETATM   22  C   UNL     1      -6.278   9.392  71.389  1.00  0.00    -0.042 A  
HETATM   23  C   UNL     1      -5.152  11.489  71.677  1.00  0.00     0.017 A  
HETATM   24  C   UNL     1      -5.528  10.271  72.199  1.00  0.00     0.226 A  
HETATM   25  C   UNL     1      -6.699   9.827  70.124  1.00  0.00    -0.100 A  
HETATM   26  N   UNL     1      -5.147   9.944  73.448  1.00  0.00    -0.276 NA 
BRANCH  18  27
HETATM   27  C   UNL     1      -6.549   6.479  73.527  1.00  0.00    -0.069 A  
HETATM   28  N   UNL     1      -7.646   4.654  74.077  1.00  0.00    -0.085 NA 
HETATM   29  C   UNL     1      -7.811   5.924  73.599  1.00  0.00    -0.104 A  
HETATM   30  C   UNL     1      -8.676   3.678  74.331  1.00  0.00    -0.087 C  
HETATM   31  N   UNL     1      -6.362   4.339  74.328  1.00  0.00    -0.045 NA 
HETATM   32  C   UNL     1      -5.698   5.450  73.994  1.00  0.00    -0.039 A  
ENDBRANCH  18  27
ENDBRANCH   9  17
ENDBRANCH   5   9
BRANCH   8  33
HETATM   33  O   UNL     1      -6.683  10.339  63.700  1.00  0.00    -0.133 OA 
HETATM   34  C   UNL     1      -5.270  10.473  63.711  1.00  0.00    -0.163 C  
ENDBRANCH   8  33
ENDBRANCH   2   3
TORSDOF 9
ENDMDL
MODEL      229
REMARK 921   NORMALIZED FREE ENERGY PREDICTED BY IDOCK:   -1.02 KCAL/MOL
REMARK 922        TOTAL FREE ENERGY PREDICTED BY IDOCK:   -2.72 KCAL/MOL
REMARK 923 INTER-LIGAND FREE ENERGY PREDICTED BY IDOCK:   -6.18 KCAL/MOL
REMARK 924 INTRA-LIGAND FREE ENERGY PREDICTED BY IDOCK:    3.45 KCAL/MOL
REMARK 927      BINDING AFFINITY PREDICTED BY RF-SCORE:    0.00 PKD
ROOT
HETATM    1  C   UNL     1      -7.701   5.430  74.445  1.00  0.00    -0.095 C  
HETATM    2  O   UNL     1      -7.871   6.618  73.663  1.00  0.00    -0.093 OA 
ENDROOT
BRANCH   2   3
HETATM    3  C   UNL     1      -9.157   6.813  73.215  1.00  0.00    -0.129 A  
HETATM    4  C   UNL     1      -9.449   8.071  72.640  1.00  0.00    -0.317 A  
HETATM    5  C   UNL     1     -10.685   8.352  72.024  1.00  0.00    -0.317 A  
HETATM    6  C   UNL     1     -11.627   7.315  72.146  1.00  0.00    -0.324 A  
HETATM    7  C   UNL     1     -10.146   5.842  73.327  1.00  0.00    -0.202 A  
HETATM    8  C   UNL     1     -11.392   6.096  72.795  1.00  0.00    -0.222 A  
BRANCH   5   9
HETATM    9  N   UNL     1     -10.987   9.567  71.321  1.00  0.00    -0.363 NA 
BRANCH   9  10
HETATM   10  C   UNL     1     -12.404  10.051  71.266  1.00  0.00    -0.398 C  
BRANCH  10  11
HETATM   11  C   UNL     1     -12.718  11.288  70.387  1.00  0.00    -0.130 C  
BRANCH  11  12
HETATM   12  N   UNL     1     -11.964  12.515  70.647  1.00  0.00    -0.513 NA 
HETATM   13  H   UNL     1     -11.648  12.922  69.767  1.00  0.00     0.000 HD 
BRANCH  12  14
HETATM   14  C   UNL     1     -12.656  13.526  71.445  1.00  0.00    -0.308 C  
HETATM   15  C   UNL     1     -13.158  14.713  70.619  1.00  0.00    -0.323 C  
HETATM   16  C   UNL     1     -13.848  12.839  72.118  1.00  0.00    -0.326 C  
ENDBRANCH  12  14
ENDBRANCH  11  12
ENDBRANCH  10  11
ENDBRANCH   9  10
BRANCH   9  17
HETATM   17  C   UNL     1     -10.187  10.118  70.246  1.00  0.00    -0.120 A  
HETATM   18  C   UNL     1      -9.628  13.115  66.544  1.00  0.00    -0.268 A  
HETATM   19  C   UNL     1      -8.934   9.597  69.912  1.00  0.00    -0.243 A  
HETATM   20  C   UNL     1      -8.484  12.427  66.171  1.00  0.00     0.389 A  
HETATM   21  N   UNL     1     -10.345  12.740  67.635  1.00  0.00    -0.218 NA 
HETATM   22  C   UNL     1      -9.894  11.680  68.343  1.00  0.00    -0.202 A  
HETATM   23  C   UNL     1      -8.240   9.995  68.762  1.00  0.00    -0.115 A  
HETATM   24  C   UNL     1      -8.705  11.020  67.967  1.00  0.00    -0.138 A  
HETATM   25  C   UNL     1     -10.612  11.207  69.451  1.00  0.00    -0.174 A  
HETATM   26  N   UNL     1      -8.001  11.378  66.877  1.00  0.00    -0.153 NA 
BRANCH  18  27
HETATM   27  C   UNL     1     -10.123  14.268  65.818  1.00  0.00    -0.356 A  
HETATM   28  N   UNL     1     -10.602  16.321  65.189  1.00  0.00    -0.638 NA 
HETATM   29  C   UNL     1      -9.959  15.598  66.154  1.00  0.00    -0.312 A  
HETATM   30  C   UNL     1     -10.715  17.756  65.106  1.00  0.00     0.405 C  
HETATM   31  N   UNL     1     -11.181  15.557  64.245  1.00  0.00    -0.194 NA 
HETATM   32  C   UNL     1     -10.889  14.311  64.630  1.00  0.00    -0.368 A  
ENDBRANCH  18  27
ENDBRANCH   9  17
ENDBRANCH   5   9
BRANCH   8  33
HETATM   33  O   UNL     1     -12.468   5.252  72.813  1.00  0.00     0.019 OA 
HETATM   34  C   UNL     1     -12.259   3.948  73.335  1.00  0.00     0.569 C  
ENDBRANCH   8  33
ENDBRANCH   2   3
TORSDOF 9
ENDMDL
MODEL      230
REMARK 921   NORMALIZED FREE ENERGY PREDICTED BY IDOCK:    0.68 KCAL/MOL
REMARK 922        TOTAL FREE ENERGY PREDICTED BY IDOCK:   -0.13 KCAL/MOL
REMARK 923 INTER-LIGAND FREE ENERGY PREDICTED BY IDOCK:    0.69 KCAL/MOL
REMARK 924 INTRA-LIGAND FREE ENERGY PREDICTED BY IDOCK:   -0.82 KCAL/MOL
REMARK 927      BINDING AFFINITY PREDICTED BY RF-SCORE:    0.00 PKD
ROOT
HETATM    1  C   UNL     1      -6.753  13.757  71.890  1.00  0.00     2.590 C  
HETATM    2  O   UNL     1      -7.457  14.853  71.295  1.00  0.00     1.432 OA 
ENDROOT
BRANCH   2   3
HETATM    3  C   UNL     1      -7.477  14.824  69.920  1.00  0.00     0.060 A  
HETATM    4  C   UNL     1      -7.774  13.583  69.312  1.00  0.00     0.343 A  
HETATM    5  C   UNL     1      -7.958  13.446  67.922  1.00  0.00    -0.155 A  
HETATM    6  C   UNL     1      -7.698  14.624  67.198  1.00  0.00    -0.121 A  
HETATM    7  C   UNL     1      -7.206  15.944  69.141  1.00  0.00    -0.196 A  
HETATM    8  C   UNL     1      -7.309  15.842  67.770  1.00  0.00    -0.144 A  
BRANCH   5   9
HETATM    9  N   UNL     1      -8.378  12.238  67.270  1.00  0.00    -0.175 NA 
BRANCH   9  10
HETATM   10  C   UNL     1      -8.815  12.290  65.837  1.00  0.00     0.248 C  
BRANCH  10  11
HETATM   11  C   UNL     1      -9.699  13.481  65.389  1.00  0.00    -0.016 C  
BRANCH  11  12
HETATM   12  N   UNL     1     -11.054  13.185  64.924  1.00  0.00    -0.303 NA 
HETATM   13  H   UNL     1     -11.077  12.265  64.483  1.00  0.00     0.000 HD 
BRANCH  12  14
HETATM   14  C   UNL     1     -12.106  13.280  65.935  1.00  0.00    -0.441 C  
HETATM   15  C   UNL     1     -11.684  14.067  67.178  1.00  0.00    -0.421 C  
HETATM   16  C   UNL     1     -13.305  13.975  65.281  1.00  0.00     0.264 C  
ENDBRANCH  12  14
ENDBRANCH  11  12
ENDBRANCH  10  11
ENDBRANCH   9  10
BRANCH   9  17
HETATM   17  C   UNL     1      -8.904  11.074  67.953  1.00  0.00    -0.134 A  
HETATM   18  C   UNL     1      -8.505   6.515  69.388  1.00  0.00    -0.127 A  
HETATM   19  C   UNL     1     -10.204  11.039  68.466  1.00  0.00    -0.203 A  
HETATM   20  C   UNL     1      -9.854   6.506  69.705  1.00  0.00    -0.159 A  
HETATM   21  N   UNL     1      -7.914   7.628  68.880  1.00  0.00    -0.123 NA 
HETATM   22  C   UNL     1      -8.689   8.722  68.708  1.00  0.00    -0.137 A  
HETATM   23  C   UNL     1     -10.784   9.862  68.956  1.00  0.00    -0.244 A  
HETATM   24  C   UNL     1     -10.051   8.702  69.075  1.00  0.00    -0.199 A  
HETATM   25  C   UNL     1      -8.156   9.890  68.143  1.00  0.00    -0.104 A  
HETATM   26  N   UNL     1     -10.645   7.596  69.562  1.00  0.00    -0.231 NA 
BRANCH  18  27
HETATM   27  C   UNL     1      -7.644   5.365  69.583  1.00  0.00    -0.070 A  
HETATM   28  N   UNL     1      -6.312   3.646  69.256  1.00  0.00    -0.028 NA 
HETATM   29  C   UNL     1      -6.994   4.636  68.606  1.00  0.00    -0.052 A  
HETATM   30  C   UNL     1      -5.486   2.624  68.662  1.00  0.00    -0.017 C  
HETATM   31  N   UNL     1      -6.474   3.670  70.591  1.00  0.00    -0.030 NA 
HETATM   32  C   UNL     1      -7.285   4.716  70.787  1.00  0.00    -0.045 A  
ENDBRANCH  18  27
ENDBRANCH   9  17
ENDBRANCH   5   9
BRANCH   8  33
HETATM   33  O   UNL     1      -7.084  16.843  66.865  1.00  0.00    -0.171 OA 
HETATM   34  C   UNL     1      -7.007  18.168  67.370  1.00  0.00    -0.197 C  
ENDBRANCH   8  33
ENDBRANCH   2   3
TORSDOF 9
ENDMDL
MODEL      231
REMARK 921   NORMALIZED FREE ENERGY PREDICTED BY IDOCK:    0.95 KCAL/MOL
REMARK 922        TOTAL FREE ENERGY PREDICTED BY IDOCK:    0.28 KCAL/MOL
REMARK 923 INTER-LIGAND FREE ENERGY PREDICTED BY IDOCK:    0.36 KCAL/MOL
REMARK 924 INTRA-LIGAND FREE ENERGY PREDICTED BY IDOCK:   -0.08 KCAL/MOL
REMARK 927      BINDING AFFINITY PREDICTED BY RF-SCORE:    0.00 PKD
ROOT
HETATM    1  C   UNL     1     -10.220  18.567  71.122  1.00  0.00     3.184 C  
HETATM    2  O   UNL     1     -10.933  17.972  70.030  1.00  0.00     1.087 OA 
ENDROOT
BRANCH   2   3
HETATM    3  C   UNL     1     -11.578  16.801  70.355  1.00  0.00     0.606 A  
HETATM    4  C   UNL     1     -11.344  15.689  69.515  1.00  0.00    -0.329 A  
HETATM    5  C   UNL     1     -11.834  14.401  69.810  1.00  0.00    -0.320 A  
HETATM    6  C   UNL     1     -12.669  14.360  70.941  1.00  0.00    -0.425 A  
HETATM    7  C   UNL     1     -12.437  16.695  71.444  1.00  0.00     1.412 A  
HETATM    8  C   UNL     1     -12.993  15.467  71.735  1.00  0.00    -0.449 A  
BRANCH   5   9
HETATM    9  N   UNL     1     -11.525  13.219  69.057  1.00  0.00    -0.283 NA 
BRANCH   9  10
HETATM   10  C   UNL     1     -11.762  13.208  67.577  1.00  0.00    -0.366 C  
BRANCH  10  11
HETATM   11  C   UNL     1     -11.040  12.127  66.732  1.00  0.00    -0.300 C  
BRANCH  11  12
HETATM   12  N   UNL     1     -11.667  11.715  65.477  1.00  0.00    -0.209 NA 
HETATM   13  H   UNL     1     -12.572  12.175  65.372  1.00  0.00     0.000 HD 
BRANCH  12  14
HETATM   14  C   UNL     1     -10.863  11.913  64.272  1.00  0.00    -0.344 C  
HETATM   15  C   UNL     1      -9.888  13.088  64.379  1.00  0.00     0.013 C  
HETATM   16  C   UNL     1     -10.074  10.622  64.032  1.00  0.00    -0.378 C  
ENDBRANCH  12  14
ENDBRANCH  11  12
ENDBRANCH  10  11
ENDBRANCH   9  10
BRANCH   9  17
HETATM   17  C   UNL     1     -11.483  11.880  69.607  1.00  0.00    -0.266 A  
HETATM   18  C   UNL     1      -9.491   7.527  69.902  1.00  0.00    -0.160 A  
HETATM   19  C   UNL     1     -12.486  11.391  70.449  1.00  0.00    -0.345 A  
HETATM   20  C   UNL     1     -10.610   7.070  70.579  1.00  0.00    -0.224 A  
HETATM   21  N   UNL     1      -9.403   8.817  69.487  1.00  0.00    -0.156 NA 
HETATM   22  C   UNL     1     -10.442   9.635  69.770  1.00  0.00    -0.238 A  
HETATM   23  C   UNL     1     -12.553  10.045  70.830  1.00  0.00    -0.424 A  
HETATM   24  C   UNL     1     -11.553   9.158  70.496  1.00  0.00    -0.197 A  
HETATM   25  C   UNL     1     -10.440  10.967  69.329  1.00  0.00    -0.230 A  
HETATM   26  N   UNL     1     -11.652   7.875  70.894  1.00  0.00    -0.284 NA 
BRANCH  18  27
HETATM   27  C   UNL     1      -8.353   6.680  69.604  1.00  0.00    -0.132 A  
HETATM   28  N   UNL     1      -6.898   5.031  69.579  1.00  0.00    -0.051 NA 
HETATM   29  C   UNL     1      -8.070   5.442  70.149  1.00  0.00    -0.089 A  
HETATM   30  C   UNL     1      -6.191   3.799  69.833  1.00  0.00    -0.027 C  
HETATM   31  N   UNL     1      -6.389   5.914  68.702  1.00  0.00    -0.035 NA 
HETATM   32  C   UNL     1      -7.275   6.916  68.719  1.00  0.00    -0.091 A  
ENDBRANCH  18  27
ENDBRANCH   9  17
ENDBRANCH   5   9
BRANCH   8  33
HETATM   33  O   UNL     1     -13.847  15.190  72.767  1.00  0.00    -0.467 OA 
HETATM   34  C   UNL     1     -14.148  13.824  73.009  1.00  0.00     0.879 C  
ENDBRANCH   8  33
ENDBRANCH   2   3
TORSDOF 9
ENDMDL
MODEL      232
REMARK 921   NORMALIZED FREE ENERGY PREDICTED BY IDOCK:    1.79 KCAL/MOL
REMARK 922        TOTAL FREE ENERGY PREDICTED BY IDOCK:    1.56 KCAL/MOL
REMARK 923 INTER-LIGAND FREE ENERGY PREDICTED BY IDOCK:    2.66 KCAL/MOL
REMARK 924 INTRA-LIGAND FREE ENERGY PREDICTED BY IDOCK:   -1.10 KCAL/MOL
REMARK 927      BINDING AFFINITY PREDICTED BY RF-SCORE:    0.00 PKD
ROOT
HETATM    1  C   UNL     1     -10.719   8.484  62.339  1.00  0.00     7.844 C  
HETATM    2  O   UNL     1      -9.316   8.191  62.340  1.00  0.00     0.712 OA 
ENDROOT
BRANCH   2   3
HETATM    3  C   UNL     1      -8.611   8.842  63.325  1.00  0.00    -0.102 A  
HETATM    4  C   UNL     1      -9.257   9.006  64.572  1.00  0.00     0.144 A  
HETATM    5  C   UNL     1      -8.601   9.533  65.701  1.00  0.00    -0.138 A  
HETATM    6  C   UNL     1      -7.296   9.988  65.436  1.00  0.00    -0.139 A  
HETATM    7  C   UNL     1      -7.328   9.341  63.125  1.00  0.00    -0.102 A  
HETATM    8  C   UNL     1      -6.668   9.925  64.186  1.00  0.00    -0.126 A  
BRANCH   5   9
HETATM    9  N   UNL     1      -9.173   9.607  67.016  1.00  0.00    -0.140 NA 
BRANCH   9  10
HETATM   10  C   UNL     1      -9.545   8.342  67.727  1.00  0.00    -0.148 C  
BRANCH  10  11
HETATM   11  C   UNL     1      -8.408   7.356  68.102  1.00  0.00    -0.124 C  
BRANCH  11  12
HETATM   12  N   UNL     1      -8.574   6.558  69.316  1.00  0.00    -0.126 NA 
HETATM   13  H   UNL     1      -9.455   6.796  69.771  1.00  0.00     0.000 HD 
BRANCH  12  14
HETATM   14  C   UNL     1      -8.477   5.110  69.141  1.00  0.00    -0.090 C  
HETATM   15  C   UNL     1      -9.316   4.319  70.148  1.00  0.00    -0.228 C  
HETATM   16  C   UNL     1      -8.957   4.789  67.721  1.00  0.00    -0.122 C  
ENDBRANCH  12  14
ENDBRANCH  11  12
ENDBRANCH  10  11
ENDBRANCH   9  10
BRANCH   9  17
HETATM   17  C   UNL     1      -9.891  10.751  67.538  1.00  0.00    -0.172 A  
HETATM   18  C   UNL     1     -10.705  15.475  67.706  1.00  0.00    -0.297 A  
HETATM   19  C   UNL     1     -10.812  10.635  68.583  1.00  0.00    -0.266 A  
HETATM   20  C   UNL     1     -11.461  15.295  68.853  1.00  0.00    -0.332 A  
HETATM   21  N   UNL     1     -10.123  14.419  67.079  1.00  0.00    -0.253 NA 
HETATM   22  C   UNL     1     -10.321  13.192  67.611  1.00  0.00    -0.223 A  
HETATM   23  C   UNL     1     -11.368  11.753  69.219  1.00  0.00    -0.348 A  
HETATM   24  C   UNL     1     -11.128  13.029  68.757  1.00  0.00    -0.270 A  
HETATM   25  C   UNL     1      -9.711  12.063  67.045  1.00  0.00    -0.204 A  
HETATM   26  N   UNL     1     -11.692  14.074  69.391  1.00  0.00    -0.293 NA 
BRANCH  18  27
HETATM   27  C   UNL     1     -10.493  16.775  67.100  1.00  0.00    -0.299 A  
HETATM   28  N   UNL     1     -10.065  18.907  66.773  1.00  0.00    -0.349 NA 
HETATM   29  C   UNL     1     -10.137  17.945  67.741  1.00  0.00    -0.348 A  
HETATM   30  C   UNL     1      -9.732  20.299  66.951  1.00  0.00    -0.444 C  
HETATM   31  N   UNL     1     -10.354  18.450  65.541  1.00  0.00    -0.521 NA 
HETATM   32  C   UNL     1     -10.615  17.154  65.743  1.00  0.00    -0.195 A  
ENDBRANCH  18  27
ENDBRANCH   9  17
ENDBRANCH   5   9
BRANCH   8  33
HETATM   33  O   UNL     1      -5.408  10.457  64.161  1.00  0.00    -0.119 OA 
HETATM   34  C   UNL     1      -5.132  11.422  63.157  1.00  0.00     0.474 C  
ENDBRANCH   8  33
ENDBRANCH   2   3
TORSDOF 9
ENDMDL
MODEL      233
REMARK 921   NORMALIZED FREE ENERGY PREDICTED BY IDOCK:    2.46 KCAL/MOL
REMARK 922        TOTAL FREE ENERGY PREDICTED BY IDOCK:    2.59 KCAL/MOL
REMARK 923 INTER-LIGAND FREE ENERGY PREDICTED BY IDOCK:    2.22 KCAL/MOL
REMARK 924 INTRA-LIGAND FREE ENERGY PREDICTED BY IDOCK:    0.37 KCAL/MOL
REMARK 927      BINDING AFFINITY PREDICTED BY RF-SCORE:    0.00 PKD
ROOT
HETATM    1  C   UNL     1      -9.782  18.764  69.561  1.00  0.00     0.216 C  
HETATM    2  O   UNL     1     -10.138  17.712  68.656  1.00  0.00    -0.339 OA 
ENDROOT
BRANCH   2   3
HETATM    3  C   UNL     1      -9.073  16.942  68.248  1.00  0.00    -0.235 A  
HETATM    4  C   UNL     1      -8.923  15.680  68.866  1.00  0.00    -0.221 A  
HETATM    5  C   UNL     1      -7.959  14.742  68.448  1.00  0.00    -0.138 A  
HETATM    6  C   UNL     1      -7.093  15.228  67.451  1.00  0.00    -0.223 A  
HETATM    7  C   UNL     1      -8.164  17.369  67.287  1.00  0.00    -0.221 A  
HETATM    8  C   UNL     1      -7.161  16.509  66.890  1.00  0.00    -0.228 A  
BRANCH   5   9
HETATM    9  N   UNL     1      -7.846  13.406  68.960  1.00  0.00     0.096 NA 
BRANCH   9  10
HETATM   10  C   UNL     1      -6.551  12.667  68.805  1.00  0.00    -0.089 C  
BRANCH  10  11
HETATM   11  C   UNL     1      -5.761  12.852  67.483  1.00  0.00    -0.099 C  
BRANCH  11  12
HETATM   12  N   UNL     1      -6.048  11.928  66.386  1.00  0.00    -0.493 NA 
HETATM   13  H   UNL     1      -5.644  12.282  65.519  1.00  0.00     0.000 HD 
BRANCH  12  14
HETATM   14  C   UNL     1      -5.636  10.542  66.600  1.00  0.00    -0.058 C  
HETATM   15  C   UNL     1      -6.761   9.648  67.127  1.00  0.00    -0.075 C  
HETATM   16  C   UNL     1      -5.147   9.998  65.254  1.00  0.00    -0.054 C  
ENDBRANCH  12  14
ENDBRANCH  11  12
ENDBRANCH  10  11
ENDBRANCH   9  10
BRANCH   9  17
HETATM   17  C   UNL     1      -8.961  12.504  69.161  1.00  0.00     0.716 A  
HETATM   18  C   UNL     1     -11.021   8.202  68.656  1.00  0.00     0.211 A  
HETATM   19  C   UNL     1     -10.177  12.935  69.700  1.00  0.00     1.039 A  
HETATM   20  C   UNL     1     -12.238   8.751  69.029  1.00  0.00     2.705 A  
HETATM   21  N   UNL     1      -9.900   8.966  68.592  1.00  0.00    -0.163 NA 
HETATM   22  C   UNL     1     -10.018  10.274  68.914  1.00  0.00    -0.201 A  
HETATM   23  C   UNL     1     -11.316  12.121  69.722  1.00  0.00    -0.173 A  
HETATM   24  C   UNL     1     -11.258  10.802  69.328  1.00  0.00    -0.272 A  
HETATM   25  C   UNL     1      -8.912  11.132  68.822  1.00  0.00    -0.136 A  
HETATM   26  N   UNL     1     -12.376  10.052  69.377  1.00  0.00     0.304 NA 
BRANCH  18  27
HETATM   27  C   UNL     1     -10.859   6.799  68.328  1.00  0.00    -0.290 A  
HETATM   28  N   UNL     1     -10.470   4.910  67.271  1.00  0.00    -0.101 NA 
HETATM   29  C   UNL     1     -10.474   6.267  67.112  1.00  0.00    -0.263 A  
HETATM   30  C   UNL     1     -10.140   3.918  66.278  1.00  0.00     0.087 C  
HETATM   31  N   UNL     1     -10.831   4.514  68.505  1.00  0.00     1.116 NA 
HETATM   32  C   UNL     1     -11.067   5.664  69.145  1.00  0.00     0.016 A  
ENDBRANCH  18  27
ENDBRANCH   9  17
ENDBRANCH   5   9
BRANCH   8  33
HETATM   33  O   UNL     1      -6.194  16.768  65.958  1.00  0.00    -0.019 OA 
HETATM   34  C   UNL     1      -5.733  18.107  65.857  1.00  0.00    -0.199 C  
ENDBRANCH   8  33
ENDBRANCH   2   3
TORSDOF 9
ENDMDL
MODEL      234
REMARK 921   NORMALIZED FREE ENERGY PREDICTED BY IDOCK:   10.21 KCAL/MOL
REMARK 922        TOTAL FREE ENERGY PREDICTED BY IDOCK:   14.42 KCAL/MOL
REMARK 923 INTER-LIGAND FREE ENERGY PREDICTED BY IDOCK:   15.57 KCAL/MOL
REMARK 924 INTRA-LIGAND FREE ENERGY PREDICTED BY IDOCK:   -1.16 KCAL/MOL
REMARK 927      BINDING AFFINITY PREDICTED BY RF-SCORE:    0.00 PKD
ROOT
HETATM    1  C   UNL     1      -7.279  12.790  73.306  1.00  0.00     9.567 C  
HETATM    2  O   UNL     1      -7.352  14.216  73.189  1.00  0.00     2.943 OA 
ENDROOT
BRANCH   2   3
HETATM    3  C   UNL     1      -6.924  14.700  71.974  1.00  0.00     2.420 A  
HETATM    4  C   UNL     1      -7.171  13.890  70.842  1.00  0.00     1.981 A  
HETATM    5  C   UNL     1      -6.906  14.325  69.528  1.00  0.00    -0.110 A  
HETATM    6  C   UNL     1      -6.266  15.576  69.465  1.00  0.00    -0.145 A  
HETATM    7  C   UNL     1      -6.262  15.915  71.841  1.00  0.00     2.012 A  
HETATM    8  C   UNL     1      -5.924  16.354  70.578  1.00  0.00     0.131 A  
BRANCH   5   9
HETATM    9  N   UNL     1      -7.250  13.593  68.342  1.00  0.00    -0.099 NA 
BRANCH   9  10
HETATM   10  C   UNL     1      -7.043  14.228  67.001  1.00  0.00     0.573 C  
BRANCH  10  11
HETATM   11  C   UNL     1      -7.997  15.377  66.585  1.00  0.00    -0.033 C  
BRANCH  11  12
HETATM   12  N   UNL     1      -8.930  15.121  65.488  1.00  0.00    -0.055 NA 
HETATM   13  H   UNL     1      -8.824  14.162  65.157  1.00  0.00     0.000 HD 
BRANCH  12  14
HETATM   14  C   UNL     1     -10.337  15.397  65.775  1.00  0.00    -0.361 C  
HETATM   15  C   UNL     1     -10.759  16.826  65.427  1.00  0.00    -0.201 C  
HETATM   16  C   UNL     1     -11.172  14.409  64.954  1.00  0.00    -0.392 C  
ENDBRANCH  12  14
ENDBRANCH  11  12
ENDBRANCH  10  11
ENDBRANCH   9  10
BRANCH   9  17
HETATM   17  C   UNL     1      -8.226  12.524  68.288  1.00  0.00    -0.168 A  
HETATM   18  C   UNL     1      -9.371   7.919  67.588  1.00  0.00    -0.143 A  
HETATM   19  C   UNL     1      -9.598  12.765  68.408  1.00  0.00    -0.175 A  
HETATM   20  C   UNL     1     -10.711   8.269  67.539  1.00  0.00    -0.147 A  
HETATM   21  N   UNL     1      -8.410   8.859  67.786  1.00  0.00    -0.110 NA 
HETATM   22  C   UNL     1      -8.814  10.140  67.942  1.00  0.00    -0.125 A  
HETATM   23  C   UNL     1     -10.556  11.772  68.169  1.00  0.00    -0.230 A  
HETATM   24  C   UNL     1     -10.186  10.467  67.928  1.00  0.00    -0.179 A  
HETATM   25  C   UNL     1      -7.873  11.168  68.101  1.00  0.00    -0.118 A  
HETATM   26  N   UNL     1     -11.141   9.541  67.715  1.00  0.00    -0.095 NA 
BRANCH  18  27
HETATM   27  C   UNL     1      -8.910   6.552  67.447  1.00  0.00    -0.115 A  
HETATM   28  N   UNL     1      -8.814   4.358  67.337  1.00  0.00    -0.105 NA 
HETATM   29  C   UNL     1      -9.675   5.404  67.518  1.00  0.00    -0.137 A  
HETATM   30  C   UNL     1      -9.139   2.953  67.333  1.00  0.00    -0.179 C  
HETATM   31  N   UNL     1      -7.536   4.740  67.157  1.00  0.00    -0.086 NA 
HETATM   32  C   UNL     1      -7.598   6.074  67.225  1.00  0.00    -0.093 A  
ENDBRANCH  18  27
ENDBRANCH   9  17
ENDBRANCH   5   9
BRANCH   8  33
HETATM   33  O   UNL     1      -5.280  17.522  70.272  1.00  0.00    -0.198 OA 
HETATM   34  C   UNL     1      -5.160  18.485  71.308  1.00  0.00    -0.252 C  
ENDBRANCH   8  33
ENDBRANCH   2   3
TORSDOF 9
ENDMDL
MODEL      235
REMARK 921   NORMALIZED FREE ENERGY PREDICTED BY IDOCK:   10.59 KCAL/MOL
REMARK 922        TOTAL FREE ENERGY PREDICTED BY IDOCK:   14.99 KCAL/MOL
REMARK 923 INTER-LIGAND FREE ENERGY PREDICTED BY IDOCK:   11.85 KCAL/MOL
REMARK 924 INTRA-LIGAND FREE ENERGY PREDICTED BY IDOCK:    3.14 KCAL/MOL
REMARK 927      BINDING AFFINITY PREDICTED BY RF-SCORE:    0.00 PKD
ROOT
HETATM    1  C   UNL     1     -12.765  10.273  70.042  1.00  0.00     0.069 C  
HETATM    2  O   UNL     1     -12.860  10.760  68.697  1.00  0.00     0.454 OA 
ENDROOT
BRANCH   2   3
HETATM    3  C   UNL     1     -11.773  10.451  67.914  1.00  0.00     0.415 A  
HETATM    4  C   UNL     1     -11.083  11.534  67.323  1.00  0.00    -0.351 A  
HETATM    5  C   UNL     1      -9.879  11.366  66.610  1.00  0.00    -0.205 A  
HETATM    6  C   UNL     1      -9.504  10.021  66.442  1.00  0.00    -0.235 A  
HETATM    7  C   UNL     1     -11.361   9.143  67.683  1.00  0.00     0.752 A  
HETATM    8  C   UNL     1     -10.223   8.925  66.935  1.00  0.00    -0.276 A  
BRANCH   5   9
HETATM    9  N   UNL     1      -9.079  12.442  66.097  1.00  0.00    -0.110 NA 
BRANCH   9  10
HETATM   10  C   UNL     1      -7.594  12.267  65.991  1.00  0.00     1.271 C  
BRANCH  10  11
HETATM   11  C   UNL     1      -6.731  12.611  67.232  1.00  0.00    -0.100 C  
BRANCH  11  12
HETATM   12  N   UNL     1      -7.282  13.556  68.202  1.00  0.00    -0.101 NA 
HETATM   13  H   UNL     1      -7.461  13.082  69.088  1.00  0.00     0.000 HD 
BRANCH  12  14
HETATM   14  C   UNL     1      -6.489  14.763  68.434  1.00  0.00    -0.103 C  
HETATM   15  C   UNL     1      -5.675  15.198  67.213  1.00  0.00     0.370 C  
HETATM   16  C   UNL     1      -7.462  15.882  68.818  1.00  0.00    -0.170 C  
ENDBRANCH  12  14
ENDBRANCH  11  12
ENDBRANCH  10  11
ENDBRANCH   9  10
BRANCH   9  17
HETATM   17  C   UNL     1      -9.456  13.840  66.135  1.00  0.00    -0.159 A  
HETATM   18  C   UNL     1     -10.353  17.880  68.559  1.00  0.00    -0.360 A  
HETATM   19  C   UNL     1      -9.877  14.526  64.991  1.00  0.00    -0.056 A  
HETATM   20  C   UNL     1     -10.922  18.426  67.420  1.00  0.00    -0.121 A  
HETATM   21  N   UNL     1      -9.842  16.621  68.551  1.00  0.00    -0.241 NA 
HETATM   22  C   UNL     1      -9.903  15.932  67.388  1.00  0.00    -0.234 A  
HETATM   23  C   UNL     1     -10.422  15.815  65.050  1.00  0.00    -0.331 A  
HETATM   24  C   UNL     1     -10.451  16.524  66.231  1.00  0.00    -0.281 A  
HETATM   25  C   UNL     1      -9.440  14.609  67.320  1.00  0.00    -0.221 A  
HETATM   26  N   UNL     1     -10.974  17.765  66.241  1.00  0.00     0.105 NA 
BRANCH  18  27
HETATM   27  C   UNL     1     -10.253  18.602  69.812  1.00  0.00     0.697 A  
HETATM   28  N   UNL     1      -9.828  20.120  71.346  1.00  0.00     1.892 NA 
HETATM   29  C   UNL     1      -9.714  19.858  70.009  1.00  0.00     0.556 A  
HETATM   30  C   UNL     1      -9.401  21.310  72.040  1.00  0.00     3.565 C  
HETATM   31  N   UNL     1     -10.400  19.121  72.041  1.00  0.00     2.927 NA 
HETATM   32  C   UNL     1     -10.657  18.199  71.107  1.00  0.00     2.776 A  
ENDBRANCH  18  27
ENDBRANCH   9  17
ENDBRANCH   5   9
BRANCH   8  33
HETATM   33  O   UNL     1      -9.680   7.708  66.622  1.00  0.00    -0.202 OA 
HETATM   34  C   UNL     1      -8.540   7.707  65.776  1.00  0.00    -0.139 C  
ENDBRANCH   8  33
ENDBRANCH   2   3
TORSDOF 9
ENDMDL
MODEL      236
REMARK 921   NORMALIZED FREE ENERGY PREDICTED BY IDOCK:   17.47 KCAL/MOL
REMARK 922        TOTAL FREE ENERGY PREDICTED BY IDOCK:   25.50 KCAL/MOL
REMARK 923 INTER-LIGAND FREE ENERGY PREDICTED BY IDOCK:   18.73 KCAL/MOL
REMARK 924 INTRA-LIGAND FREE ENERGY PREDICTED BY IDOCK:    6.76 KCAL/MOL
REMARK 927      BINDING AFFINITY PREDICTED BY RF-SCORE:    0.00 PKD
ROOT
HETATM    1  C   UNL     1      -9.139   6.213  73.511  1.00  0.00    -0.127 C  
HETATM    2  O   UNL     1      -9.004   7.042  72.350  1.00  0.00    -0.129 OA 
ENDROOT
BRANCH   2   3
HETATM    3  C   UNL     1     -10.167   7.675  71.978  1.00  0.00    -0.197 A  
HETATM    4  C   UNL     1     -10.092   9.069  71.752  1.00  0.00    -0.373 A  
HETATM    5  C   UNL     1     -11.174   9.812  71.239  1.00  0.00    -0.347 A  
HETATM    6  C   UNL     1     -12.356   9.063  71.094  1.00  0.00    -0.306 A  
HETATM    7  C   UNL     1     -11.377   7.003  71.840  1.00  0.00    -0.291 A  
HETATM    8  C   UNL     1     -12.481   7.702  71.402  1.00  0.00    -0.333 A  
BRANCH   5   9
HETATM    9  N   UNL     1     -11.111  11.200  70.879  1.00  0.00     0.792 NA 
BRANCH   9  10
HETATM   10  C   UNL     1     -12.179  12.133  71.363  1.00  0.00     0.244 C  
BRANCH  10  11
HETATM   11  C   UNL     1     -12.222  13.562  70.764  1.00  0.00    -0.338 C  
BRANCH  11  12
HETATM   12  N   UNL     1     -10.960  14.150  70.316  1.00  0.00    -0.430 NA 
HETATM   13  H   UNL     1     -10.245  13.426  70.247  1.00  0.00     0.000 HD 
BRANCH  12  14
HETATM   14  C   UNL     1     -11.022  14.911  69.070  1.00  0.00    -0.245 C  
HETATM   15  C   UNL     1     -12.405  15.502  68.788  1.00  0.00     0.131 C  
HETATM   16  C   UNL     1      -9.999  16.046  69.177  1.00  0.00    -0.246 C  
ENDBRANCH  12  14
ENDBRANCH  11  12
ENDBRANCH  10  11
ENDBRANCH   9  10
BRANCH   9  17
HETATM   17  C   UNL     1     -10.433  11.717  69.708  1.00  0.00     0.569 A  
HETATM   18  C   UNL     1     -10.500  13.944  65.461  1.00  0.00    -0.323 A  
HETATM   19  C   UNL     1      -9.071  11.496  69.482  1.00  0.00     0.872 A  
HETATM   20  C   UNL     1      -9.198  13.529  65.233  1.00  0.00     0.839 A  
HETATM   21  N   UNL     1     -11.147  13.617  66.610  1.00  0.00    -0.302 NA 
HETATM   22  C   UNL     1     -10.468  12.883  67.521  1.00  0.00    -0.223 A  
HETATM   23  C   UNL     1      -8.450  11.826  68.270  1.00  0.00    -0.161 A  
HETATM   24  C   UNL     1      -9.130  12.506  67.283  1.00  0.00    -0.189 A  
HETATM   25  C   UNL     1     -11.089  12.468  68.707  1.00  0.00    -0.314 A  
HETATM   26  N   UNL     1      -8.491  12.813  66.138  1.00  0.00     0.448 NA 
BRANCH  18  27
HETATM   27  C   UNL     1     -11.246  14.750  64.515  1.00  0.00    -0.283 A  
HETATM   28  N   UNL     1     -12.262  16.417  63.501  1.00  0.00     0.458 NA 
HETATM   29  C   UNL     1     -11.534  16.098  64.613  1.00  0.00    -0.224 A  
HETATM   30  C   UNL     1     -12.801  17.709  63.155  1.00  0.00    15.449 C  
HETATM   31  N   UNL     1     -12.476  15.372  62.682  1.00  0.00     3.123 NA 
HETATM   32  C   UNL     1     -11.858  14.360  63.301  1.00  0.00     1.144 A  
ENDBRANCH  18  27
ENDBRANCH   9  17
ENDBRANCH   5   9
BRANCH   8  33
HETATM   33  O   UNL     1     -13.737   7.194  71.208  1.00  0.00    -0.343 OA 
HETATM   34  C   UNL     1     -14.257   6.348  72.223  1.00  0.00     0.388 C  
ENDBRANCH   8  33
ENDBRANCH   2   3
TORSDOF 9
ENDMDL
MODEL      237
REMARK 921   NORMALIZED FREE ENERGY PREDICTED BY IDOCK:   28.64 KCAL/MOL
REMARK 922        TOTAL FREE ENERGY PREDICTED BY IDOCK:   42.53 KCAL/MOL
REMARK 923 INTER-LIGAND FREE ENERGY PREDICTED BY IDOCK:   34.52 KCAL/MOL
REMARK 924 INTRA-LIGAND FREE ENERGY PREDICTED BY IDOCK:    8.01 KCAL/MOL
REMARK 927      BINDING AFFINITY PREDICTED BY RF-SCORE:    0.00 PKD
ROOT
HETATM    1  C   UNL     1      -7.874  16.691  70.338  1.00  0.00     2.578 C  
HETATM    2  O   UNL     1      -9.181  16.474  69.792  1.00  0.00     0.173 OA 
ENDROOT
BRANCH   2   3
HETATM    3  C   UNL     1      -9.296  15.316  69.060  1.00  0.00    -0.231 A  
HETATM    4  C   UNL     1      -8.916  15.380  67.700  1.00  0.00    -0.185 A  
HETATM    5  C   UNL     1      -8.858  14.239  66.876  1.00  0.00    -0.213 A  
HETATM    6  C   UNL     1      -9.327  13.068  67.498  1.00  0.00    -0.200 A  
HETATM    7  C   UNL     1      -9.775  14.129  69.603  1.00  0.00     0.645 A  
HETATM    8  C   UNL     1      -9.798  12.998  68.815  1.00  0.00     0.026 A  
BRANCH   5   9
HETATM    9  N   UNL     1      -8.365  14.231  65.528  1.00  0.00     2.548 NA 
BRANCH   9  10
HETATM   10  C   UNL     1      -8.432  15.487  64.713  1.00  0.00     6.034 C  
BRANCH  10  11
HETATM   11  C   UNL     1      -8.568  16.836  65.466  1.00  0.00     0.919 C  
BRANCH  11  12
HETATM   12  N   UNL     1      -7.409  17.313  66.219  1.00  0.00    -0.297 NA 
HETATM   13  H   UNL     1      -7.605  18.234  66.613  1.00  0.00     0.000 HD 
BRANCH  12  14
HETATM   14  C   UNL     1      -6.920  16.416  67.265  1.00  0.00    -0.183 C  
HETATM   15  C   UNL     1      -5.586  15.751  66.920  1.00  0.00     0.634 C  
HETATM   16  C   UNL     1      -6.754  17.250  68.540  1.00  0.00    -0.185 C  
ENDBRANCH  12  14
ENDBRANCH  11  12
ENDBRANCH  10  11
ENDBRANCH   9  10
BRANCH   9  17
HETATM   17  C   UNL     1      -8.268  13.051  64.693  1.00  0.00     5.290 A  
HETATM   18  C   UNL     1      -8.417   8.292  64.123  1.00  0.00     0.036 A  
HETATM   19  C   UNL     1      -7.874  13.120  63.353  1.00  0.00    10.613 A  
HETATM   20  C   UNL     1      -7.851   8.433  62.866  1.00  0.00    -0.149 A  
HETATM   21  N   UNL     1      -8.672   9.375  64.901  1.00  0.00    -0.179 NA 
HETATM   22  C   UNL     1      -8.362  10.591  64.397  1.00  0.00    -0.097 A  
HETATM   23  C   UNL     1      -7.596  11.976  62.595  1.00  0.00     2.244 A  
HETATM   24  C   UNL     1      -7.823  10.714  63.099  1.00  0.00     0.005 A  
HETATM   25  C   UNL     1      -8.553  11.750  65.164  1.00  0.00     0.636 A  
HETATM   26  N   UNL     1      -7.553   9.641  62.332  1.00  0.00    -0.107 NA 
BRANCH  18  27
HETATM   27  C   UNL     1      -8.781   7.004  64.680  1.00  0.00     0.396 A  
HETATM   28  N   UNL     1      -9.774   5.393  65.802  1.00  0.00    -0.075 NA 
HETATM   29  C   UNL     1      -9.828   6.733  65.539  1.00  0.00     1.097 A  
HETATM   30  C   UNL     1     -10.657   4.637  66.654  1.00  0.00     0.073 C  
HETATM   31  N   UNL     1      -8.760   4.766  65.179  1.00  0.00    -0.139 NA 
HETATM   32  C   UNL     1      -8.158   5.747  64.499  1.00  0.00    -0.132 A  
ENDBRANCH  18  27
ENDBRANCH   9  17
ENDBRANCH   5   9
BRANCH   8  33
HETATM   33  O   UNL     1     -10.231  11.756  69.193  1.00  0.00    -0.083 OA 
HETATM   34  C   UNL     1     -10.360  11.512  70.586  1.00  0.00     3.031 C  
ENDBRANCH   8  33
ENDBRANCH   2   3
TORSDOF 9
ENDMDL
MODEL      238
REMARK 921   NORMALIZED FREE ENERGY PREDICTED BY IDOCK:   43.03 KCAL/MOL
REMARK 922        TOTAL FREE ENERGY PREDICTED BY IDOCK:   64.50 KCAL/MOL
REMARK 923 INTER-LIGAND FREE ENERGY PREDICTED BY IDOCK:   62.51 KCAL/MOL
REMARK 924 INTRA-LIGAND FREE ENERGY PREDICTED BY IDOCK:    2.00 KCAL/MOL
REMARK 927      BINDING AFFINITY PREDICTED BY RF-SCORE:    0.00 PKD
ROOT
HETATM    1  C   UNL     1      -7.812  16.695  70.479  1.00  0.00     3.059 C  
HETATM    2  O   UNL     1      -9.168  16.229  70.485  1.00  0.00     1.428 OA 
ENDROOT
BRANCH   2   3
HETATM    3  C   UNL     1      -9.291  14.866  70.351  1.00  0.00     1.035 A  
HETATM    4  C   UNL     1      -9.414  14.362  69.036  1.00  0.00    -0.042 A  
HETATM    5  C   UNL     1      -9.413  12.982  68.752  1.00  0.00     0.116 A  
HETATM    6  C   UNL     1      -9.401  12.168  69.899  1.00  0.00     2.606 A  
HETATM    7  C   UNL     1      -9.313  14.004  71.442  1.00  0.00     6.901 A  
HETATM    8  C   UNL     1      -9.376  12.645  71.215  1.00  0.00    13.507 A  
BRANCH   5   9
HETATM    9  N   UNL     1      -9.413  12.422  67.430  1.00  0.00    -0.182 NA 
BRANCH   9  10
HETATM   10  C   UNL     1      -9.882  13.258  66.278  1.00  0.00    -0.285 C  
BRANCH  10  11
HETATM   11  C   UNL     1      -9.746  14.798  66.394  1.00  0.00    -0.291 C  
BRANCH  11  12
HETATM   12  N   UNL     1      -8.432  15.386  66.131  1.00  0.00    -0.351 NA 
HETATM   13  H   UNL     1      -8.276  15.453  65.125  1.00  0.00     0.000 HD 
BRANCH  12  14
HETATM   14  C   UNL     1      -8.179  16.679  66.763  1.00  0.00    -0.239 C  
HETATM   15  C   UNL     1      -7.147  16.612  67.891  1.00  0.00    -0.153 C  
HETATM   16  C   UNL     1      -7.673  17.629  65.671  1.00  0.00     0.292 C  
ENDBRANCH  12  14
ENDBRANCH  11  12
ENDBRANCH  10  11
ENDBRANCH   9  10
BRANCH   9  17
HETATM   17  C   UNL     1      -9.491  11.006  67.135  1.00  0.00    -0.164 A  
HETATM   18  C   UNL     1      -9.563   6.424  68.551  1.00  0.00    -0.122 A  
HETATM   19  C   UNL     1      -9.477  10.519  65.825  1.00  0.00    -0.249 A  
HETATM   20  C   UNL     1      -9.365   6.025  67.239  1.00  0.00    -0.113 A  
HETATM   21  N   UNL     1      -9.649   7.740  68.876  1.00  0.00    -0.153 NA 
HETATM   22  C   UNL     1      -9.545   8.639  67.870  1.00  0.00    -0.149 A  
HETATM   23  C   UNL     1      -9.360   9.153  65.536  1.00  0.00    -0.287 A  
HETATM   24  C   UNL     1      -9.383   8.207  66.537  1.00  0.00    -0.206 A  
HETATM   25  C   UNL     1      -9.575  10.015  68.139  1.00  0.00    -0.152 A  
HETATM   26  N   UNL     1      -9.280   6.904  66.213  1.00  0.00    -0.149 NA 
BRANCH  18  27
HETATM   27  C   UNL     1      -9.701   5.484  69.646  1.00  0.00    -0.230 A  
HETATM   28  N   UNL     1     -10.287   4.505  71.527  1.00  0.00    -0.124 NA 
HETATM   29  C   UNL     1     -10.482   5.631  70.777  1.00  0.00    -0.265 A  
HETATM   30  C   UNL     1     -10.883   4.195  72.802  1.00  0.00    -0.069 C  
HETATM   31  N   UNL     1      -9.429   3.632  70.969  1.00  0.00    -0.152 NA 
HETATM   32  C   UNL     1      -9.075   4.229  69.827  1.00  0.00    -0.117 A  
ENDBRANCH  18  27
ENDBRANCH   9  17
ENDBRANCH   5   9
BRANCH   8  33
HETATM   33  O   UNL     1      -9.399  11.665  72.170  1.00  0.00    14.031 OA 
HETATM   34  C   UNL     1      -9.008  12.033  73.484  1.00  0.00    23.778 C  
ENDBRANCH   8  33
ENDBRANCH   2   3
TORSDOF 9
ENDMDL
MODEL      239
REMARK 921   NORMALIZED FREE ENERGY PREDICTED BY IDOCK:   54.40 KCAL/MOL
REMARK 922        TOTAL FREE ENERGY PREDICTED BY IDOCK:   81.84 KCAL/MOL
REMARK 923 INTER-LIGAND FREE ENERGY PREDICTED BY IDOCK:   81.34 KCAL/MOL
REMARK 924 INTRA-LIGAND FREE ENERGY PREDICTED BY IDOCK:    0.51 KCAL/MOL
REMARK 927      BINDING AFFINITY PREDICTED BY RF-SCORE:    0.00 PKD
ROOT
HETATM    1  C   UNL     1      -7.797  12.548  73.401  1.00  0.00    16.171 C  
HETATM    2  O   UNL     1      -8.441  13.779  73.751  1.00  0.00     7.307 OA 
ENDROOT
BRANCH   2   3
HETATM    3  C   UNL     1      -8.455  14.710  72.738  1.00  0.00     8.327 A  
HETATM    4  C   UNL     1      -8.574  14.216  71.419  1.00  0.00     6.307 A  
HETATM    5  C   UNL     1      -8.734  15.064  70.305  1.00  0.00     0.891 A  
HETATM    6  C   UNL     1      -8.641  16.433  70.619  1.00  0.00     3.373 A  
HETATM    7  C   UNL     1      -8.341  16.076  72.973  1.00  0.00    15.065 A  
HETATM    8  C   UNL     1      -8.427  16.944  71.905  1.00  0.00    12.046 A  
BRANCH   5   9
HETATM    9  N   UNL     1      -8.980  14.612  68.965  1.00  0.00    -0.140 NA 
BRANCH   9  10
HETATM   10  C   UNL     1      -9.325  15.613  67.904  1.00  0.00    -0.195 C  
BRANCH  10  11
HETATM   11  C   UNL     1      -9.364  17.111  68.302  1.00  0.00    -0.265 C  
BRANCH  11  12
HETATM   12  N   UNL     1      -8.196  17.930  67.979  1.00  0.00    -0.250 NA 
HETATM   13  H   UNL     1      -7.496  17.365  67.499  1.00  0.00     0.000 HD 
BRANCH  12  14
HETATM   14  C   UNL     1      -8.467  19.146  67.214  1.00  0.00    -0.278 C  
HETATM   15  C   UNL     1      -7.211  19.971  66.920  1.00  0.00    -0.270 C  
HETATM   16  C   UNL     1      -9.111  18.718  65.891  1.00  0.00     0.191 C  
ENDBRANCH  12  14
ENDBRANCH  11  12
ENDBRANCH  10  11
ENDBRANCH   9  10
BRANCH   9  17
HETATM   17  C   UNL     1      -9.423  13.279  68.614  1.00  0.00    -0.016 A  
HETATM   18  C   UNL     1      -8.551   8.877  66.921  1.00  0.00    -0.115 A  
HETATM   19  C   UNL     1     -10.771  12.910  68.655  1.00  0.00    -0.273 A  
HETATM   20  C   UNL     1      -9.915   8.655  66.821  1.00  0.00    -0.273 A  
HETATM   21  N   UNL     1      -8.067  10.059  67.386  1.00  0.00    -0.113 NA 
HETATM   22  C   UNL     1      -8.967  10.999  67.754  1.00  0.00    -0.140 A  
HETATM   23  C   UNL     1     -11.230  11.691  68.140  1.00  0.00    -0.325 A  
HETATM   24  C   UNL     1     -10.351  10.735  67.681  1.00  0.00    -0.201 A  
HETATM   25  C   UNL     1      -8.539  12.259  68.196  1.00  0.00    -0.181 A  
HETATM   26  N   UNL     1     -10.834   9.572  67.204  1.00  0.00    -0.173 NA 
BRANCH  18  27
HETATM   27  C   UNL     1      -7.563   7.881  66.555  1.00  0.00    -0.092 A  
HETATM   28  N   UNL     1      -6.497   5.984  66.232  1.00  0.00    -0.045 NA 
HETATM   29  C   UNL     1      -7.668   6.511  66.701  1.00  0.00    -0.099 A  
HETATM   30  C   UNL     1      -6.128   4.592  66.181  1.00  0.00    -0.031 C  
HETATM   31  N   UNL     1      -5.630   6.914  65.792  1.00  0.00    -0.029 NA 
HETATM   32  C   UNL     1      -6.280   8.065  65.990  1.00  0.00    -0.045 A  
ENDBRANCH  18  27
ENDBRANCH   9  17
ENDBRANCH   5   9
BRANCH   8  33
HETATM   33  O   UNL     1      -8.343  18.308  71.962  1.00  0.00    10.937 OA 
HETATM   34  C   UNL     1      -7.050  18.870  72.127  1.00  0.00     4.270 C  
ENDBRANCH   8  33
ENDBRANCH   2   3
TORSDOF 9
ENDMDL
