MODEL        1
REMARK 921   NORMALIZED FREE ENERGY PREDICTED BY IDOCK:   -5.45 KCAL/MOL
REMARK 922        TOTAL FREE ENERGY PREDICTED BY IDOCK:   -7.05 KCAL/MOL
REMARK 923 INTER-LIGAND FREE ENERGY PREDICTED BY IDOCK:   -6.73 KCAL/MOL
REMARK 924 INTRA-LIGAND FREE ENERGY PREDICTED BY IDOCK:   -0.32 KCAL/MOL
REMARK 927      BINDING AFFINITY PREDICTED BY RF-SCORE:    0.00 PKD
ROOT
HETATM    1  O   UNL     1     -11.533  16.613  64.102  1.00  0.00    -1.131 OA 
HETATM    2  C   UNL     1     -11.749  15.293  64.331  1.00  0.00    -0.285 C  
HETATM    3  O   UNL     1     -12.748  14.723  63.914  1.00  0.00    -0.794 OA 
HETATM    4  C   UNL     1     -10.627  14.587  65.065  1.00  0.00    -0.437 C  
ENDROOT
BRANCH   4   5
HETATM    5  S   UNL     1      -9.679  15.755  66.123  1.00  0.00    -0.350 SA 
BRANCH   5   6
HETATM    6  C   UNL     1      -9.667  14.800  67.673  1.00  0.00    -0.213 C  
BRANCH   6   7
HETATM    7  C   UNL     1     -10.930  15.065  68.466  1.00  0.00    -0.256 C  
HETATM    8  O   UNL     1     -11.816  15.804  68.043  1.00  0.00    -0.207 OA 
HETATM    9  N   UNL     1     -11.019  14.377  69.662  1.00  0.00    -0.399 N  
HETATM   10  H   UNL     1     -10.226  13.822  69.982  1.00  0.00     0.000 HD 
BRANCH   9  11
HETATM   11  C   UNL     1     -12.233  14.433  70.474  1.00  0.00    -0.341 C  
HETATM   12  C   UNL     1     -12.640  13.108  71.112  1.00  0.00    -0.403 C  
HETATM   13  C   UNL     1     -13.585  13.410  72.260  1.00  0.00    -0.605 C  
HETATM   14  S   UNL     1     -12.931  14.905  73.049  1.00  0.00    -0.522 SA 
HETATM   15  C   UNL     1     -12.128  15.468  71.590  1.00  0.00    -0.401 C  
HETATM   16  O   UNL     1     -11.618  16.575  71.484  1.00  0.00    -0.384 OA 
ENDBRANCH   9  11
ENDBRANCH   6   7
ENDBRANCH   5   6
ENDBRANCH   4   5
TORSDOF 4
ENDMDL
MODEL        2
REMARK 921   NORMALIZED FREE ENERGY PREDICTED BY IDOCK:   -5.36 KCAL/MOL
REMARK 922        TOTAL FREE ENERGY PREDICTED BY IDOCK:   -6.93 KCAL/MOL
REMARK 923 INTER-LIGAND FREE ENERGY PREDICTED BY IDOCK:   -6.66 KCAL/MOL
REMARK 924 INTRA-LIGAND FREE ENERGY PREDICTED BY IDOCK:   -0.28 KCAL/MOL
REMARK 927      BINDING AFFINITY PREDICTED BY RF-SCORE:    0.00 PKD
ROOT
HETATM    1  O   UNL     1     -12.631  13.878  63.301  1.00  0.00    -0.824 OA 
HETATM    2  C   UNL     1     -12.630  12.598  63.749  1.00  0.00    -0.339 C  
HETATM    3  O   UNL     1     -13.134  11.690  63.102  1.00  0.00    -0.497 OA 
HETATM    4  C   UNL     1     -11.896  12.387  65.058  1.00  0.00    -0.388 C  
ENDROOT
BRANCH   4   5
HETATM    5  S   UNL     1     -11.889  13.917  66.077  1.00  0.00    -0.415 SA 
BRANCH   5   6
HETATM    6  C   UNL     1     -10.262  14.579  65.602  1.00  0.00    -0.357 C  
BRANCH   6   7
HETATM    7  C   UNL     1     -10.333  16.081  65.426  1.00  0.00    -0.359 C  
HETATM    8  O   UNL     1     -11.055  16.599  64.577  1.00  0.00    -0.886 OA 
HETATM    9  N   UNL     1      -9.569  16.807  66.321  1.00  0.00    -0.281 N  
HETATM   10  H   UNL     1      -8.950  16.317  66.965  1.00  0.00     0.000 HD 
BRANCH   9  11
HETATM   11  C   UNL     1      -9.634  18.267  66.356  1.00  0.00    -0.305 C  
HETATM   12  C   UNL     1     -10.348  18.848  67.573  1.00  0.00    -0.496 C  
HETATM   13  C   UNL     1      -9.929  20.300  67.714  1.00  0.00    -0.388 C  
HETATM   14  S   UNL     1      -8.167  20.342  67.294  1.00  0.00    -0.332 SA 
HETATM   15  C   UNL     1      -8.250  18.904  66.285  1.00  0.00    -0.268 C  
HETATM   16  O   UNL     1      -7.330  18.522  65.577  1.00  0.00    -0.524 OA 
ENDBRANCH   9  11
ENDBRANCH   6   7
ENDBRANCH   5   6
ENDBRANCH   4   5
TORSDOF 4
ENDMDL
MODEL        3
REMARK 921   NORMALIZED FREE ENERGY PREDICTED BY IDOCK:   -5.29 KCAL/MOL
REMARK 922        TOTAL FREE ENERGY PREDICTED BY IDOCK:   -6.85 KCAL/MOL
REMARK 923 INTER-LIGAND FREE ENERGY PREDICTED BY IDOCK:   -6.55 KCAL/MOL
REMARK 924 INTRA-LIGAND FREE ENERGY PREDICTED BY IDOCK:   -0.30 KCAL/MOL
REMARK 927      BINDING AFFINITY PREDICTED BY RF-SCORE:    0.00 PKD
ROOT
HETATM    1  O   UNL     1     -12.485  14.556  63.873  1.00  0.00    -0.814 OA 
HETATM    2  C   UNL     1     -11.636  15.489  64.373  1.00  0.00    -0.258 C  
HETATM    3  O   UNL     1     -11.600  16.629  63.931  1.00  0.00    -1.204 OA 
HETATM    4  C   UNL     1     -10.809  15.022  65.554  1.00  0.00    -0.351 C  
ENDROOT
BRANCH   4   5
HETATM    5  S   UNL     1     -10.558  13.201  65.519  1.00  0.00    -0.293 SA 
BRANCH   5   6
HETATM    6  C   UNL     1     -11.907  12.698  66.632  1.00  0.00    -0.380 C  
BRANCH   6   7
HETATM    7  C   UNL     1     -11.540  12.990  68.072  1.00  0.00    -0.343 C  
HETATM    8  O   UNL     1     -10.462  12.641  68.548  1.00  0.00    -0.235 OA 
HETATM    9  N   UNL     1     -12.484  13.714  68.776  1.00  0.00    -0.218 N  
HETATM   10  H   UNL     1     -13.381  13.926  68.341  1.00  0.00     0.000 HD 
BRANCH   9  11
HETATM   11  C   UNL     1     -12.216  14.179  70.135  1.00  0.00    -0.351 C  
HETATM   12  C   UNL     1     -12.756  15.570  70.455  1.00  0.00    -0.436 C  
HETATM   13  C   UNL     1     -12.830  15.709  71.965  1.00  0.00    -0.443 C  
HETATM   14  S   UNL     1     -13.388  14.097  72.576  1.00  0.00    -0.544 SA 
HETATM   15  C   UNL     1     -12.762  13.219  71.188  1.00  0.00    -0.320 C  
HETATM   16  O   UNL     1     -12.718  11.999  71.124  1.00  0.00    -0.364 OA 
ENDBRANCH   9  11
ENDBRANCH   6   7
ENDBRANCH   5   6
ENDBRANCH   4   5
TORSDOF 4
ENDMDL
MODEL        4
REMARK 921   NORMALIZED FREE ENERGY PREDICTED BY IDOCK:   -5.29 KCAL/MOL
REMARK 922        TOTAL FREE ENERGY PREDICTED BY IDOCK:   -6.84 KCAL/MOL
REMARK 923 INTER-LIGAND FREE ENERGY PREDICTED BY IDOCK:   -6.65 KCAL/MOL
REMARK 924 INTRA-LIGAND FREE ENERGY PREDICTED BY IDOCK:   -0.20 KCAL/MOL
REMARK 927      BINDING AFFINITY PREDICTED BY RF-SCORE:    0.00 PKD
ROOT
HETATM    1  O   UNL     1     -12.676  14.124  63.439  1.00  0.00    -0.767 OA 
HETATM    2  C   UNL     1     -12.285  12.842  63.652  1.00  0.00    -0.499 C  
HETATM    3  O   UNL     1     -12.934  11.894  63.232  1.00  0.00    -0.707 OA 
HETATM    4  C   UNL     1     -10.961  12.698  64.373  1.00  0.00    -0.351 C  
ENDROOT
BRANCH   4   5
HETATM    5  S   UNL     1     -10.617  14.153  65.443  1.00  0.00    -0.369 SA 
BRANCH   5   6
HETATM    6  C   UNL     1     -11.918  13.911  66.693  1.00  0.00    -0.442 C  
BRANCH   6   7
HETATM    7  C   UNL     1     -11.354  14.100  68.085  1.00  0.00    -0.290 C  
HETATM    8  O   UNL     1     -10.154  14.281  68.278  1.00  0.00    -0.225 OA 
HETATM    9  N   UNL     1     -12.297  14.102  69.097  1.00  0.00    -0.520 N  
HETATM   10  H   UNL     1     -13.270  13.893  68.878  1.00  0.00     0.000 HD 
BRANCH   9  11
HETATM   11  C   UNL     1     -11.918  14.400  70.477  1.00  0.00    -0.325 C  
HETATM   12  C   UNL     1     -11.975  15.877  70.854  1.00  0.00    -0.432 C  
HETATM   13  C   UNL     1     -12.031  15.974  72.368  1.00  0.00    -0.544 C  
HETATM   14  S   UNL     1     -13.103  14.615  72.905  1.00  0.00    -0.514 SA 
HETATM   15  C   UNL     1     -12.772  13.634  71.483  1.00  0.00    -0.332 C  
HETATM   16  O   UNL     1     -13.133  12.472  71.367  1.00  0.00    -0.330 OA 
ENDBRANCH   9  11
ENDBRANCH   6   7
ENDBRANCH   5   6
ENDBRANCH   4   5
TORSDOF 4
ENDMDL
MODEL        5
REMARK 921   NORMALIZED FREE ENERGY PREDICTED BY IDOCK:   -5.27 KCAL/MOL
REMARK 922        TOTAL FREE ENERGY PREDICTED BY IDOCK:   -6.82 KCAL/MOL
REMARK 923 INTER-LIGAND FREE ENERGY PREDICTED BY IDOCK:   -6.37 KCAL/MOL
REMARK 924 INTRA-LIGAND FREE ENERGY PREDICTED BY IDOCK:   -0.45 KCAL/MOL
REMARK 927      BINDING AFFINITY PREDICTED BY RF-SCORE:    0.00 PKD
ROOT
HETATM    1  O   UNL     1     -13.231  13.949  65.236  1.00  0.00    -0.774 OA 
HETATM    2  C   UNL     1     -12.303  13.603  64.309  1.00  0.00    -0.335 C  
HETATM    3  O   UNL     1     -12.507  13.744  63.111  1.00  0.00    -0.786 OA 
HETATM    4  C   UNL     1     -10.990  13.112  64.883  1.00  0.00    -0.318 C  
ENDROOT
BRANCH   4   5
HETATM    5  S   UNL     1     -11.222  12.368  66.549  1.00  0.00    -0.339 SA 
BRANCH   5   6
HETATM    6  C   UNL     1     -10.163  13.487  67.519  1.00  0.00    -0.234 C  
BRANCH   6   7
HETATM    7  C   UNL     1     -10.830  14.837  67.681  1.00  0.00    -0.285 C  
HETATM    8  O   UNL     1     -11.868  14.973  68.323  1.00  0.00    -0.327 OA 
HETATM    9  N   UNL     1     -10.153  15.891  67.095  1.00  0.00    -0.258 N  
HETATM   10  H   UNL     1      -9.326  15.705  66.530  1.00  0.00     0.000 HD 
BRANCH   9  11
HETATM   11  C   UNL     1     -10.607  17.269  67.275  1.00  0.00    -0.283 C  
HETATM   12  C   UNL     1      -9.816  18.077  68.300  1.00  0.00    -0.357 C  
HETATM   13  C   UNL     1     -10.070  19.549  68.035  1.00  0.00    -0.420 C  
HETATM   14  S   UNL     1     -10.113  19.720  66.231  1.00  0.00    -0.521 SA 
HETATM   15  C   UNL     1     -10.597  18.051  65.965  1.00  0.00    -0.251 C  
HETATM   16  O   UNL     1     -10.940  17.613  64.876  1.00  0.00    -0.886 OA 
ENDBRANCH   9  11
ENDBRANCH   6   7
ENDBRANCH   5   6
ENDBRANCH   4   5
TORSDOF 4
ENDMDL
MODEL        6
REMARK 921   NORMALIZED FREE ENERGY PREDICTED BY IDOCK:   -5.25 KCAL/MOL
REMARK 922        TOTAL FREE ENERGY PREDICTED BY IDOCK:   -6.80 KCAL/MOL
REMARK 923 INTER-LIGAND FREE ENERGY PREDICTED BY IDOCK:   -6.52 KCAL/MOL
REMARK 924 INTRA-LIGAND FREE ENERGY PREDICTED BY IDOCK:   -0.28 KCAL/MOL
REMARK 927      BINDING AFFINITY PREDICTED BY RF-SCORE:    0.00 PKD
ROOT
HETATM    1  O   UNL     1     -12.619  14.182  63.500  1.00  0.00    -0.834 OA 
HETATM    2  C   UNL     1     -12.274  12.892  63.738  1.00  0.00    -0.476 C  
HETATM    3  O   UNL     1     -13.058  11.971  63.549  1.00  0.00    -0.764 OA 
HETATM    4  C   UNL     1     -10.837  12.692  64.174  1.00  0.00    -0.396 C  
ENDROOT
BRANCH   4   5
HETATM    5  S   UNL     1     -10.178  14.188  65.015  1.00  0.00    -0.300 SA 
BRANCH   5   6
HETATM    6  C   UNL     1     -10.831  13.895  66.689  1.00  0.00    -0.289 C  
BRANCH   6   7
HETATM    7  C   UNL     1     -11.171  15.209  67.361  1.00  0.00    -0.323 C  
HETATM    8  O   UNL     1     -11.928  15.264  68.326  1.00  0.00    -0.297 OA 
HETATM    9  N   UNL     1     -10.527  16.313  66.834  1.00  0.00    -0.309 N  
HETATM   10  H   UNL     1      -9.953  16.208  65.998  1.00  0.00     0.000 HD 
BRANCH   9  11
HETATM   11  C   UNL     1     -10.657  17.629  67.457  1.00  0.00    -0.343 C  
HETATM   12  C   UNL     1      -9.691  17.891  68.610  1.00  0.00    -0.355 C  
HETATM   13  C   UNL     1      -9.612  19.392  68.823  1.00  0.00    -0.432 C  
HETATM   14  S   UNL     1      -9.638  20.122  67.165  1.00  0.00    -0.444 SA 
HETATM   15  C   UNL     1     -10.488  18.760  66.448  1.00  0.00    -0.429 C  
HETATM   16  O   UNL     1     -10.935  18.766  65.309  1.00  0.00    -0.531 OA 
ENDBRANCH   9  11
ENDBRANCH   6   7
ENDBRANCH   5   6
ENDBRANCH   4   5
TORSDOF 4
ENDMDL
MODEL        7
REMARK 921   NORMALIZED FREE ENERGY PREDICTED BY IDOCK:   -5.25 KCAL/MOL
REMARK 922        TOTAL FREE ENERGY PREDICTED BY IDOCK:   -6.80 KCAL/MOL
REMARK 923 INTER-LIGAND FREE ENERGY PREDICTED BY IDOCK:   -6.60 KCAL/MOL
REMARK 924 INTRA-LIGAND FREE ENERGY PREDICTED BY IDOCK:   -0.20 KCAL/MOL
REMARK 927      BINDING AFFINITY PREDICTED BY RF-SCORE:    0.00 PKD
ROOT
HETATM    1  O   UNL     1     -13.648  14.041  72.903  1.00  0.00    -0.676 OA 
HETATM    2  C   UNL     1     -13.017  15.242  72.896  1.00  0.00    -0.463 C  
HETATM    3  O   UNL     1     -13.295  16.119  73.702  1.00  0.00    -0.651 OA 
HETATM    4  C   UNL     1     -11.909  15.367  71.870  1.00  0.00    -0.429 C  
ENDROOT
BRANCH   4   5
HETATM    5  S   UNL     1     -12.197  14.258  70.432  1.00  0.00    -0.362 SA 
BRANCH   5   6
HETATM    6  C   UNL     1     -12.006  15.468  69.086  1.00  0.00    -0.309 C  
BRANCH   6   7
HETATM    7  C   UNL     1     -11.216  14.866  67.943  1.00  0.00    -0.315 C  
HETATM    8  O   UNL     1      -9.990  14.783  67.977  1.00  0.00    -0.214 OA 
HETATM    9  N   UNL     1     -11.983  14.382  66.900  1.00  0.00    -0.419 N  
HETATM   10  H   UNL     1     -12.991  14.531  66.907  1.00  0.00     0.000 HD 
BRANCH   9  11
HETATM   11  C   UNL     1     -11.370  13.661  65.786  1.00  0.00    -0.306 C  
HETATM   12  C   UNL     1     -11.220  12.157  66.000  1.00  0.00    -0.382 C  
HETATM   13  C   UNL     1     -11.033  11.506  64.642  1.00  0.00    -0.288 C  
HETATM   14  S   UNL     1     -12.140  12.396  63.517  1.00  0.00    -0.555 SA 
HETATM   15  C   UNL     1     -12.131  13.867  64.481  1.00  0.00    -0.443 C  
HETATM   16  O   UNL     1     -12.620  14.923  64.105  1.00  0.00    -0.785 OA 
ENDBRANCH   9  11
ENDBRANCH   6   7
ENDBRANCH   5   6
ENDBRANCH   4   5
TORSDOF 4
ENDMDL
MODEL        8
REMARK 921   NORMALIZED FREE ENERGY PREDICTED BY IDOCK:   -5.24 KCAL/MOL
REMARK 922        TOTAL FREE ENERGY PREDICTED BY IDOCK:   -6.79 KCAL/MOL
REMARK 923 INTER-LIGAND FREE ENERGY PREDICTED BY IDOCK:   -6.16 KCAL/MOL
REMARK 924 INTRA-LIGAND FREE ENERGY PREDICTED BY IDOCK:   -0.62 KCAL/MOL
REMARK 927      BINDING AFFINITY PREDICTED BY RF-SCORE:    0.00 PKD
ROOT
HETATM    1  O   UNL     1     -11.282  13.629  67.898  1.00  0.00    -0.255 OA 
HETATM    2  C   UNL     1     -11.672  12.427  67.405  1.00  0.00    -0.347 C  
HETATM    3  O   UNL     1     -12.094  11.539  68.134  1.00  0.00    -0.604 OA 
HETATM    4  C   UNL     1     -11.613  12.314  65.895  1.00  0.00    -0.393 C  
ENDROOT
BRANCH   4   5
HETATM    5  S   UNL     1     -10.346  13.443  65.187  1.00  0.00    -0.325 SA 
BRANCH   5   6
HETATM    6  C   UNL     1     -11.445  14.638  64.364  1.00  0.00    -0.263 C  
BRANCH   6   7
HETATM    7  C   UNL     1     -11.143  16.045  64.836  1.00  0.00    -0.370 C  
HETATM    8  O   UNL     1     -11.534  17.032  64.217  1.00  0.00    -1.124 OA 
HETATM    9  N   UNL     1     -10.447  16.120  66.027  1.00  0.00    -0.334 N  
HETATM   10  H   UNL     1     -10.104  15.265  66.464  1.00  0.00     0.000 HD 
BRANCH   9  11
HETATM   11  C   UNL     1     -10.193  17.407  66.671  1.00  0.00    -0.324 C  
HETATM   12  C   UNL     1     -10.726  17.529  68.096  1.00  0.00    -0.330 C  
HETATM   13  C   UNL     1      -9.999  18.675  68.774  1.00  0.00    -0.383 C  
HETATM   14  S   UNL     1      -8.283  18.571  68.200  1.00  0.00    -0.303 SA 
HETATM   15  C   UNL     1      -8.707  17.749  66.705  1.00  0.00    -0.261 C  
HETATM   16  O   UNL     1      -7.913  17.547  65.797  1.00  0.00    -0.548 OA 
ENDBRANCH   9  11
ENDBRANCH   6   7
ENDBRANCH   5   6
ENDBRANCH   4   5
TORSDOF 4
ENDMDL
MODEL        9
REMARK 921   NORMALIZED FREE ENERGY PREDICTED BY IDOCK:   -5.23 KCAL/MOL
REMARK 922        TOTAL FREE ENERGY PREDICTED BY IDOCK:   -6.77 KCAL/MOL
REMARK 923 INTER-LIGAND FREE ENERGY PREDICTED BY IDOCK:   -6.38 KCAL/MOL
REMARK 924 INTRA-LIGAND FREE ENERGY PREDICTED BY IDOCK:   -0.39 KCAL/MOL
REMARK 927      BINDING AFFINITY PREDICTED BY RF-SCORE:    0.00 PKD
ROOT
HETATM    1  O   UNL     1     -12.640  14.183  63.618  1.00  0.00    -0.831 OA 
HETATM    2  C   UNL     1     -12.285  12.875  63.676  1.00  0.00    -0.499 C  
HETATM    3  O   UNL     1     -13.066  11.983  63.375  1.00  0.00    -0.747 OA 
HETATM    4  C   UNL     1     -10.841  12.629  64.063  1.00  0.00    -0.415 C  
ENDROOT
BRANCH   4   5
HETATM    5  S   UNL     1     -10.178  14.003  65.089  1.00  0.00    -0.334 SA 
BRANCH   5   6
HETATM    6  C   UNL     1     -10.267  13.215  66.727  1.00  0.00    -0.252 C  
BRANCH   6   7
HETATM    7  C   UNL     1     -11.343  13.868  67.569  1.00  0.00    -0.318 C  
HETATM    8  O   UNL     1     -12.360  14.340  67.066  1.00  0.00    -0.386 OA 
HETATM    9  N   UNL     1     -11.109  13.842  68.932  1.00  0.00    -0.258 N  
HETATM   10  H   UNL     1     -10.221  13.484  69.282  1.00  0.00     0.000 HD 
BRANCH   9  11
HETATM   11  C   UNL     1     -12.116  14.320  69.878  1.00  0.00    -0.347 C  
HETATM   12  C   UNL     1     -12.537  13.302  70.934  1.00  0.00    -0.386 C  
HETATM   13  C   UNL     1     -13.184  14.057  72.081  1.00  0.00    -0.435 C  
HETATM   14  S   UNL     1     -12.212  15.574  72.277  1.00  0.00    -0.467 SA 
HETATM   15  C   UNL     1     -11.664  15.581  70.607  1.00  0.00    -0.357 C  
HETATM   16  O   UNL     1     -11.060  16.515  70.098  1.00  0.00    -0.348 OA 
ENDBRANCH   9  11
ENDBRANCH   6   7
ENDBRANCH   5   6
ENDBRANCH   4   5
TORSDOF 4
ENDMDL
MODEL       10
REMARK 921   NORMALIZED FREE ENERGY PREDICTED BY IDOCK:   -5.14 KCAL/MOL
REMARK 922        TOTAL FREE ENERGY PREDICTED BY IDOCK:   -6.66 KCAL/MOL
REMARK 923 INTER-LIGAND FREE ENERGY PREDICTED BY IDOCK:   -6.28 KCAL/MOL
REMARK 924 INTRA-LIGAND FREE ENERGY PREDICTED BY IDOCK:   -0.38 KCAL/MOL
REMARK 927      BINDING AFFINITY PREDICTED BY RF-SCORE:    0.00 PKD
ROOT
HETATM    1  O   UNL     1     -13.492  14.120  72.985  1.00  0.00    -0.661 OA 
HETATM    2  C   UNL     1     -12.571  15.053  73.334  1.00  0.00    -0.518 C  
HETATM    3  O   UNL     1     -12.406  15.389  74.499  1.00  0.00    -0.646 OA 
HETATM    4  C   UNL     1     -11.730  15.572  72.185  1.00  0.00    -0.476 C  
ENDROOT
BRANCH   4   5
HETATM    5  S   UNL     1     -12.630  15.448  70.586  1.00  0.00    -0.428 SA 
BRANCH   5   6
HETATM    6  C   UNL     1     -11.330  14.668  69.579  1.00  0.00    -0.280 C  
BRANCH   6   7
HETATM    7  C   UNL     1     -11.686  13.227  69.281  1.00  0.00    -0.326 C  
HETATM    8  O   UNL     1     -11.972  12.853  68.146  1.00  0.00    -0.336 OA 
HETATM    9  N   UNL     1     -11.614  12.375  70.367  1.00  0.00    -0.493 N  
HETATM   10  H   UNL     1     -11.424  12.757  71.293  1.00  0.00     0.000 HD 
BRANCH   9  11
HETATM   11  C   UNL     1     -11.806  10.935  70.209  1.00  0.00    -0.361 C  
HETATM   12  C   UNL     1     -10.544  10.154  69.853  1.00  0.00    -0.331 C  
HETATM   13  C   UNL     1     -10.785   8.694  70.188  1.00  0.00    -0.234 C  
HETATM   14  S   UNL     1     -11.729   8.698  71.734  1.00  0.00    -0.359 SA 
HETATM   15  C   UNL     1     -12.406  10.296  71.457  1.00  0.00    -0.390 C  
HETATM   16  O   UNL     1     -13.289  10.785  72.148  1.00  0.00    -0.442 OA 
ENDBRANCH   9  11
ENDBRANCH   6   7
ENDBRANCH   5   6
ENDBRANCH   4   5
TORSDOF 4
ENDMDL
MODEL       11
REMARK 921   NORMALIZED FREE ENERGY PREDICTED BY IDOCK:   -5.09 KCAL/MOL
REMARK 922        TOTAL FREE ENERGY PREDICTED BY IDOCK:   -6.60 KCAL/MOL
REMARK 923 INTER-LIGAND FREE ENERGY PREDICTED BY IDOCK:   -6.17 KCAL/MOL
REMARK 924 INTRA-LIGAND FREE ENERGY PREDICTED BY IDOCK:   -0.43 KCAL/MOL
REMARK 927      BINDING AFFINITY PREDICTED BY RF-SCORE:    0.00 PKD
ROOT
HETATM    1  O   UNL     1     -12.493  15.024  63.877  1.00  0.00    -0.790 OA 
HETATM    2  C   UNL     1     -11.394  15.670  64.343  1.00  0.00    -0.263 C  
HETATM    3  O   UNL     1     -11.304  16.890  64.312  1.00  0.00    -1.202 OA 
HETATM    4  C   UNL     1     -10.346  14.768  64.963  1.00  0.00    -0.389 C  
ENDROOT
BRANCH   4   5
HETATM    5  S   UNL     1     -10.418  13.072  64.255  1.00  0.00    -0.339 SA 
BRANCH   5   6
HETATM    6  C   UNL     1     -10.556  12.116  65.798  1.00  0.00    -0.260 C  
BRANCH   6   7
HETATM    7  C   UNL     1     -11.594  12.735  66.711  1.00  0.00    -0.370 C  
HETATM    8  O   UNL     1     -12.777  12.809  66.388  1.00  0.00    -0.155 OA 
HETATM    9  N   UNL     1     -11.112  13.156  67.936  1.00  0.00    -0.252 N  
HETATM   10  H   UNL     1     -10.110  13.117  68.122  1.00  0.00     0.000 HD 
BRANCH   9  11
HETATM   11  C   UNL     1     -12.016  13.657  68.969  1.00  0.00    -0.353 C  
HETATM   12  C   UNL     1     -12.029  12.843  70.260  1.00  0.00    -0.359 C  
HETATM   13  C   UNL     1     -12.609  13.715  71.359  1.00  0.00    -0.328 C  
HETATM   14  S   UNL     1     -11.952  15.377  71.062  1.00  0.00    -0.404 SA 
HETATM   15  C   UNL     1     -11.715  15.106  69.341  1.00  0.00    -0.332 C  
HETATM   16  O   UNL     1     -11.414  15.991  68.553  1.00  0.00    -0.370 OA 
ENDBRANCH   9  11
ENDBRANCH   6   7
ENDBRANCH   5   6
ENDBRANCH   4   5
TORSDOF 4
ENDMDL
MODEL       12
REMARK 921   NORMALIZED FREE ENERGY PREDICTED BY IDOCK:   -5.06 KCAL/MOL
REMARK 922        TOTAL FREE ENERGY PREDICTED BY IDOCK:   -6.57 KCAL/MOL
REMARK 923 INTER-LIGAND FREE ENERGY PREDICTED BY IDOCK:   -6.25 KCAL/MOL
REMARK 924 INTRA-LIGAND FREE ENERGY PREDICTED BY IDOCK:   -0.32 KCAL/MOL
REMARK 927      BINDING AFFINITY PREDICTED BY RF-SCORE:    0.00 PKD
ROOT
HETATM    1  O   UNL     1     -12.556  12.352  65.773  1.00  0.00    -0.532 OA 
HETATM    2  C   UNL     1     -12.332  12.817  64.519  1.00  0.00    -0.445 C  
HETATM    3  O   UNL     1     -12.855  12.302  63.539  1.00  0.00    -0.768 OA 
HETATM    4  C   UNL     1     -11.458  14.052  64.449  1.00  0.00    -0.344 C  
ENDROOT
BRANCH   4   5
HETATM    5  S   UNL     1     -10.314  14.145  65.886  1.00  0.00    -0.329 SA 
BRANCH   5   6
HETATM    6  C   UNL     1     -11.152  15.446  66.844  1.00  0.00    -0.256 C  
BRANCH   6   7
HETATM    7  C   UNL     1     -11.017  15.178  68.329  1.00  0.00    -0.276 C  
HETATM    8  O   UNL     1      -9.949  15.326  68.917  1.00  0.00    -0.207 OA 
HETATM    9  N   UNL     1     -12.190  14.808  68.960  1.00  0.00    -0.564 N  
HETATM   10  H   UNL     1     -13.031  14.649  68.406  1.00  0.00     0.000 HD 
BRANCH   9  11
HETATM   11  C   UNL     1     -12.242  14.639  70.411  1.00  0.00    -0.329 C  
HETATM   12  C   UNL     1     -13.272  15.513  71.122  1.00  0.00    -0.576 C  
HETATM   13  C   UNL     1     -13.541  14.907  72.487  1.00  0.00    -0.458 C  
HETATM   14  S   UNL     1     -13.545  13.112  72.231  1.00  0.00    -0.508 SA 
HETATM   15  C   UNL     1     -12.512  13.192  70.811  1.00  0.00    -0.308 C  
HETATM   16  O   UNL     1     -12.030  12.206  70.271  1.00  0.00    -0.348 OA 
ENDBRANCH   9  11
ENDBRANCH   6   7
ENDBRANCH   5   6
ENDBRANCH   4   5
TORSDOF 4
ENDMDL
MODEL       13
REMARK 921   NORMALIZED FREE ENERGY PREDICTED BY IDOCK:   -5.06 KCAL/MOL
REMARK 922        TOTAL FREE ENERGY PREDICTED BY IDOCK:   -6.56 KCAL/MOL
REMARK 923 INTER-LIGAND FREE ENERGY PREDICTED BY IDOCK:   -5.90 KCAL/MOL
REMARK 924 INTRA-LIGAND FREE ENERGY PREDICTED BY IDOCK:   -0.65 KCAL/MOL
REMARK 927      BINDING AFFINITY PREDICTED BY RF-SCORE:    0.00 PKD
ROOT
HETATM    1  O   UNL     1     -13.328  10.692  72.086  1.00  0.00    -0.444 OA 
HETATM    2  C   UNL     1     -13.477   9.344  72.137  1.00  0.00    -0.471 C  
HETATM    3  O   UNL     1     -14.407   8.823  72.738  1.00  0.00    -0.569 OA 
HETATM    4  C   UNL     1     -12.455   8.564  71.335  1.00  0.00    -0.297 C  
ENDROOT
BRANCH   4   5
HETATM    5  S   UNL     1     -10.880   9.498  71.167  1.00  0.00    -0.333 SA 
BRANCH   5   6
HETATM    6  C   UNL     1     -10.878   9.745  69.363  1.00  0.00    -0.232 C  
BRANCH   6   7
HETATM    7  C   UNL     1     -11.502  11.079  69.012  1.00  0.00    -0.299 C  
HETATM    8  O   UNL     1     -12.070  11.265  67.938  1.00  0.00    -0.634 OA 
HETATM    9  N   UNL     1     -11.423  12.036  70.007  1.00  0.00    -0.522 N  
HETATM   10  H   UNL     1     -10.891  11.838  70.854  1.00  0.00     0.000 HD 
BRANCH   9  11
HETATM   11  C   UNL     1     -12.090  13.329  69.862  1.00  0.00    -0.308 C  
HETATM   12  C   UNL     1     -12.722  13.871  71.141  1.00  0.00    -0.441 C  
HETATM   13  C   UNL     1     -12.936  15.363  70.963  1.00  0.00    -0.492 C  
HETATM   14  S   UNL     1     -11.481  15.961  70.063  1.00  0.00    -0.355 SA 
HETATM   15  C   UNL     1     -11.151  14.402  69.321  1.00  0.00    -0.271 C  
HETATM   16  O   UNL     1     -10.318  14.235  68.441  1.00  0.00    -0.234 OA 
ENDBRANCH   9  11
ENDBRANCH   6   7
ENDBRANCH   5   6
ENDBRANCH   4   5
TORSDOF 4
ENDMDL
MODEL       14
REMARK 921   NORMALIZED FREE ENERGY PREDICTED BY IDOCK:   -5.04 KCAL/MOL
REMARK 922        TOTAL FREE ENERGY PREDICTED BY IDOCK:   -6.53 KCAL/MOL
REMARK 923 INTER-LIGAND FREE ENERGY PREDICTED BY IDOCK:   -6.35 KCAL/MOL
REMARK 924 INTRA-LIGAND FREE ENERGY PREDICTED BY IDOCK:   -0.18 KCAL/MOL
REMARK 927      BINDING AFFINITY PREDICTED BY RF-SCORE:    0.00 PKD
ROOT
HETATM    1  O   UNL     1     -10.342  17.456  65.364  1.00  0.00    -0.631 OA 
HETATM    2  C   UNL     1     -10.414  18.518  66.204  1.00  0.00    -0.413 C  
HETATM    3  O   UNL     1     -10.389  19.669  65.790  1.00  0.00    -0.460 OA 
HETATM    4  C   UNL     1     -10.602  18.157  67.664  1.00  0.00    -0.406 C  
ENDROOT
BRANCH   4   5
HETATM    5  S   UNL     1      -9.914  16.493  68.038  1.00  0.00    -0.252 SA 
BRANCH   5   6
HETATM    6  C   UNL     1     -11.464  15.540  68.091  1.00  0.00    -0.326 C  
BRANCH   6   7
HETATM    7  C   UNL     1     -11.445  14.443  67.048  1.00  0.00    -0.361 C  
HETATM    8  O   UNL     1     -12.129  13.429  67.164  1.00  0.00    -0.368 OA 
HETATM    9  N   UNL     1     -10.645  14.700  65.950  1.00  0.00    -0.298 N  
HETATM   10  H   UNL     1     -10.060  15.535  65.939  1.00  0.00     0.000 HD 
BRANCH   9  11
HETATM   11  C   UNL     1     -10.624  13.792  64.805  1.00  0.00    -0.428 C  
HETATM   12  C   UNL     1     -10.276  12.345  65.140  1.00  0.00    -0.305 C  
HETATM   13  C   UNL     1     -10.750  11.470  63.993  1.00  0.00    -0.384 C  
HETATM   14  S   UNL     1     -12.335  12.173  63.466  1.00  0.00    -0.509 SA 
HETATM   15  C   UNL     1     -11.952  13.785  64.054  1.00  0.00    -0.408 C  
HETATM   16  O   UNL     1     -12.640  14.770  63.823  1.00  0.00    -0.806 OA 
ENDBRANCH   9  11
ENDBRANCH   6   7
ENDBRANCH   5   6
ENDBRANCH   4   5
TORSDOF 4
ENDMDL
MODEL       15
REMARK 921   NORMALIZED FREE ENERGY PREDICTED BY IDOCK:   -5.02 KCAL/MOL
REMARK 922        TOTAL FREE ENERGY PREDICTED BY IDOCK:   -6.51 KCAL/MOL
REMARK 923 INTER-LIGAND FREE ENERGY PREDICTED BY IDOCK:   -6.25 KCAL/MOL
REMARK 924 INTRA-LIGAND FREE ENERGY PREDICTED BY IDOCK:   -0.26 KCAL/MOL
REMARK 927      BINDING AFFINITY PREDICTED BY RF-SCORE:    0.00 PKD
ROOT
HETATM    1  O   UNL     1     -11.218  16.859  64.414  1.00  0.00    -1.159 OA 
HETATM    2  C   UNL     1     -10.717  17.483  65.509  1.00  0.00    -0.062 C  
HETATM    3  O   UNL     1     -10.668  18.703  65.588  1.00  0.00    -0.555 OA 
HETATM    4  C   UNL     1     -10.304  16.554  66.633  1.00  0.00    -0.298 C  
ENDROOT
BRANCH   4   5
HETATM    5  S   UNL     1      -9.838  14.894  65.993  1.00  0.00    -0.334 SA 
BRANCH   5   6
HETATM    6  C   UNL     1      -9.813  13.972  67.562  1.00  0.00    -0.236 C  
BRANCH   6   7
HETATM    7  C   UNL     1     -11.153  14.080  68.260  1.00  0.00    -0.254 C  
HETATM    8  O   UNL     1     -12.212  13.968  67.647  1.00  0.00    -0.352 OA 
HETATM    9  N   UNL     1     -11.081  14.263  69.628  1.00  0.00    -0.396 N  
HETATM   10  H   UNL     1     -10.173  14.403  70.069  1.00  0.00     0.000 HD 
BRANCH   9  11
HETATM   11  C   UNL     1     -12.288  14.259  70.452  1.00  0.00    -0.352 C  
HETATM   12  C   UNL     1     -12.660  12.901  71.040  1.00  0.00    -0.376 C  
HETATM   13  C   UNL     1     -13.600  13.136  72.208  1.00  0.00    -0.581 C  
HETATM   14  S   UNL     1     -12.973  14.613  73.050  1.00  0.00    -0.479 SA 
HETATM   15  C   UNL     1     -12.197  15.251  71.607  1.00  0.00    -0.365 C  
HETATM   16  O   UNL     1     -11.712  16.373  71.541  1.00  0.00    -0.448 OA 
ENDBRANCH   9  11
ENDBRANCH   6   7
ENDBRANCH   5   6
ENDBRANCH   4   5
TORSDOF 4
ENDMDL
MODEL       16
REMARK 921   NORMALIZED FREE ENERGY PREDICTED BY IDOCK:   -4.99 KCAL/MOL
REMARK 922        TOTAL FREE ENERGY PREDICTED BY IDOCK:   -6.47 KCAL/MOL
REMARK 923 INTER-LIGAND FREE ENERGY PREDICTED BY IDOCK:   -6.18 KCAL/MOL
REMARK 924 INTRA-LIGAND FREE ENERGY PREDICTED BY IDOCK:   -0.30 KCAL/MOL
REMARK 927      BINDING AFFINITY PREDICTED BY RF-SCORE:    0.00 PKD
ROOT
HETATM    1  O   UNL     1     -13.457  16.389  73.515  1.00  0.00    -0.608 OA 
HETATM    2  C   UNL     1     -12.894  15.157  73.597  1.00  0.00    -0.483 C  
HETATM    3  O   UNL     1     -12.065  14.885  74.454  1.00  0.00    -0.546 OA 
HETATM    4  C   UNL     1     -13.432  14.150  72.601  1.00  0.00    -0.534 C  
ENDROOT
BRANCH   4   5
HETATM    5  S   UNL     1     -14.072  14.977  71.089  1.00  0.00    -0.251 SA 
BRANCH   5   6
HETATM    6  C   UNL     1     -12.490  15.367  70.276  1.00  0.00    -0.374 C  
BRANCH   6   7
HETATM    7  C   UNL     1     -12.144  14.302  69.257  1.00  0.00    -0.313 C  
HETATM    8  O   UNL     1     -11.938  13.136  69.584  1.00  0.00    -0.310 OA 
HETATM    9  N   UNL     1     -12.129  14.739  67.945  1.00  0.00    -0.580 N  
HETATM   10  H   UNL     1     -12.254  15.730  67.744  1.00  0.00     0.000 HD 
BRANCH   9  11
HETATM   11  C   UNL     1     -11.936  13.800  66.841  1.00  0.00    -0.421 C  
HETATM   12  C   UNL     1     -12.785  14.080  65.605  1.00  0.00    -0.515 C  
HETATM   13  C   UNL     1     -12.153  13.360  64.428  1.00  0.00    -0.416 C  
HETATM   14  S   UNL     1     -10.363  13.539  64.651  1.00  0.00    -0.316 SA 
HETATM   15  C   UNL     1     -10.479  13.733  66.394  1.00  0.00    -0.284 C  
HETATM   16  O   UNL     1      -9.509  13.742  67.139  1.00  0.00    -0.226 OA 
ENDBRANCH   9  11
ENDBRANCH   6   7
ENDBRANCH   5   6
ENDBRANCH   4   5
TORSDOF 4
ENDMDL
MODEL       17
REMARK 921   NORMALIZED FREE ENERGY PREDICTED BY IDOCK:   -4.98 KCAL/MOL
REMARK 922        TOTAL FREE ENERGY PREDICTED BY IDOCK:   -6.46 KCAL/MOL
REMARK 923 INTER-LIGAND FREE ENERGY PREDICTED BY IDOCK:   -6.25 KCAL/MOL
REMARK 924 INTRA-LIGAND FREE ENERGY PREDICTED BY IDOCK:   -0.22 KCAL/MOL
REMARK 927      BINDING AFFINITY PREDICTED BY RF-SCORE:    0.00 PKD
ROOT
HETATM    1  O   UNL     1     -10.572  16.860  65.134  1.00  0.00    -0.679 OA 
HETATM    2  C   UNL     1     -11.292  15.879  64.534  1.00  0.00    -0.309 C  
HETATM    3  O   UNL     1     -12.202  16.133  63.757  1.00  0.00    -0.934 OA 
HETATM    4  C   UNL     1     -10.824  14.472  64.846  1.00  0.00    -0.421 C  
ENDROOT
BRANCH   4   5
HETATM    5  S   UNL     1      -9.988  14.390  66.482  1.00  0.00    -0.293 SA 
BRANCH   5   6
HETATM    6  C   UNL     1     -11.452  14.229  67.551  1.00  0.00    -0.345 C  
BRANCH   6   7
HETATM    7  C   UNL     1     -11.785  12.769  67.775  1.00  0.00    -0.359 C  
HETATM    8  O   UNL     1     -12.142  12.039  66.854  1.00  0.00    -0.608 OA 
HETATM    9  N   UNL     1     -11.607  12.326  69.073  1.00  0.00    -0.293 N  
HETATM   10  H   UNL     1     -11.361  12.995  69.803  1.00  0.00     0.000 HD 
BRANCH   9  11
HETATM   11  C   UNL     1     -11.766  10.914  69.415  1.00  0.00    -0.325 C  
HETATM   12  C   UNL     1     -10.536  10.049  69.156  1.00  0.00    -0.238 C  
HETATM   13  C   UNL     1     -10.676   8.777  69.973  1.00  0.00    -0.228 C  
HETATM   14  S   UNL     1     -11.401   9.291  71.553  1.00  0.00    -0.399 SA 
HETATM   15  C   UNL     1     -12.168  10.720  70.873  1.00  0.00    -0.384 C  
HETATM   16  O   UNL     1     -12.966  11.414  71.487  1.00  0.00    -0.432 OA 
ENDBRANCH   9  11
ENDBRANCH   6   7
ENDBRANCH   5   6
ENDBRANCH   4   5
TORSDOF 4
ENDMDL
MODEL       18
REMARK 921   NORMALIZED FREE ENERGY PREDICTED BY IDOCK:   -4.97 KCAL/MOL
REMARK 922        TOTAL FREE ENERGY PREDICTED BY IDOCK:   -6.45 KCAL/MOL
REMARK 923 INTER-LIGAND FREE ENERGY PREDICTED BY IDOCK:   -5.99 KCAL/MOL
REMARK 924 INTRA-LIGAND FREE ENERGY PREDICTED BY IDOCK:   -0.46 KCAL/MOL
REMARK 927      BINDING AFFINITY PREDICTED BY RF-SCORE:    0.00 PKD
ROOT
HETATM    1  O   UNL     1     -10.436  16.560  65.001  1.00  0.00    -0.652 OA 
HETATM    2  C   UNL     1     -11.428  15.771  64.518  1.00  0.00    -0.289 C  
HETATM    3  O   UNL     1     -12.284  16.206  63.759  1.00  0.00    -0.934 OA 
HETATM    4  C   UNL     1     -11.337  14.316  64.932  1.00  0.00    -0.372 C  
ENDROOT
BRANCH   4   5
HETATM    5  S   UNL     1     -10.453  14.129  66.533  1.00  0.00    -0.285 SA 
BRANCH   5   6
HETATM    6  C   UNL     1     -11.744  14.751  67.655  1.00  0.00    -0.341 C  
BRANCH   6   7
HETATM    7  C   UNL     1     -11.250  15.970  68.404  1.00  0.00    -0.364 C  
HETATM    8  O   UNL     1     -11.483  16.133  69.600  1.00  0.00    -0.327 OA 
HETATM    9  N   UNL     1     -10.486  16.843  67.652  1.00  0.00    -0.325 N  
HETATM   10  H   UNL     1     -10.375  16.680  66.652  1.00  0.00     0.000 HD 
BRANCH   9  11
HETATM   11  C   UNL     1      -9.836  17.998  68.269  1.00  0.00    -0.355 C  
HETATM   12  C   UNL     1      -8.328  17.860  68.457  1.00  0.00    -0.305 C  
HETATM   13  C   UNL     1      -7.748  19.250  68.643  1.00  0.00    -0.359 C  
HETATM   14  S   UNL     1      -8.665  20.317  67.501  1.00  0.00    -0.278 SA 
HETATM   15  C   UNL     1     -10.087  19.283  67.486  1.00  0.00    -0.389 C  
HETATM   16  O   UNL     1     -11.148  19.600  66.967  1.00  0.00    -0.412 OA 
ENDBRANCH   9  11
ENDBRANCH   6   7
ENDBRANCH   5   6
ENDBRANCH   4   5
TORSDOF 4
ENDMDL
MODEL       19
REMARK 921   NORMALIZED FREE ENERGY PREDICTED BY IDOCK:   -4.89 KCAL/MOL
REMARK 922        TOTAL FREE ENERGY PREDICTED BY IDOCK:   -6.35 KCAL/MOL
REMARK 923 INTER-LIGAND FREE ENERGY PREDICTED BY IDOCK:   -6.51 KCAL/MOL
REMARK 924 INTRA-LIGAND FREE ENERGY PREDICTED BY IDOCK:    0.16 KCAL/MOL
REMARK 927      BINDING AFFINITY PREDICTED BY RF-SCORE:    0.00 PKD
ROOT
HETATM    1  O   UNL     1     -13.104  14.080  65.449  1.00  0.00    -0.763 OA 
HETATM    2  C   UNL     1     -12.628  12.868  65.071  1.00  0.00    -0.472 C  
HETATM    3  O   UNL     1     -13.251  12.141  64.309  1.00  0.00    -0.768 OA 
HETATM    4  C   UNL     1     -11.249  12.537  65.604  1.00  0.00    -0.317 C  
ENDROOT
BRANCH   4   5
HETATM    5  S   UNL     1     -10.911  13.416  67.183  1.00  0.00    -0.285 SA 
BRANCH   5   6
HETATM    6  C   UNL     1     -11.837  12.338  68.322  1.00  0.00    -0.310 C  
BRANCH   6   7
HETATM    7  C   UNL     1     -12.223  13.100  69.572  1.00  0.00    -0.158 C  
HETATM    8  O   UNL     1     -12.119  12.602  70.691  1.00  0.00    -0.357 OA 
HETATM    9  N   UNL     1     -12.649  14.397  69.353  1.00  0.00    -0.532 N  
HETATM   10  H   UNL     1     -12.765  14.733  68.398  1.00  0.00     0.000 HD 
BRANCH   9  11
HETATM   11  C   UNL     1     -12.934  15.295  70.471  1.00  0.00    -0.333 C  
HETATM   12  C   UNL     1     -14.080  14.849  71.375  1.00  0.00    -0.552 C  
HETATM   13  C   UNL     1     -13.946  15.581  72.698  1.00  0.00    -0.528 C  
HETATM   14  S   UNL     1     -12.168  15.635  73.047  1.00  0.00    -0.517 SA 
HETATM   15  C   UNL     1     -11.711  15.518  71.354  1.00  0.00    -0.408 C  
HETATM   16  O   UNL     1     -10.565  15.666  70.952  1.00  0.00    -0.204 OA 
ENDBRANCH   9  11
ENDBRANCH   6   7
ENDBRANCH   5   6
ENDBRANCH   4   5
TORSDOF 4
ENDMDL
MODEL       20
REMARK 921   NORMALIZED FREE ENERGY PREDICTED BY IDOCK:   -4.87 KCAL/MOL
REMARK 922        TOTAL FREE ENERGY PREDICTED BY IDOCK:   -6.32 KCAL/MOL
REMARK 923 INTER-LIGAND FREE ENERGY PREDICTED BY IDOCK:   -6.03 KCAL/MOL
REMARK 924 INTRA-LIGAND FREE ENERGY PREDICTED BY IDOCK:   -0.29 KCAL/MOL
REMARK 927      BINDING AFFINITY PREDICTED BY RF-SCORE:    0.00 PKD
ROOT
HETATM    1  O   UNL     1     -12.500   8.552  71.391  1.00  0.00    -0.308 OA 
HETATM    2  C   UNL     1     -13.338   9.483  71.911  1.00  0.00    -0.437 C  
HETATM    3  O   UNL     1     -14.255   9.176  72.661  1.00  0.00    -0.551 OA 
HETATM    4  C   UNL     1     -12.995  10.914  71.550  1.00  0.00    -0.451 C  
ENDROOT
BRANCH   4   5
HETATM    5  S   UNL     1     -12.096  11.005  69.948  1.00  0.00    -0.363 SA 
BRANCH   5   6
HETATM    6  C   UNL     1     -11.987  12.813  69.776  1.00  0.00    -0.292 C  
BRANCH   6   7
HETATM    7  C   UNL     1     -11.504  13.183  68.389  1.00  0.00    -0.315 C  
HETATM    8  O   UNL     1     -10.868  14.213  68.179  1.00  0.00    -0.239 OA 
HETATM    9  N   UNL     1     -11.794  12.254  67.407  1.00  0.00    -0.322 N  
HETATM   10  H   UNL     1     -12.373  11.446  67.635  1.00  0.00     0.000 HD 
BRANCH   9  11
HETATM   11  C   UNL     1     -11.284  12.412  66.047  1.00  0.00    -0.335 C  
HETATM   12  C   UNL     1     -10.620  11.168  65.462  1.00  0.00    -0.289 C  
HETATM   13  C   UNL     1     -10.583  11.322  63.952  1.00  0.00    -0.391 C  
HETATM   14  S   UNL     1     -12.159  12.096  63.502  1.00  0.00    -0.531 SA 
HETATM   15  C   UNL     1     -12.373  12.853  65.074  1.00  0.00    -0.485 C  
HETATM   16  O   UNL     1     -13.247  13.674  65.314  1.00  0.00    -0.724 OA 
ENDBRANCH   9  11
ENDBRANCH   6   7
ENDBRANCH   5   6
ENDBRANCH   4   5
TORSDOF 4
ENDMDL
MODEL       21
REMARK 921   NORMALIZED FREE ENERGY PREDICTED BY IDOCK:   -4.86 KCAL/MOL
REMARK 922        TOTAL FREE ENERGY PREDICTED BY IDOCK:   -6.32 KCAL/MOL
REMARK 923 INTER-LIGAND FREE ENERGY PREDICTED BY IDOCK:   -6.08 KCAL/MOL
REMARK 924 INTRA-LIGAND FREE ENERGY PREDICTED BY IDOCK:   -0.24 KCAL/MOL
REMARK 927      BINDING AFFINITY PREDICTED BY RF-SCORE:    0.00 PKD
ROOT
HETATM    1  O   UNL     1     -13.516  14.345  73.128  1.00  0.00    -0.625 OA 
HETATM    2  C   UNL     1     -12.795  15.488  73.244  1.00  0.00    -0.517 C  
HETATM    3  O   UNL     1     -12.834  16.173  74.257  1.00  0.00    -0.681 OA 
HETATM    4  C   UNL     1     -11.898  15.792  72.061  1.00  0.00    -0.490 C  
ENDROOT
BRANCH   4   5
HETATM    5  S   UNL     1     -12.555  15.049  70.512  1.00  0.00    -0.365 SA 
BRANCH   5   6
HETATM    6  C   UNL     1     -11.004  14.920  69.569  1.00  0.00    -0.273 C  
BRANCH   6   7
HETATM    7  C   UNL     1     -11.024  15.867  68.387  1.00  0.00    -0.331 C  
HETATM    8  O   UNL     1     -11.667  15.618  67.370  1.00  0.00    -0.090 OA 
HETATM    9  N   UNL     1     -10.310  17.036  68.570  1.00  0.00    -0.336 N  
HETATM   10  H   UNL     1      -9.753  17.158  69.415  1.00  0.00     0.000 HD 
BRANCH   9  11
HETATM   11  C   UNL     1     -10.340  18.101  67.569  1.00  0.00    -0.392 C  
HETATM   12  C   UNL     1     -10.285  19.517  68.136  1.00  0.00    -0.556 C  
HETATM   13  C   UNL     1      -9.850  20.452  67.022  1.00  0.00    -0.453 C  
HETATM   14  S   UNL     1      -8.590  19.544  66.088  1.00  0.00    -0.234 SA 
HETATM   15  C   UNL     1      -9.209  17.966  66.554  1.00  0.00    -0.273 C  
HETATM   16  O   UNL     1      -8.815  16.916  66.068  1.00  0.00    -0.464 OA 
ENDBRANCH   9  11
ENDBRANCH   6   7
ENDBRANCH   5   6
ENDBRANCH   4   5
TORSDOF 4
ENDMDL
MODEL       22
REMARK 921   NORMALIZED FREE ENERGY PREDICTED BY IDOCK:   -4.86 KCAL/MOL
REMARK 922        TOTAL FREE ENERGY PREDICTED BY IDOCK:   -6.32 KCAL/MOL
REMARK 923 INTER-LIGAND FREE ENERGY PREDICTED BY IDOCK:   -5.90 KCAL/MOL
REMARK 924 INTRA-LIGAND FREE ENERGY PREDICTED BY IDOCK:   -0.42 KCAL/MOL
REMARK 927      BINDING AFFINITY PREDICTED BY RF-SCORE:    0.00 PKD
ROOT
HETATM    1  O   UNL     1     -12.117  13.918  69.671  1.00  0.00    -0.321 OA 
HETATM    2  C   UNL     1     -12.454  15.028  70.375  1.00  0.00    -0.356 C  
HETATM    3  O   UNL     1     -13.584  15.193  70.814  1.00  0.00    -0.353 OA 
HETATM    4  C   UNL     1     -11.308  15.986  70.630  1.00  0.00    -0.399 C  
ENDROOT
BRANCH   4   5
HETATM    5  S   UNL     1     -10.018  15.851  69.327  1.00  0.00    -0.268 SA 
BRANCH   5   6
HETATM    6  C   UNL     1     -10.776  16.906  68.053  1.00  0.00    -0.364 C  
BRANCH   6   7
HETATM    7  C   UNL     1     -10.531  16.328  66.674  1.00  0.00    -0.290 C  
HETATM    8  O   UNL     1      -9.919  16.952  65.811  1.00  0.00    -0.510 OA 
HETATM    9  N   UNL     1     -11.003  15.041  66.493  1.00  0.00    -0.325 N  
HETATM   10  H   UNL     1     -11.550  14.598  67.230  1.00  0.00     0.000 HD 
BRANCH   9  11
HETATM   11  C   UNL     1     -10.730  14.306  65.259  1.00  0.00    -0.366 C  
HETATM   12  C   UNL     1     -10.266  12.867  65.460  1.00  0.00    -0.299 C  
HETATM   13  C   UNL     1     -10.484  12.117  64.158  1.00  0.00    -0.362 C  
HETATM   14  S   UNL     1     -12.058  12.730  63.500  1.00  0.00    -0.532 SA 
HETATM   15  C   UNL     1     -11.941  14.275  64.331  1.00  0.00    -0.456 C  
HETATM   16  O   UNL     1     -12.701  15.211  64.127  1.00  0.00    -0.694 OA 
ENDBRANCH   9  11
ENDBRANCH   6   7
ENDBRANCH   5   6
ENDBRANCH   4   5
TORSDOF 4
ENDMDL
MODEL       23
REMARK 921   NORMALIZED FREE ENERGY PREDICTED BY IDOCK:   -4.86 KCAL/MOL
REMARK 922        TOTAL FREE ENERGY PREDICTED BY IDOCK:   -6.31 KCAL/MOL
REMARK 923 INTER-LIGAND FREE ENERGY PREDICTED BY IDOCK:   -6.05 KCAL/MOL
REMARK 924 INTRA-LIGAND FREE ENERGY PREDICTED BY IDOCK:   -0.26 KCAL/MOL
REMARK 927      BINDING AFFINITY PREDICTED BY RF-SCORE:    0.00 PKD
ROOT
HETATM    1  O   UNL     1      -8.816  19.920  68.429  1.00  0.00    -0.286 OA 
HETATM    2  C   UNL     1      -8.261  20.413  67.294  1.00  0.00    -0.336 C  
HETATM    3  O   UNL     1      -7.388  21.270  67.324  1.00  0.00    -0.484 OA 
HETATM    4  C   UNL     1      -8.755  19.764  66.016  1.00  0.00    -0.265 C  
ENDROOT
BRANCH   4   5
HETATM    5  S   UNL     1     -10.455  19.094  66.218  1.00  0.00    -0.460 SA 
BRANCH   5   6
HETATM    6  C   UNL     1     -10.052  17.331  66.429  1.00  0.00    -0.316 C  
BRANCH   6   7
HETATM    7  C   UNL     1     -10.729  16.503  65.357  1.00  0.00    -0.259 C  
HETATM    8  O   UNL     1     -11.298  17.024  64.401  1.00  0.00    -1.140 OA 
HETATM    9  N   UNL     1     -10.609  15.135  65.519  1.00  0.00    -0.338 N  
HETATM   10  H   UNL     1     -10.172  14.766  66.363  1.00  0.00     0.000 HD 
BRANCH   9  11
HETATM   11  C   UNL     1     -11.101  14.211  64.500  1.00  0.00    -0.330 C  
HETATM   12  C   UNL     1     -10.199  13.008  64.235  1.00  0.00    -0.316 C  
HETATM   13  C   UNL     1     -11.030  11.940  63.548  1.00  0.00    -0.432 C  
HETATM   14  S   UNL     1     -12.655  11.997  64.348  1.00  0.00    -0.046 SA 
HETATM   15  C   UNL     1     -12.492  13.679  64.830  1.00  0.00    -0.384 C  
HETATM   16  O   UNL     1     -13.407  14.337  65.306  1.00  0.00    -0.660 OA 
ENDBRANCH   9  11
ENDBRANCH   6   7
ENDBRANCH   5   6
ENDBRANCH   4   5
TORSDOF 4
ENDMDL
MODEL       24
REMARK 921   NORMALIZED FREE ENERGY PREDICTED BY IDOCK:   -4.75 KCAL/MOL
REMARK 922        TOTAL FREE ENERGY PREDICTED BY IDOCK:   -6.18 KCAL/MOL
REMARK 923 INTER-LIGAND FREE ENERGY PREDICTED BY IDOCK:   -5.96 KCAL/MOL
REMARK 924 INTRA-LIGAND FREE ENERGY PREDICTED BY IDOCK:   -0.21 KCAL/MOL
REMARK 927      BINDING AFFINITY PREDICTED BY RF-SCORE:    0.00 PKD
ROOT
HETATM    1  O   UNL     1     -11.748  16.454  72.209  1.00  0.00    -0.508 OA 
HETATM    2  C   UNL     1     -12.583  16.047  73.198  1.00  0.00    -0.520 C  
HETATM    3  O   UNL     1     -12.604  16.598  74.290  1.00  0.00    -0.683 OA 
HETATM    4  C   UNL     1     -13.522  14.923  72.809  1.00  0.00    -0.466 C  
ENDROOT
BRANCH   4   5
HETATM    5  S   UNL     1     -12.811  13.890  71.464  1.00  0.00    -0.362 SA 
BRANCH   5   6
HETATM    6  C   UNL     1     -13.472  12.268  71.961  1.00  0.00    -0.316 C  
BRANCH   6   7
HETATM    7  C   UNL     1     -12.762  11.158  71.213  1.00  0.00    -0.426 C  
HETATM    8  O   UNL     1     -12.277  11.337  70.099  1.00  0.00    -0.313 OA 
HETATM    9  N   UNL     1     -12.667   9.964  71.903  1.00  0.00    -0.408 N  
HETATM   10  H   UNL     1     -13.138   9.863  72.802  1.00  0.00     0.000 HD 
BRANCH   9  11
HETATM   11  C   UNL     1     -11.901   8.842  71.363  1.00  0.00    -0.317 C  
HETATM   12  C   UNL     1     -10.486   8.705  71.918  1.00  0.00    -0.410 C  
HETATM   13  C   UNL     1     -10.012   7.288  71.650  1.00  0.00    -0.180 C  
HETATM   14  S   UNL     1     -11.456   6.230  71.928  1.00  0.00    -0.308 SA 
HETATM   15  C   UNL     1     -12.610   7.508  71.576  1.00  0.00    -0.355 C  
HETATM   16  O   UNL     1     -13.813   7.319  71.456  1.00  0.00    -0.393 OA 
ENDBRANCH   9  11
ENDBRANCH   6   7
ENDBRANCH   5   6
ENDBRANCH   4   5
TORSDOF 4
ENDMDL
MODEL       25
REMARK 921   NORMALIZED FREE ENERGY PREDICTED BY IDOCK:   -4.74 KCAL/MOL
REMARK 922        TOTAL FREE ENERGY PREDICTED BY IDOCK:   -6.16 KCAL/MOL
REMARK 923 INTER-LIGAND FREE ENERGY PREDICTED BY IDOCK:   -5.91 KCAL/MOL
REMARK 924 INTRA-LIGAND FREE ENERGY PREDICTED BY IDOCK:   -0.26 KCAL/MOL
REMARK 927      BINDING AFFINITY PREDICTED BY RF-SCORE:    0.00 PKD
ROOT
HETATM    1  O   UNL     1     -10.936  11.624  63.477  1.00  0.00    -0.397 OA 
HETATM    2  C   UNL     1     -12.146  12.046  63.923  1.00  0.00    -0.457 C  
HETATM    3  O   UNL     1     -13.152  11.962  63.231  1.00  0.00    -0.674 OA 
HETATM    4  C   UNL     1     -12.153  12.548  65.353  1.00  0.00    -0.435 C  
ENDROOT
BRANCH   4   5
HETATM    5  S   UNL     1     -10.504  13.196  65.844  1.00  0.00    -0.284 SA 
BRANCH   5   6
HETATM    6  C   UNL     1     -10.559  14.807  64.999  1.00  0.00    -0.429 C  
BRANCH   6   7
HETATM    7  C   UNL     1      -9.756  15.835  65.770  1.00  0.00    -0.337 C  
HETATM    8  O   UNL     1      -8.580  15.644  66.070  1.00  0.00    -0.242 OA 
HETATM    9  N   UNL     1     -10.435  17.004  66.057  1.00  0.00    -0.316 N  
HETATM   10  H   UNL     1     -11.426  17.079  65.829  1.00  0.00     0.000 HD 
BRANCH   9  11
HETATM   11  C   UNL     1      -9.754  18.136  66.683  1.00  0.00    -0.334 C  
HETATM   12  C   UNL     1     -10.191  19.508  66.178  1.00  0.00    -0.588 C  
HETATM   13  C   UNL     1      -9.779  20.542  67.209  1.00  0.00    -0.460 C  
HETATM   14  S   UNL     1     -10.077  19.768  68.821  1.00  0.00    -0.327 SA 
HETATM   15  C   UNL     1      -9.912  18.132  68.200  1.00  0.00    -0.359 C  
HETATM   16  O   UNL     1      -9.866  17.140  68.915  1.00  0.00    -0.271 OA 
ENDBRANCH   9  11
ENDBRANCH   6   7
ENDBRANCH   5   6
ENDBRANCH   4   5
TORSDOF 4
ENDMDL
MODEL       26
REMARK 921   NORMALIZED FREE ENERGY PREDICTED BY IDOCK:   -4.71 KCAL/MOL
REMARK 922        TOTAL FREE ENERGY PREDICTED BY IDOCK:   -6.12 KCAL/MOL
REMARK 923 INTER-LIGAND FREE ENERGY PREDICTED BY IDOCK:   -5.95 KCAL/MOL
REMARK 924 INTRA-LIGAND FREE ENERGY PREDICTED BY IDOCK:   -0.17 KCAL/MOL
REMARK 927      BINDING AFFINITY PREDICTED BY RF-SCORE:    0.00 PKD
ROOT
HETATM    1  O   UNL     1     -13.244  13.980  65.201  1.00  0.00    -0.768 OA 
HETATM    2  C   UNL     1     -12.289  13.377  64.449  1.00  0.00    -0.341 C  
HETATM    3  O   UNL     1     -12.550  12.859  63.372  1.00  0.00    -0.709 OA 
HETATM    4  C   UNL     1     -10.887  13.470  65.016  1.00  0.00    -0.340 C  
ENDROOT
BRANCH   4   5
HETATM    5  S   UNL     1     -10.913  13.639  66.847  1.00  0.00    -0.293 SA 
BRANCH   5   6
HETATM    6  C   UNL     1     -11.631  12.023  67.279  1.00  0.00    -0.313 C  
BRANCH   6   7
HETATM    7  C   UNL     1     -11.762  11.889  68.782  1.00  0.00    -0.321 C  
HETATM    8  O   UNL     1     -11.829  12.872  69.515  1.00  0.00    -0.308 OA 
HETATM    9  N   UNL     1     -11.848  10.588  69.243  1.00  0.00    -0.493 N  
HETATM   10  H   UNL     1     -11.730   9.815  68.589  1.00  0.00     0.000 HD 
BRANCH   9  11
HETATM   11  C   UNL     1     -12.103  10.305  70.653  1.00  0.00    -0.338 C  
HETATM   12  C   UNL     1     -13.512   9.805  70.962  1.00  0.00    -0.243 C  
HETATM   13  C   UNL     1     -13.481   9.121  72.317  1.00  0.00    -0.486 C  
HETATM   14  S   UNL     1     -11.909   8.219  72.372  1.00  0.00    -0.370 SA 
HETATM   15  C   UNL     1     -11.119   9.288  71.221  1.00  0.00    -0.357 C  
HETATM   16  O   UNL     1      -9.921   9.247  70.974  1.00  0.00    -0.270 OA 
ENDBRANCH   9  11
ENDBRANCH   6   7
ENDBRANCH   5   6
ENDBRANCH   4   5
TORSDOF 4
ENDMDL
MODEL       27
REMARK 921   NORMALIZED FREE ENERGY PREDICTED BY IDOCK:   -4.63 KCAL/MOL
REMARK 922        TOTAL FREE ENERGY PREDICTED BY IDOCK:   -6.03 KCAL/MOL
REMARK 923 INTER-LIGAND FREE ENERGY PREDICTED BY IDOCK:   -6.10 KCAL/MOL
REMARK 924 INTRA-LIGAND FREE ENERGY PREDICTED BY IDOCK:    0.07 KCAL/MOL
REMARK 927      BINDING AFFINITY PREDICTED BY RF-SCORE:    0.00 PKD
ROOT
HETATM    1  O   UNL     1      -9.207  18.162  65.766  1.00  0.00    -0.469 OA 
HETATM    2  C   UNL     1      -9.943  19.061  66.467  1.00  0.00    -0.385 C  
HETATM    3  O   UNL     1     -10.092  20.212  66.079  1.00  0.00    -0.460 OA 
HETATM    4  C   UNL     1     -10.613  18.501  67.705  1.00  0.00    -0.414 C  
ENDROOT
BRANCH   4   5
HETATM    5  S   UNL     1      -9.683  17.065  68.379  1.00  0.00    -0.291 SA 
BRANCH   5   6
HETATM    6  C   UNL     1     -11.035  15.848  68.450  1.00  0.00    -0.331 C  
BRANCH   6   7
HETATM    7  C   UNL     1     -11.145  15.103  67.136  1.00  0.00    -0.335 C  
HETATM    8  O   UNL     1     -10.191  15.004  66.368  1.00  0.00    -0.260 OA 
HETATM    9  N   UNL     1     -12.373  14.513  66.905  1.00  0.00    -0.509 N  
HETATM   10  H   UNL     1     -13.141  14.678  67.556  1.00  0.00     0.000 HD 
BRANCH   9  11
HETATM   11  C   UNL     1     -12.590  13.656  65.740  1.00  0.00    -0.461 C  
HETATM   12  C   UNL     1     -12.201  14.280  64.403  1.00  0.00    -0.471 C  
HETATM   13  C   UNL     1     -12.027  13.159  63.395  1.00  0.00    -0.483 C  
HETATM   14  S   UNL     1     -11.230  11.807  64.301  1.00  0.00    -0.329 SA 
HETATM   15  C   UNL     1     -11.850  12.327  65.861  1.00  0.00    -0.354 C  
HETATM   16  O   UNL     1     -11.749  11.664  66.884  1.00  0.00    -0.552 OA 
ENDBRANCH   9  11
ENDBRANCH   6   7
ENDBRANCH   5   6
ENDBRANCH   4   5
TORSDOF 4
ENDMDL
MODEL       28
REMARK 921   NORMALIZED FREE ENERGY PREDICTED BY IDOCK:   -4.62 KCAL/MOL
REMARK 922        TOTAL FREE ENERGY PREDICTED BY IDOCK:   -6.02 KCAL/MOL
REMARK 923 INTER-LIGAND FREE ENERGY PREDICTED BY IDOCK:   -5.76 KCAL/MOL
REMARK 924 INTRA-LIGAND FREE ENERGY PREDICTED BY IDOCK:   -0.26 KCAL/MOL
REMARK 927      BINDING AFFINITY PREDICTED BY RF-SCORE:    0.00 PKD
ROOT
HETATM    1  O   UNL     1     -10.126  10.336  65.054  1.00  0.00    -0.323 OA 
HETATM    2  C   UNL     1     -10.006  10.845  63.802  1.00  0.00    -0.351 C  
HETATM    3  O   UNL     1      -9.404  10.247  62.920  1.00  0.00    -0.274 OA 
HETATM    4  C   UNL     1     -10.735  12.154  63.580  1.00  0.00    -0.457 C  
ENDROOT
BRANCH   4   5
HETATM    5  S   UNL     1     -10.910  13.099  65.147  1.00  0.00    -0.317 SA 
BRANCH   5   6
HETATM    6  C   UNL     1     -11.976  14.452  64.556  1.00  0.00    -0.472 C  
BRANCH   6   7
HETATM    7  C   UNL     1     -11.319  15.792  64.814  1.00  0.00    -0.314 C  
HETATM    8  O   UNL     1     -11.495  16.752  64.067  1.00  0.00    -1.198 OA 
HETATM    9  N   UNL     1     -10.560  15.853  65.968  1.00  0.00    -0.326 N  
HETATM   10  H   UNL     1     -10.409  15.007  66.516  1.00  0.00     0.000 HD 
BRANCH   9  11
HETATM   11  C   UNL     1      -9.970  17.114  66.414  1.00  0.00    -0.306 C  
HETATM   12  C   UNL     1     -10.755  17.840  67.502  1.00  0.00    -0.315 C  
HETATM   13  C   UNL     1      -9.820  18.827  68.177  1.00  0.00    -0.352 C  
HETATM   14  S   UNL     1      -8.220  17.983  68.291  1.00  0.00    -0.298 SA 
HETATM   15  C   UNL     1      -8.542  16.931  66.920  1.00  0.00    -0.214 C  
HETATM   16  O   UNL     1      -7.699  16.205  66.413  1.00  0.00    -0.241 OA 
ENDBRANCH   9  11
ENDBRANCH   6   7
ENDBRANCH   5   6
ENDBRANCH   4   5
TORSDOF 4
ENDMDL
MODEL       29
REMARK 921   NORMALIZED FREE ENERGY PREDICTED BY IDOCK:   -4.62 KCAL/MOL
REMARK 922        TOTAL FREE ENERGY PREDICTED BY IDOCK:   -6.02 KCAL/MOL
REMARK 923 INTER-LIGAND FREE ENERGY PREDICTED BY IDOCK:   -5.87 KCAL/MOL
REMARK 924 INTRA-LIGAND FREE ENERGY PREDICTED BY IDOCK:   -0.15 KCAL/MOL
REMARK 927      BINDING AFFINITY PREDICTED BY RF-SCORE:    0.00 PKD
ROOT
HETATM    1  O   UNL     1      -7.359  18.777  65.623  1.00  0.00    -0.474 OA 
HETATM    2  C   UNL     1      -6.993  19.586  66.649  1.00  0.00    -0.207 C  
HETATM    3  O   UNL     1      -5.855  19.580  67.098  1.00  0.00    -0.175 OA 
HETATM    4  C   UNL     1      -8.076  20.532  67.126  1.00  0.00    -0.302 C  
ENDROOT
BRANCH   4   5
HETATM    5  S   UNL     1      -9.753  19.853  66.794  1.00  0.00    -0.449 SA 
BRANCH   5   6
HETATM    6  C   UNL     1      -9.823  18.592  68.104  1.00  0.00    -0.346 C  
BRANCH   6   7
HETATM    7  C   UNL     1     -10.195  17.245  67.521  1.00  0.00    -0.328 C  
HETATM    8  O   UNL     1     -11.101  16.563  67.995  1.00  0.00    -0.345 OA 
HETATM    9  N   UNL     1      -9.473  16.878  66.400  1.00  0.00    -0.271 N  
HETATM   10  H   UNL     1      -8.698  17.463  66.089  1.00  0.00     0.000 HD 
BRANCH   9  11
HETATM   11  C   UNL     1      -9.805  15.666  65.654  1.00  0.00    -0.333 C  
HETATM   12  C   UNL     1      -9.997  14.418  66.511  1.00  0.00    -0.291 C  
HETATM   13  C   UNL     1     -10.778  13.404  65.695  1.00  0.00    -0.277 C  
HETATM   14  S   UNL     1     -12.012  14.363  64.778  1.00  0.00    -0.464 SA 
HETATM   15  C   UNL     1     -11.060  15.841  64.806  1.00  0.00    -0.400 C  
HETATM   16  O   UNL     1     -11.351  16.843  64.168  1.00  0.00    -1.208 OA 
ENDBRANCH   9  11
ENDBRANCH   6   7
ENDBRANCH   5   6
ENDBRANCH   4   5
TORSDOF 4
ENDMDL
MODEL       30
REMARK 921   NORMALIZED FREE ENERGY PREDICTED BY IDOCK:   -4.62 KCAL/MOL
REMARK 922        TOTAL FREE ENERGY PREDICTED BY IDOCK:   -6.02 KCAL/MOL
REMARK 923 INTER-LIGAND FREE ENERGY PREDICTED BY IDOCK:   -5.34 KCAL/MOL
REMARK 924 INTRA-LIGAND FREE ENERGY PREDICTED BY IDOCK:   -0.68 KCAL/MOL
REMARK 927      BINDING AFFINITY PREDICTED BY RF-SCORE:    0.00 PKD
ROOT
HETATM    1  O   UNL     1     -11.873  15.416  64.559  1.00  0.00    -0.382 OA 
HETATM    2  C   UNL     1     -12.229  14.124  64.355  1.00  0.00    -0.439 C  
HETATM    3  O   UNL     1     -12.701  13.747  63.291  1.00  0.00    -0.783 OA 
HETATM    4  C   UNL     1     -11.924  13.194  65.512  1.00  0.00    -0.412 C  
ENDROOT
BRANCH   4   5
HETATM    5  S   UNL     1     -11.906  14.099  67.113  1.00  0.00    -0.430 SA 
BRANCH   5   6
HETATM    6  C   UNL     1     -10.125  14.013  67.478  1.00  0.00    -0.237 C  
BRANCH   6   7
HETATM    7  C   UNL     1      -9.432  15.284  67.032  1.00  0.00    -0.223 C  
HETATM    8  O   UNL     1      -8.275  15.279  66.620  1.00  0.00    -0.226 OA 
HETATM    9  N   UNL     1     -10.219  16.420  67.080  1.00  0.00    -0.278 N  
HETATM   10  H   UNL     1     -11.154  16.367  67.483  1.00  0.00     0.000 HD 
BRANCH   9  11
HETATM   11  C   UNL     1      -9.729  17.696  66.563  1.00  0.00    -0.304 C  
HETATM   12  C   UNL     1     -10.751  18.498  65.761  1.00  0.00    -0.193 C  
HETATM   13  C   UNL     1     -10.282  19.940  65.711  1.00  0.00    -0.386 C  
HETATM   14  S   UNL     1      -9.588  20.285  67.350  1.00  0.00    -0.443 SA 
HETATM   15  C   UNL     1      -9.202  18.600  67.672  1.00  0.00    -0.281 C  
HETATM   16  O   UNL     1      -8.540  18.231  68.632  1.00  0.00    -0.320 OA 
ENDBRANCH   9  11
ENDBRANCH   6   7
ENDBRANCH   5   6
ENDBRANCH   4   5
TORSDOF 4
ENDMDL
MODEL       31
REMARK 921   NORMALIZED FREE ENERGY PREDICTED BY IDOCK:   -4.57 KCAL/MOL
REMARK 922        TOTAL FREE ENERGY PREDICTED BY IDOCK:   -5.96 KCAL/MOL
REMARK 923 INTER-LIGAND FREE ENERGY PREDICTED BY IDOCK:   -5.62 KCAL/MOL
REMARK 924 INTRA-LIGAND FREE ENERGY PREDICTED BY IDOCK:   -0.35 KCAL/MOL
REMARK 927      BINDING AFFINITY PREDICTED BY RF-SCORE:    0.00 PKD
ROOT
HETATM    1  O   UNL     1     -12.655  13.991  63.271  1.00  0.00    -0.801 OA 
HETATM    2  C   UNL     1     -12.111  12.799  63.620  1.00  0.00    -0.543 C  
HETATM    3  O   UNL     1     -12.540  11.742  63.176  1.00  0.00    -0.514 OA 
HETATM    4  C   UNL     1     -10.900  12.897  64.526  1.00  0.00    -0.363 C  
ENDROOT
BRANCH   4   5
HETATM    5  S   UNL     1     -10.942  14.432  65.536  1.00  0.00    -0.348 SA 
BRANCH   5   6
HETATM    6  C   UNL     1     -12.173  13.931  66.780  1.00  0.00    -0.399 C  
BRANCH   6   7
HETATM    7  C   UNL     1     -11.488  13.316  67.983  1.00  0.00    -0.309 C  
HETATM    8  O   UNL     1     -10.659  13.937  68.642  1.00  0.00    -0.248 OA 
HETATM    9  N   UNL     1     -11.907  12.036  68.296  1.00  0.00    -0.325 N  
HETATM   10  H   UNL     1     -12.558  11.555  67.677  1.00  0.00     0.000 HD 
BRANCH   9  11
HETATM   11  C   UNL     1     -11.430  11.363  69.502  1.00  0.00    -0.312 C  
HETATM   12  C   UNL     1     -12.527  10.901  70.456  1.00  0.00    -0.438 C  
HETATM   13  C   UNL     1     -11.939   9.841  71.371  1.00  0.00    -0.411 C  
HETATM   14  S   UNL     1     -10.841   8.849  70.324  1.00  0.00    -0.241 SA 
HETATM   15  C   UNL     1     -10.562  10.151  69.177  1.00  0.00    -0.224 C  
HETATM   16  O   UNL     1      -9.729  10.096  68.283  1.00  0.00    -0.139 OA 
ENDBRANCH   9  11
ENDBRANCH   6   7
ENDBRANCH   5   6
ENDBRANCH   4   5
TORSDOF 4
ENDMDL
MODEL       32
REMARK 921   NORMALIZED FREE ENERGY PREDICTED BY IDOCK:   -4.55 KCAL/MOL
REMARK 922        TOTAL FREE ENERGY PREDICTED BY IDOCK:   -5.94 KCAL/MOL
REMARK 923 INTER-LIGAND FREE ENERGY PREDICTED BY IDOCK:   -5.61 KCAL/MOL
REMARK 924 INTRA-LIGAND FREE ENERGY PREDICTED BY IDOCK:   -0.33 KCAL/MOL
REMARK 927      BINDING AFFINITY PREDICTED BY RF-SCORE:    0.00 PKD
ROOT
HETATM    1  O   UNL     1     -10.500  18.223  65.520  1.00  0.00    -0.616 OA 
HETATM    2  C   UNL     1     -10.407  17.904  66.835  1.00  0.00    -0.355 C  
HETATM    3  O   UNL     1     -10.293  18.764  67.699  1.00  0.00    -0.374 OA 
HETATM    4  C   UNL     1     -10.532  16.425  67.138  1.00  0.00    -0.297 C  
ENDROOT
BRANCH   4   5
HETATM    5  S   UNL     1      -9.993  15.400  65.709  1.00  0.00    -0.374 SA 
BRANCH   5   6
HETATM    6  C   UNL     1     -11.623  15.001  65.004  1.00  0.00    -0.332 C  
BRANCH   6   7
HETATM    7  C   UNL     1     -11.932  13.530  65.188  1.00  0.00    -0.368 C  
HETATM    8  O   UNL     1     -12.978  13.033  64.776  1.00  0.00    -0.735 OA 
HETATM    9  N   UNL     1     -10.933  12.800  65.804  1.00  0.00    -0.272 N  
HETATM   10  H   UNL     1     -10.113  13.282  66.172  1.00  0.00     0.000 HD 
BRANCH   9  11
HETATM   11  C   UNL     1     -11.034  11.348  65.937  1.00  0.00    -0.207 C  
HETATM   12  C   UNL     1      -9.854  10.568  65.365  1.00  0.00    -0.335 C  
HETATM   13  C   UNL     1      -9.865   9.181  65.981  1.00  0.00    -0.272 C  
HETATM   14  S   UNL     1     -10.347   9.420  67.712  1.00  0.00    -0.251 SA 
HETATM   15  C   UNL     1     -11.212  10.917  67.389  1.00  0.00    -0.273 C  
HETATM   16  O   UNL     1     -11.912  11.484  68.216  1.00  0.00    -0.544 OA 
ENDBRANCH   9  11
ENDBRANCH   6   7
ENDBRANCH   5   6
ENDBRANCH   4   5
TORSDOF 4
ENDMDL
MODEL       33
REMARK 921   NORMALIZED FREE ENERGY PREDICTED BY IDOCK:   -4.53 KCAL/MOL
REMARK 922        TOTAL FREE ENERGY PREDICTED BY IDOCK:   -5.90 KCAL/MOL
REMARK 923 INTER-LIGAND FREE ENERGY PREDICTED BY IDOCK:   -5.67 KCAL/MOL
REMARK 924 INTRA-LIGAND FREE ENERGY PREDICTED BY IDOCK:   -0.23 KCAL/MOL
REMARK 927      BINDING AFFINITY PREDICTED BY RF-SCORE:    0.00 PKD
ROOT
HETATM    1  O   UNL     1     -10.258  15.986  65.603  1.00  0.00    -0.351 OA 
HETATM    2  C   UNL     1     -11.322  15.710  64.810  1.00  0.00    -0.343 C  
HETATM    3  O   UNL     1     -11.597  16.402  63.838  1.00  0.00    -1.100 OA 
HETATM    4  C   UNL     1     -12.078  14.450  65.181  1.00  0.00    -0.395 C  
ENDROOT
BRANCH   4   5
HETATM    5  S   UNL     1     -11.901  14.065  66.970  1.00  0.00    -0.442 SA 
BRANCH   5   6
HETATM    6  C   UNL     1     -11.525  12.288  66.852  1.00  0.00    -0.356 C  
BRANCH   6   7
HETATM    7  C   UNL     1     -11.067  11.755  68.193  1.00  0.00    -0.243 C  
HETATM    8  O   UNL     1     -10.056  12.181  68.747  1.00  0.00    -0.184 OA 
HETATM    9  N   UNL     1     -11.897  10.801  68.752  1.00  0.00    -0.479 N  
HETATM   10  H   UNL     1     -12.691  10.450  68.218  1.00  0.00     0.000 HD 
BRANCH   9  11
HETATM   11  C   UNL     1     -11.653  10.287  70.099  1.00  0.00    -0.299 C  
HETATM   12  C   UNL     1     -12.908  10.061  70.937  1.00  0.00    -0.408 C  
HETATM   13  C   UNL     1     -12.553   9.113  72.068  1.00  0.00    -0.390 C  
HETATM   14  S   UNL     1     -11.425   7.893  71.346  1.00  0.00    -0.268 SA 
HETATM   15  C   UNL     1     -10.870   8.978  70.079  1.00  0.00    -0.231 C  
HETATM   16  O   UNL     1      -9.933   8.724  69.334  1.00  0.00    -0.186 OA 
ENDBRANCH   9  11
ENDBRANCH   6   7
ENDBRANCH   5   6
ENDBRANCH   4   5
TORSDOF 4
ENDMDL
MODEL       34
REMARK 921   NORMALIZED FREE ENERGY PREDICTED BY IDOCK:   -4.44 KCAL/MOL
REMARK 922        TOTAL FREE ENERGY PREDICTED BY IDOCK:   -5.79 KCAL/MOL
REMARK 923 INTER-LIGAND FREE ENERGY PREDICTED BY IDOCK:   -5.45 KCAL/MOL
REMARK 924 INTRA-LIGAND FREE ENERGY PREDICTED BY IDOCK:   -0.34 KCAL/MOL
REMARK 927      BINDING AFFINITY PREDICTED BY RF-SCORE:    0.00 PKD
ROOT
HETATM    1  O   UNL     1     -12.567  12.478  65.093  1.00  0.00    -0.631 OA 
HETATM    2  C   UNL     1     -12.322  13.550  64.299  1.00  0.00    -0.335 C  
HETATM    3  O   UNL     1     -12.667  13.574  63.125  1.00  0.00    -0.718 OA 
HETATM    4  C   UNL     1     -11.668  14.722  65.003  1.00  0.00    -0.364 C  
ENDROOT
BRANCH   4   5
HETATM    5  S   UNL     1     -10.680  14.167  66.451  1.00  0.00    -0.292 SA 
BRANCH   5   6
HETATM    6  C   UNL     1     -11.780  14.725  67.789  1.00  0.00    -0.343 C  
BRANCH   6   7
HETATM    7  C   UNL     1     -11.197  15.940  68.479  1.00  0.00    -0.362 C  
HETATM    8  O   UNL     1     -11.577  16.296  69.592  1.00  0.00    -0.276 OA 
HETATM    9  N   UNL     1     -10.185  16.573  67.783  1.00  0.00    -0.269 N  
HETATM   10  H   UNL     1      -9.953  16.262  66.840  1.00  0.00     0.000 HD 
BRANCH   9  11
HETATM   11  C   UNL     1      -9.441  17.682  68.377  1.00  0.00    -0.298 C  
HETATM   12  C   UNL     1      -7.974  17.385  68.674  1.00  0.00    -0.271 C  
HETATM   13  C   UNL     1      -7.247  18.710  68.822  1.00  0.00    -0.305 C  
HETATM   14  S   UNL     1      -7.962  19.801  67.564  1.00  0.00    -0.297 SA 
HETATM   15  C   UNL     1      -9.491  18.936  67.510  1.00  0.00    -0.302 C  
HETATM   16  O   UNL     1     -10.475  19.340  66.905  1.00  0.00    -0.391 OA 
ENDBRANCH   9  11
ENDBRANCH   6   7
ENDBRANCH   5   6
ENDBRANCH   4   5
TORSDOF 4
ENDMDL
MODEL       35
REMARK 921   NORMALIZED FREE ENERGY PREDICTED BY IDOCK:   -4.42 KCAL/MOL
REMARK 922        TOTAL FREE ENERGY PREDICTED BY IDOCK:   -5.77 KCAL/MOL
REMARK 923 INTER-LIGAND FREE ENERGY PREDICTED BY IDOCK:   -5.56 KCAL/MOL
REMARK 924 INTRA-LIGAND FREE ENERGY PREDICTED BY IDOCK:   -0.21 KCAL/MOL
REMARK 927      BINDING AFFINITY PREDICTED BY RF-SCORE:    0.00 PKD
ROOT
HETATM    1  O   UNL     1     -13.160   8.022  71.763  1.00  0.00    -0.328 OA 
HETATM    2  C   UNL     1     -11.875   8.229  72.143  1.00  0.00    -0.369 C  
HETATM    3  O   UNL     1     -11.322   7.507  72.962  1.00  0.00    -0.341 OA 
HETATM    4  C   UNL     1     -11.176   9.361  71.418  1.00  0.00    -0.381 C  
ENDROOT
BRANCH   4   5
HETATM    5  S   UNL     1     -12.376  10.627  70.836  1.00  0.00    -0.434 SA 
BRANCH   5   6
HETATM    6  C   UNL     1     -11.744  10.876  69.148  1.00  0.00    -0.326 C  
BRANCH   6   7
HETATM    7  C   UNL     1     -11.701  12.352  68.812  1.00  0.00    -0.332 C  
HETATM    8  O   UNL     1     -11.701  13.214  69.688  1.00  0.00    -0.298 OA 
HETATM    9  N   UNL     1     -11.615  12.638  67.462  1.00  0.00    -0.339 N  
HETATM   10  H   UNL     1     -11.675  11.879  66.784  1.00  0.00     0.000 HD 
BRANCH   9  11
HETATM   11  C   UNL     1     -11.439  14.011  66.993  1.00  0.00    -0.351 C  
HETATM   12  C   UNL     1      -9.988  14.443  66.804  1.00  0.00    -0.265 C  
HETATM   13  C   UNL     1      -9.974  15.658  65.894  1.00  0.00    -0.351 C  
HETATM   14  S   UNL     1     -11.247  15.343  64.642  1.00  0.00    -0.294 SA 
HETATM   15  C   UNL     1     -12.171  14.266  65.680  1.00  0.00    -0.400 C  
HETATM   16  O   UNL     1     -13.282  13.842  65.394  1.00  0.00    -0.750 OA 
ENDBRANCH   9  11
ENDBRANCH   6   7
ENDBRANCH   5   6
ENDBRANCH   4   5
TORSDOF 4
ENDMDL
MODEL       36
REMARK 921   NORMALIZED FREE ENERGY PREDICTED BY IDOCK:   -4.40 KCAL/MOL
REMARK 922        TOTAL FREE ENERGY PREDICTED BY IDOCK:   -5.74 KCAL/MOL
REMARK 923 INTER-LIGAND FREE ENERGY PREDICTED BY IDOCK:   -5.43 KCAL/MOL
REMARK 924 INTRA-LIGAND FREE ENERGY PREDICTED BY IDOCK:   -0.31 KCAL/MOL
REMARK 927      BINDING AFFINITY PREDICTED BY RF-SCORE:    0.00 PKD
ROOT
HETATM    1  O   UNL     1     -11.185  16.734  64.116  1.00  0.00    -1.155 OA 
HETATM    2  C   UNL     1     -11.760  15.552  64.452  1.00  0.00    -0.242 C  
HETATM    3  O   UNL     1     -12.722  15.108  63.840  1.00  0.00    -0.759 OA 
HETATM    4  C   UNL     1     -11.069  14.810  65.578  1.00  0.00    -0.346 C  
ENDROOT
BRANCH   4   5
HETATM    5  S   UNL     1     -10.181  15.968  66.698  1.00  0.00    -0.300 SA 
BRANCH   5   6
HETATM    6  C   UNL     1      -8.585  15.099  66.812  1.00  0.00    -0.262 C  
BRANCH   6   7
HETATM    7  C   UNL     1      -7.446  16.094  66.882  1.00  0.00    -0.231 C  
HETATM    8  O   UNL     1      -6.274  15.731  66.950  1.00  0.00    -0.275 OA 
HETATM    9  N   UNL     1      -7.829  17.420  66.813  1.00  0.00    -0.218 N  
HETATM   10  H   UNL     1      -8.821  17.657  66.812  1.00  0.00     0.000 HD 
BRANCH   9  11
HETATM   11  C   UNL     1      -6.835  18.489  66.741  1.00  0.00    -0.191 C  
HETATM   12  C   UNL     1      -6.933  19.375  65.502  1.00  0.00    -0.283 C  
HETATM   13  C   UNL     1      -6.194  20.669  65.791  1.00  0.00    -0.239 C  
HETATM   14  S   UNL     1      -6.570  21.071  67.517  1.00  0.00    -0.360 SA 
HETATM   15  C   UNL     1      -6.882  19.399  67.964  1.00  0.00    -0.248 C  
HETATM   16  O   UNL     1      -7.047  19.028  69.117  1.00  0.00    -0.320 OA 
ENDBRANCH   9  11
ENDBRANCH   6   7
ENDBRANCH   5   6
ENDBRANCH   4   5
TORSDOF 4
ENDMDL
MODEL       37
REMARK 921   NORMALIZED FREE ENERGY PREDICTED BY IDOCK:   -4.38 KCAL/MOL
REMARK 922        TOTAL FREE ENERGY PREDICTED BY IDOCK:   -5.73 KCAL/MOL
REMARK 923 INTER-LIGAND FREE ENERGY PREDICTED BY IDOCK:   -5.51 KCAL/MOL
REMARK 924 INTRA-LIGAND FREE ENERGY PREDICTED BY IDOCK:   -0.22 KCAL/MOL
REMARK 927      BINDING AFFINITY PREDICTED BY RF-SCORE:    0.00 PKD
ROOT
HETATM    1  O   UNL     1     -14.394  13.455  72.587  1.00  0.00    -0.709 OA 
HETATM    2  C   UNL     1     -13.463  12.801  71.847  1.00  0.00    -0.358 C  
HETATM    3  O   UNL     1     -13.157  11.639  72.079  1.00  0.00    -0.478 OA 
HETATM    4  C   UNL     1     -12.906  13.598  70.685  1.00  0.00    -0.154 C  
ENDROOT
BRANCH   4   5
HETATM    5  S   UNL     1     -12.995  15.406  71.008  1.00  0.00    -0.489 SA 
BRANCH   5   6
HETATM    6  C   UNL     1     -11.215  15.783  71.057  1.00  0.00    -0.350 C  
BRANCH   6   7
HETATM    7  C   UNL     1     -10.716  16.156  69.677  1.00  0.00    -0.325 C  
HETATM    8  O   UNL     1     -10.683  15.340  68.759  1.00  0.00    -0.227 OA 
HETATM    9  N   UNL     1     -10.354  17.482  69.530  1.00  0.00    -0.248 N  
HETATM   10  H   UNL     1     -10.353  18.096  70.345  1.00  0.00     0.000 HD 
BRANCH   9  11
HETATM   11  C   UNL     1      -9.974  18.019  68.225  1.00  0.00    -0.371 C  
HETATM   12  C   UNL     1     -11.016  18.924  67.575  1.00  0.00    -0.312 C  
HETATM   13  C   UNL     1     -10.319  19.756  66.513  1.00  0.00    -0.506 C  
HETATM   14  S   UNL     1      -8.706  20.189  67.215  1.00  0.00    -0.352 SA 
HETATM   15  C   UNL     1      -8.662  18.795  68.285  1.00  0.00    -0.333 C  
HETATM   16  O   UNL     1      -7.676  18.471  68.932  1.00  0.00    -0.295 OA 
ENDBRANCH   9  11
ENDBRANCH   6   7
ENDBRANCH   5   6
ENDBRANCH   4   5
TORSDOF 4
ENDMDL
MODEL       38
REMARK 921   NORMALIZED FREE ENERGY PREDICTED BY IDOCK:   -4.38 KCAL/MOL
REMARK 922        TOTAL FREE ENERGY PREDICTED BY IDOCK:   -5.73 KCAL/MOL
REMARK 923 INTER-LIGAND FREE ENERGY PREDICTED BY IDOCK:   -5.45 KCAL/MOL
REMARK 924 INTRA-LIGAND FREE ENERGY PREDICTED BY IDOCK:   -0.28 KCAL/MOL
REMARK 927      BINDING AFFINITY PREDICTED BY RF-SCORE:    0.00 PKD
ROOT
HETATM    1  O   UNL     1     -12.557  12.678  64.324  1.00  0.00    -0.593 OA 
HETATM    2  C   UNL     1     -12.287  13.962  64.669  1.00  0.00    -0.388 C  
HETATM    3  O   UNL     1     -12.633  14.903  63.969  1.00  0.00    -0.832 OA 
HETATM    4  C   UNL     1     -11.601  14.124  66.011  1.00  0.00    -0.361 C  
ENDROOT
BRANCH   4   5
HETATM    5  S   UNL     1     -10.624  12.630  66.450  1.00  0.00    -0.255 SA 
BRANCH   5   6
HETATM    6  C   UNL     1     -11.747  11.896  67.681  1.00  0.00    -0.275 C  
BRANCH   6   7
HETATM    7  C   UNL     1     -10.974  11.023  68.646  1.00  0.00    -0.224 C  
HETATM    8  O   UNL     1      -9.761  11.145  68.800  1.00  0.00    -0.197 OA 
HETATM    9  N   UNL     1     -11.745  10.127  69.363  1.00  0.00    -0.476 N  
HETATM   10  H   UNL     1     -12.738  10.036  69.150  1.00  0.00     0.000 HD 
BRANCH   9  11
HETATM   11  C   UNL     1     -11.159   9.307  70.421  1.00  0.00    -0.255 C  
HETATM   12  C   UNL     1     -11.987   9.223  71.701  1.00  0.00    -0.448 C  
HETATM   13  C   UNL     1     -11.520   8.009  72.483  1.00  0.00    -0.409 C  
HETATM   14  S   UNL     1     -11.195   6.726  71.245  1.00  0.00    -0.292 SA 
HETATM   15  C   UNL     1     -10.884   7.881  69.956  1.00  0.00    -0.238 C  
HETATM   16  O   UNL     1     -10.442   7.566  68.860  1.00  0.00    -0.209 OA 
ENDBRANCH   9  11
ENDBRANCH   6   7
ENDBRANCH   5   6
ENDBRANCH   4   5
TORSDOF 4
ENDMDL
MODEL       39
REMARK 921   NORMALIZED FREE ENERGY PREDICTED BY IDOCK:   -4.38 KCAL/MOL
REMARK 922        TOTAL FREE ENERGY PREDICTED BY IDOCK:   -5.72 KCAL/MOL
REMARK 923 INTER-LIGAND FREE ENERGY PREDICTED BY IDOCK:   -6.07 KCAL/MOL
REMARK 924 INTRA-LIGAND FREE ENERGY PREDICTED BY IDOCK:    0.35 KCAL/MOL
REMARK 927      BINDING AFFINITY PREDICTED BY RF-SCORE:    0.00 PKD
ROOT
HETATM    1  O   UNL     1      -9.744  17.759  65.752  1.00  0.00    -0.534 OA 
HETATM    2  C   UNL     1     -10.324  18.796  66.407  1.00  0.00    -0.439 C  
HETATM    3  O   UNL     1     -10.785  19.758  65.808  1.00  0.00    -0.512 OA 
HETATM    4  C   UNL     1     -10.418  18.621  67.909  1.00  0.00    -0.385 C  
ENDROOT
BRANCH   4   5
HETATM    5  S   UNL     1      -9.091  17.516  68.540  1.00  0.00    -0.263 SA 
BRANCH   5   6
HETATM    6  C   UNL     1      -9.946  15.916  68.392  1.00  0.00    -0.222 C  
BRANCH   6   7
HETATM    7  C   UNL     1     -11.022  15.792  69.451  1.00  0.00    -0.296 C  
HETATM    8  O   UNL     1     -12.198  16.051  69.211  1.00  0.00    -0.226 OA 
HETATM    9  N   UNL     1     -10.579  15.323  70.674  1.00  0.00    -0.507 N  
HETATM   10  H   UNL     1      -9.581  15.179  70.826  1.00  0.00     0.000 HD 
BRANCH   9  11
HETATM   11  C   UNL     1     -11.520  15.032  71.754  1.00  0.00    -0.305 C  
HETATM   12  C   UNL     1     -12.280  16.243  72.288  1.00  0.00    -0.503 C  
HETATM   13  C   UNL     1     -13.509  15.740  73.023  1.00  0.00    -0.583 C  
HETATM   14  S   UNL     1     -14.125  14.344  72.045  1.00  0.00    -0.562 SA 
HETATM   15  C   UNL     1     -12.552  13.984  71.348  1.00  0.00    -0.372 C  
HETATM   16  O   UNL     1     -12.321  12.983  70.683  1.00  0.00    -0.356 OA 
ENDBRANCH   9  11
ENDBRANCH   6   7
ENDBRANCH   5   6
ENDBRANCH   4   5
TORSDOF 4
ENDMDL
MODEL       40
REMARK 921   NORMALIZED FREE ENERGY PREDICTED BY IDOCK:   -4.37 KCAL/MOL
REMARK 922        TOTAL FREE ENERGY PREDICTED BY IDOCK:   -5.71 KCAL/MOL
REMARK 923 INTER-LIGAND FREE ENERGY PREDICTED BY IDOCK:   -5.37 KCAL/MOL
REMARK 924 INTRA-LIGAND FREE ENERGY PREDICTED BY IDOCK:   -0.34 KCAL/MOL
REMARK 927      BINDING AFFINITY PREDICTED BY RF-SCORE:    0.00 PKD
ROOT
HETATM    1  O   UNL     1     -12.543  12.989  63.573  1.00  0.00    -0.720 OA 
HETATM    2  C   UNL     1     -12.514  14.093  64.360  1.00  0.00    -0.293 C  
HETATM    3  O   UNL     1     -12.617  15.219  63.893  1.00  0.00    -0.765 OA 
HETATM    4  C   UNL     1     -12.424  13.807  65.846  1.00  0.00    -0.468 C  
ENDROOT
BRANCH   4   5
HETATM    5  S   UNL     1     -11.603  12.194  66.170  1.00  0.00    -0.296 SA 
BRANCH   5   6
HETATM    6  C   UNL     1      -9.870  12.691  65.919  1.00  0.00    -0.244 C  
BRANCH   6   7
HETATM    7  C   UNL     1      -9.510  13.836  66.842  1.00  0.00    -0.262 C  
HETATM    8  O   UNL     1      -9.494  13.701  68.063  1.00  0.00    -0.196 OA 
HETATM    9  N   UNL     1      -9.160  15.010  66.202  1.00  0.00    -0.463 N  
HETATM   10  H   UNL     1      -9.247  15.074  65.188  1.00  0.00     0.000 HD 
BRANCH   9  11
HETATM   11  C   UNL     1      -8.668  16.161  66.955  1.00  0.00    -0.202 C  
HETATM   12  C   UNL     1      -7.667  17.038  66.207  1.00  0.00    -0.346 C  
HETATM   13  C   UNL     1      -7.623  18.391  66.894  1.00  0.00    -0.218 C  
HETATM   14  S   UNL     1      -9.335  18.755  67.364  1.00  0.00    -0.289 SA 
HETATM   15  C   UNL     1      -9.803  17.062  67.433  1.00  0.00    -0.262 C  
HETATM   16  O   UNL     1     -10.877  16.675  67.871  1.00  0.00    -0.347 OA 
ENDBRANCH   9  11
ENDBRANCH   6   7
ENDBRANCH   5   6
ENDBRANCH   4   5
TORSDOF 4
ENDMDL
MODEL       41
REMARK 921   NORMALIZED FREE ENERGY PREDICTED BY IDOCK:   -4.35 KCAL/MOL
REMARK 922        TOTAL FREE ENERGY PREDICTED BY IDOCK:   -5.68 KCAL/MOL
REMARK 923 INTER-LIGAND FREE ENERGY PREDICTED BY IDOCK:   -5.06 KCAL/MOL
REMARK 924 INTRA-LIGAND FREE ENERGY PREDICTED BY IDOCK:   -0.62 KCAL/MOL
REMARK 927      BINDING AFFINITY PREDICTED BY RF-SCORE:    0.00 PKD
ROOT
HETATM    1  O   UNL     1     -12.197  13.769  70.366  1.00  0.00    -0.325 OA 
HETATM    2  C   UNL     1     -12.454  15.078  70.615  1.00  0.00    -0.365 C  
HETATM    3  O   UNL     1     -13.514  15.443  71.104  1.00  0.00    -0.488 OA 
HETATM    4  C   UNL     1     -11.303  16.016  70.312  1.00  0.00    -0.382 C  
ENDROOT
BRANCH   4   5
HETATM    5  S   UNL     1     -10.206  15.332  69.004  1.00  0.00    -0.249 SA 
BRANCH   5   6
HETATM    6  C   UNL     1     -11.285  15.577  67.559  1.00  0.00    -0.272 C  
BRANCH   6   7
HETATM    7  C   UNL     1     -11.633  14.245  66.928  1.00  0.00    -0.387 C  
HETATM    8  O   UNL     1     -12.442  14.157  66.008  1.00  0.00    -0.467 OA 
HETATM    9  N   UNL     1     -10.937  13.163  67.436  1.00  0.00    -0.259 N  
HETATM   10  H   UNL     1     -10.320  13.294  68.237  1.00  0.00     0.000 HD 
BRANCH   9  11
HETATM   11  C   UNL     1     -11.073  11.835  66.842  1.00  0.00    -0.307 C  
HETATM   12  C   UNL     1      -9.854  11.354  66.059  1.00  0.00    -0.256 C  
HETATM   13  C   UNL     1      -9.947   9.845  65.925  1.00  0.00    -0.277 C  
HETATM   14  S   UNL     1     -10.594   9.254  67.512  1.00  0.00    -0.211 SA 
HETATM   15  C   UNL     1     -11.399  10.771  67.886  1.00  0.00    -0.299 C  
HETATM   16  O   UNL     1     -12.168  10.914  68.826  1.00  0.00    -0.518 OA 
ENDBRANCH   9  11
ENDBRANCH   6   7
ENDBRANCH   5   6
ENDBRANCH   4   5
TORSDOF 4
ENDMDL
MODEL       42
REMARK 921   NORMALIZED FREE ENERGY PREDICTED BY IDOCK:   -4.33 KCAL/MOL
REMARK 922        TOTAL FREE ENERGY PREDICTED BY IDOCK:   -5.67 KCAL/MOL
REMARK 923 INTER-LIGAND FREE ENERGY PREDICTED BY IDOCK:   -5.28 KCAL/MOL
REMARK 924 INTRA-LIGAND FREE ENERGY PREDICTED BY IDOCK:   -0.39 KCAL/MOL
REMARK 927      BINDING AFFINITY PREDICTED BY RF-SCORE:    0.00 PKD
ROOT
HETATM    1  O   UNL     1     -12.290  11.191  68.136  1.00  0.00    -0.469 OA 
HETATM    2  C   UNL     1     -11.061  10.628  68.256  1.00  0.00    -0.279 C  
HETATM    3  O   UNL     1     -10.640  10.225  69.332  1.00  0.00    -0.206 OA 
HETATM    4  C   UNL     1     -10.306  10.475  66.951  1.00  0.00    -0.239 C  
ENDROOT
BRANCH   4   5
HETATM    5  S   UNL     1     -10.832  11.737  65.721  1.00  0.00    -0.287 SA 
BRANCH   5   6
HETATM    6  C   UNL     1      -9.723  13.097  66.205  1.00  0.00    -0.248 C  
BRANCH   6   7
HETATM    7  C   UNL     1     -10.521  14.350  66.496  1.00  0.00    -0.289 C  
HETATM    8  O   UNL     1     -11.746  14.328  66.598  1.00  0.00    -0.367 OA 
HETATM    9  N   UNL     1      -9.763  15.491  66.683  1.00  0.00    -0.236 N  
HETATM   10  H   UNL     1      -8.755  15.454  66.531  1.00  0.00     0.000 HD 
BRANCH   9  11
HETATM   11  C   UNL     1     -10.383  16.748  67.095  1.00  0.00    -0.297 C  
HETATM   12  C   UNL     1      -9.639  17.500  68.196  1.00  0.00    -0.294 C  
HETATM   13  C   UNL     1     -10.105  18.945  68.175  1.00  0.00    -0.388 C  
HETATM   14  S   UNL     1     -10.293  19.372  66.424  1.00  0.00    -0.515 SA 
HETATM   15  C   UNL     1     -10.566  17.708  65.924  1.00  0.00    -0.203 C  
HETATM   16  O   UNL     1     -10.921  17.391  64.797  1.00  0.00    -0.964 OA 
ENDBRANCH   9  11
ENDBRANCH   6   7
ENDBRANCH   5   6
ENDBRANCH   4   5
TORSDOF 4
ENDMDL
MODEL       43
REMARK 921   NORMALIZED FREE ENERGY PREDICTED BY IDOCK:   -4.31 KCAL/MOL
REMARK 922        TOTAL FREE ENERGY PREDICTED BY IDOCK:   -5.63 KCAL/MOL
REMARK 923 INTER-LIGAND FREE ENERGY PREDICTED BY IDOCK:   -5.12 KCAL/MOL
REMARK 924 INTRA-LIGAND FREE ENERGY PREDICTED BY IDOCK:   -0.51 KCAL/MOL
REMARK 927      BINDING AFFINITY PREDICTED BY RF-SCORE:    0.00 PKD
ROOT
HETATM    1  O   UNL     1     -12.144  11.948  67.179  1.00  0.00    -0.590 OA 
HETATM    2  C   UNL     1     -11.101  11.419  67.867  1.00  0.00    -0.261 C  
HETATM    3  O   UNL     1     -11.271  10.631  68.787  1.00  0.00    -0.244 OA 
HETATM    4  C   UNL     1      -9.735  11.823  67.351  1.00  0.00    -0.178 C  
ENDROOT
BRANCH   4   5
HETATM    5  S   UNL     1      -9.791  13.456  66.508  1.00  0.00    -0.291 SA 
BRANCH   5   6
HETATM    6  C   UNL     1      -9.465  14.535  67.938  1.00  0.00    -0.212 C  
BRANCH   6   7
HETATM    7  C   UNL     1     -10.758  14.874  68.649  1.00  0.00    -0.250 C  
HETATM    8  O   UNL     1     -11.668  15.477  68.085  1.00  0.00    -0.342 OA 
HETATM    9  N   UNL     1     -10.844  14.410  69.949  1.00  0.00    -0.457 N  
HETATM   10  H   UNL     1     -10.034  13.964  70.378  1.00  0.00     0.000 HD 
BRANCH   9  11
HETATM   11  C   UNL     1     -12.079  14.550  70.718  1.00  0.00    -0.329 C  
HETATM   12  C   UNL     1     -12.504  13.300  71.482  1.00  0.00    -0.224 C  
HETATM   13  C   UNL     1     -13.479  13.721  72.567  1.00  0.00    -0.578 C  
HETATM   14  S   UNL     1     -12.845  15.293  73.208  1.00  0.00    -0.560 SA 
HETATM   15  C   UNL     1     -12.003  15.699  71.719  1.00  0.00    -0.440 C  
HETATM   16  O   UNL     1     -11.490  16.789  71.509  1.00  0.00    -0.169 OA 
ENDBRANCH   9  11
ENDBRANCH   6   7
ENDBRANCH   5   6
ENDBRANCH   4   5
TORSDOF 4
ENDMDL
MODEL       44
REMARK 921   NORMALIZED FREE ENERGY PREDICTED BY IDOCK:   -4.31 KCAL/MOL
REMARK 922        TOTAL FREE ENERGY PREDICTED BY IDOCK:   -5.63 KCAL/MOL
REMARK 923 INTER-LIGAND FREE ENERGY PREDICTED BY IDOCK:   -5.42 KCAL/MOL
REMARK 924 INTRA-LIGAND FREE ENERGY PREDICTED BY IDOCK:   -0.21 KCAL/MOL
REMARK 927      BINDING AFFINITY PREDICTED BY RF-SCORE:    0.00 PKD
ROOT
HETATM    1  O   UNL     1     -12.440  14.594  63.875  1.00  0.00    -0.813 OA 
HETATM    2  C   UNL     1     -11.592  15.542  64.348  1.00  0.00    -0.258 C  
HETATM    3  O   UNL     1     -11.546  16.664  63.862  1.00  0.00    -1.204 OA 
HETATM    4  C   UNL     1     -10.782  15.119  65.556  1.00  0.00    -0.365 C  
ENDROOT
BRANCH   4   5
HETATM    5  S   UNL     1     -10.539  13.296  65.596  1.00  0.00    -0.288 SA 
BRANCH   5   6
HETATM    6  C   UNL     1     -10.321  13.069  67.389  1.00  0.00    -0.234 C  
BRANCH   6   7
HETATM    7  C   UNL     1     -10.861  11.722  67.820  1.00  0.00    -0.213 C  
HETATM    8  O   UNL     1     -12.067  11.499  67.885  1.00  0.00    -0.630 OA 
HETATM    9  N   UNL     1      -9.895  10.766  68.080  1.00  0.00    -0.162 N  
HETATM   10  H   UNL     1      -8.910  11.029  68.060  1.00  0.00     0.000 HD 
BRANCH   9  11
HETATM   11  C   UNL     1     -10.265   9.385  68.383  1.00  0.00    -0.197 C  
HETATM   12  C   UNL     1     -10.204   8.429  67.195  1.00  0.00    -0.362 C  
HETATM   13  C   UNL     1     -10.140   7.012  67.735  1.00  0.00    -0.165 C  
HETATM   14  S   UNL     1      -9.067   7.094  69.193  1.00  0.00    -0.135 SA 
HETATM   15  C   UNL     1      -9.407   8.793  69.495  1.00  0.00    -0.157 C  
HETATM   16  O   UNL     1      -9.048   9.384  70.505  1.00  0.00    -0.236 OA 
ENDBRANCH   9  11
ENDBRANCH   6   7
ENDBRANCH   5   6
ENDBRANCH   4   5
TORSDOF 4
ENDMDL
MODEL       45
REMARK 921   NORMALIZED FREE ENERGY PREDICTED BY IDOCK:   -4.29 KCAL/MOL
REMARK 922        TOTAL FREE ENERGY PREDICTED BY IDOCK:   -5.61 KCAL/MOL
REMARK 923 INTER-LIGAND FREE ENERGY PREDICTED BY IDOCK:   -5.36 KCAL/MOL
REMARK 924 INTRA-LIGAND FREE ENERGY PREDICTED BY IDOCK:   -0.26 KCAL/MOL
REMARK 927      BINDING AFFINITY PREDICTED BY RF-SCORE:    0.00 PKD
ROOT
HETATM    1  O   UNL     1     -12.039   6.619  71.201  1.00  0.00    -0.360 OA 
HETATM    2  C   UNL     1     -10.990   6.297  70.404  1.00  0.00    -0.322 C  
HETATM    3  O   UNL     1     -10.617   5.139  70.270  1.00  0.00    -0.262 OA 
HETATM    4  C   UNL     1     -10.387   7.465  69.651  1.00  0.00    -0.223 C  
ENDROOT
BRANCH   4   5
HETATM    5  S   UNL     1     -10.651   9.049  70.546  1.00  0.00    -0.246 SA 
BRANCH   5   6
HETATM    6  C   UNL     1     -10.397  10.210  69.168  1.00  0.00    -0.219 C  
BRANCH   6   7
HETATM    7  C   UNL     1     -11.449  11.299  69.195  1.00  0.00    -0.297 C  
HETATM    8  O   UNL     1     -12.163  11.532  68.222  1.00  0.00    -0.561 OA 
HETATM    9  N   UNL     1     -11.568  11.962  70.402  1.00  0.00    -0.503 N  
HETATM   10  H   UNL     1     -10.909  11.759  71.153  1.00  0.00     0.000 HD 
BRANCH   9  11
HETATM   11  C   UNL     1     -12.624  12.949  70.618  1.00  0.00    -0.177 C  
HETATM   12  C   UNL     1     -13.300  12.876  71.984  1.00  0.00    -0.579 C  
HETATM   13  C   UNL     1     -13.995  14.202  72.236  1.00  0.00    -0.548 C  
HETATM   14  S   UNL     1     -12.879  15.470  71.578  1.00  0.00    -0.473 SA 
HETATM   15  C   UNL     1     -12.121  14.376  70.429  1.00  0.00    -0.331 C  
HETATM   16  O   UNL     1     -11.346  14.744  69.557  1.00  0.00    -0.256 OA 
ENDBRANCH   9  11
ENDBRANCH   6   7
ENDBRANCH   5   6
ENDBRANCH   4   5
TORSDOF 4
ENDMDL
MODEL       46
REMARK 921   NORMALIZED FREE ENERGY PREDICTED BY IDOCK:   -4.28 KCAL/MOL
REMARK 922        TOTAL FREE ENERGY PREDICTED BY IDOCK:   -5.60 KCAL/MOL
REMARK 923 INTER-LIGAND FREE ENERGY PREDICTED BY IDOCK:   -5.26 KCAL/MOL
REMARK 924 INTRA-LIGAND FREE ENERGY PREDICTED BY IDOCK:   -0.34 KCAL/MOL
REMARK 927      BINDING AFFINITY PREDICTED BY RF-SCORE:    0.00 PKD
ROOT
HETATM    1  O   UNL     1     -11.119   7.762  73.038  1.00  0.00    -0.398 OA 
HETATM    2  C   UNL     1     -11.889   7.380  71.988  1.00  0.00    -0.298 C  
HETATM    3  O   UNL     1     -12.419   6.278  71.947  1.00  0.00    -0.290 OA 
HETATM    4  C   UNL     1     -12.093   8.448  70.933  1.00  0.00    -0.138 C  
ENDROOT
BRANCH   4   5
HETATM    5  S   UNL     1     -10.692   9.638  70.903  1.00  0.00    -0.314 SA 
BRANCH   5   6
HETATM    6  C   UNL     1     -10.911  10.307  69.225  1.00  0.00    -0.241 C  
BRANCH   6   7
HETATM    7  C   UNL     1     -11.693  11.603  69.271  1.00  0.00    -0.331 C  
HETATM    8  O   UNL     1     -12.208  12.084  68.264  1.00  0.00    -0.398 OA 
HETATM    9  N   UNL     1     -11.817  12.161  70.530  1.00  0.00    -0.512 N  
HETATM   10  H   UNL     1     -11.321  11.742  71.316  1.00  0.00     0.000 HD 
BRANCH   9  11
HETATM   11  C   UNL     1     -12.649  13.342  70.751  1.00  0.00    -0.294 C  
HETATM   12  C   UNL     1     -13.549  13.272  71.982  1.00  0.00    -0.573 C  
HETATM   13  C   UNL     1     -13.965  14.687  72.341  1.00  0.00    -0.476 C  
HETATM   14  S   UNL     1     -12.500  15.714  72.053  1.00  0.00    -0.467 SA 
HETATM   15  C   UNL     1     -11.817  14.616  70.861  1.00  0.00    -0.313 C  
HETATM   16  O   UNL     1     -10.842  14.887  70.174  1.00  0.00    -0.214 OA 
ENDBRANCH   9  11
ENDBRANCH   6   7
ENDBRANCH   5   6
ENDBRANCH   4   5
TORSDOF 4
ENDMDL
MODEL       47
REMARK 921   NORMALIZED FREE ENERGY PREDICTED BY IDOCK:   -4.27 KCAL/MOL
REMARK 922        TOTAL FREE ENERGY PREDICTED BY IDOCK:   -5.59 KCAL/MOL
REMARK 923 INTER-LIGAND FREE ENERGY PREDICTED BY IDOCK:   -5.19 KCAL/MOL
REMARK 924 INTRA-LIGAND FREE ENERGY PREDICTED BY IDOCK:   -0.40 KCAL/MOL
REMARK 927      BINDING AFFINITY PREDICTED BY RF-SCORE:    0.00 PKD
ROOT
HETATM    1  O   UNL     1     -10.108  13.833  68.534  1.00  0.00    -0.230 OA 
HETATM    2  C   UNL     1     -11.288  13.221  68.263  1.00  0.00    -0.300 C  
HETATM    3  O   UNL     1     -11.632  12.201  68.845  1.00  0.00    -0.274 OA 
HETATM    4  C   UNL     1     -12.156  13.942  67.251  1.00  0.00    -0.368 C  
ENDROOT
BRANCH   4   5
HETATM    5  S   UNL     1     -11.143  14.954  66.099  1.00  0.00    -0.323 SA 
BRANCH   5   6
HETATM    6  C   UNL     1     -12.040  14.622  64.550  1.00  0.00    -0.475 C  
BRANCH   6   7
HETATM    7  C   UNL     1     -11.895  13.167  64.158  1.00  0.00    -0.429 C  
HETATM    8  O   UNL     1     -12.799  12.556  63.594  1.00  0.00    -0.731 OA 
HETATM    9  N   UNL     1     -10.661  12.610  64.439  1.00  0.00    -0.341 N  
HETATM   10  H   UNL     1      -9.971  13.154  64.958  1.00  0.00     0.000 HD 
BRANCH   9  11
HETATM   11  C   UNL     1     -10.329  11.255  64.005  1.00  0.00    -0.371 C  
HETATM   12  C   UNL     1      -9.288  11.174  62.893  1.00  0.00    -0.385 C  
HETATM   13  C   UNL     1      -8.714   9.769  62.888  1.00  0.00    -0.229 C  
HETATM   14  S   UNL     1      -8.563   9.298  64.632  1.00  0.00    -0.183 SA 
HETATM   15  C   UNL     1      -9.838  10.387  65.160  1.00  0.00    -0.313 C  
HETATM   16  O   UNL     1     -10.301  10.386  66.292  1.00  0.00    -0.236 OA 
ENDBRANCH   9  11
ENDBRANCH   6   7
ENDBRANCH   5   6
ENDBRANCH   4   5
TORSDOF 4
ENDMDL
MODEL       48
REMARK 921   NORMALIZED FREE ENERGY PREDICTED BY IDOCK:   -4.27 KCAL/MOL
REMARK 922        TOTAL FREE ENERGY PREDICTED BY IDOCK:   -5.59 KCAL/MOL
REMARK 923 INTER-LIGAND FREE ENERGY PREDICTED BY IDOCK:   -5.19 KCAL/MOL
REMARK 924 INTRA-LIGAND FREE ENERGY PREDICTED BY IDOCK:   -0.40 KCAL/MOL
REMARK 927      BINDING AFFINITY PREDICTED BY RF-SCORE:    0.00 PKD
ROOT
HETATM    1  O   UNL     1     -12.507  13.772  71.420  1.00  0.00    -0.351 OA 
HETATM    2  C   UNL     1     -13.051  15.005  71.260  1.00  0.00    -0.403 C  
HETATM    3  O   UNL     1     -14.232  15.222  71.494  1.00  0.00    -0.494 OA 
HETATM    4  C   UNL     1     -12.066  16.081  70.849  1.00  0.00    -0.295 C  
ENDROOT
BRANCH   4   5
HETATM    5  S   UNL     1     -10.642  15.370  69.929  1.00  0.00    -0.299 SA 
BRANCH   5   6
HETATM    6  C   UNL     1     -11.257  15.579  68.229  1.00  0.00    -0.343 C  
BRANCH   6   7
HETATM    7  C   UNL     1     -11.579  14.233  67.615  1.00  0.00    -0.368 C  
HETATM    8  O   UNL     1     -11.973  13.289  68.296  1.00  0.00    -0.342 OA 
HETATM    9  N   UNL     1     -11.442  14.174  66.240  1.00  0.00    -0.341 N  
HETATM   10  H   UNL     1     -11.059  14.975  65.739  1.00  0.00     0.000 HD 
BRANCH   9  11
HETATM   11  C   UNL     1     -11.838  12.982  65.494  1.00  0.00    -0.395 C  
HETATM   12  C   UNL     1     -12.609  13.257  64.206  1.00  0.00    -0.253 C  
HETATM   13  C   UNL     1     -12.527  12.016  63.336  1.00  0.00    -0.509 C  
HETATM   14  S   UNL     1     -10.842  11.382  63.547  1.00  0.00    -0.278 SA 
HETATM   15  C   UNL     1     -10.641  12.106  65.137  1.00  0.00    -0.286 C  
HETATM   16  O   UNL     1      -9.691  11.871  65.871  1.00  0.00    -0.231 OA 
ENDBRANCH   9  11
ENDBRANCH   6   7
ENDBRANCH   5   6
ENDBRANCH   4   5
TORSDOF 4
ENDMDL
MODEL       49
REMARK 921   NORMALIZED FREE ENERGY PREDICTED BY IDOCK:   -4.26 KCAL/MOL
REMARK 922        TOTAL FREE ENERGY PREDICTED BY IDOCK:   -5.57 KCAL/MOL
REMARK 923 INTER-LIGAND FREE ENERGY PREDICTED BY IDOCK:   -5.28 KCAL/MOL
REMARK 924 INTRA-LIGAND FREE ENERGY PREDICTED BY IDOCK:   -0.29 KCAL/MOL
REMARK 927      BINDING AFFINITY PREDICTED BY RF-SCORE:    0.00 PKD
ROOT
HETATM    1  O   UNL     1     -10.805  17.743  67.382  1.00  0.00    -0.318 OA 
HETATM    2  C   UNL     1      -9.887  16.892  67.904  1.00  0.00    -0.263 C  
HETATM    3  O   UNL     1      -9.027  17.274  68.687  1.00  0.00    -0.269 OA 
HETATM    4  C   UNL     1     -10.067  15.443  67.500  1.00  0.00    -0.233 C  
ENDROOT
BRANCH   4   5
HETATM    5  S   UNL     1     -10.910  15.300  65.872  1.00  0.00    -0.336 SA 
BRANCH   5   6
HETATM    6  C   UNL     1     -12.187  14.079  66.310  1.00  0.00    -0.462 C  
BRANCH   6   7
HETATM    7  C   UNL     1     -12.103  12.876  65.394  1.00  0.00    -0.454 C  
HETATM    8  O   UNL     1     -13.076  12.477  64.760  1.00  0.00    -0.853 OA 
HETATM    9  N   UNL     1     -10.847  12.307  65.298  1.00  0.00    -0.284 N  
HETATM   10  H   UNL     1     -10.093  12.651  65.893  1.00  0.00     0.000 HD 
BRANCH   9  11
HETATM   11  C   UNL     1     -10.583  11.219  64.359  1.00  0.00    -0.345 C  
HETATM   12  C   UNL     1      -9.825  11.629  63.099  1.00  0.00    -0.407 C  
HETATM   13  C   UNL     1      -9.223  10.379  62.485  1.00  0.00    -0.296 C  
HETATM   14  S   UNL     1      -8.659   9.371  63.882  1.00  0.00    -0.196 SA 
HETATM   15  C   UNL     1      -9.811  10.075  65.008  1.00  0.00    -0.304 C  
HETATM   16  O   UNL     1     -10.000   9.644  66.137  1.00  0.00    -0.256 OA 
ENDBRANCH   9  11
ENDBRANCH   6   7
ENDBRANCH   5   6
ENDBRANCH   4   5
TORSDOF 4
ENDMDL
MODEL       50
REMARK 921   NORMALIZED FREE ENERGY PREDICTED BY IDOCK:   -4.23 KCAL/MOL
REMARK 922        TOTAL FREE ENERGY PREDICTED BY IDOCK:   -5.54 KCAL/MOL
REMARK 923 INTER-LIGAND FREE ENERGY PREDICTED BY IDOCK:   -5.32 KCAL/MOL
REMARK 924 INTRA-LIGAND FREE ENERGY PREDICTED BY IDOCK:   -0.22 KCAL/MOL
REMARK 927      BINDING AFFINITY PREDICTED BY RF-SCORE:    0.00 PKD
ROOT
HETATM    1  O   UNL     1     -12.336   8.173  72.181  1.00  0.00    -0.319 OA 
HETATM    2  C   UNL     1     -13.328   9.073  72.397  1.00  0.00    -0.460 C  
HETATM    3  O   UNL     1     -14.400   8.744  72.886  1.00  0.00    -0.520 OA 
HETATM    4  C   UNL     1     -12.966  10.505  72.058  1.00  0.00    -0.385 C  
ENDROOT
BRANCH   4   5
HETATM    5  S   UNL     1     -11.666  10.578  70.759  1.00  0.00    -0.339 SA 
BRANCH   5   6
HETATM    6  C   UNL     1     -12.011  12.237  70.093  1.00  0.00    -0.298 C  
BRANCH   6   7
HETATM    7  C   UNL     1     -11.428  12.379  68.703  1.00  0.00    -0.303 C  
HETATM    8  O   UNL     1     -10.629  11.563  68.250  1.00  0.00    -0.184 OA 
HETATM    9  N   UNL     1     -11.902  13.460  67.983  1.00  0.00    -0.355 N  
HETATM   10  H   UNL     1     -12.522  14.132  68.435  1.00  0.00     0.000 HD 
BRANCH   9  11
HETATM   11  C   UNL     1     -11.528  13.656  66.584  1.00  0.00    -0.343 C  
HETATM   12  C   UNL     1     -12.699  13.700  65.606  1.00  0.00    -0.505 C  
HETATM   13  C   UNL     1     -12.220  14.364  64.329  1.00  0.00    -0.423 C  
HETATM   14  S   UNL     1     -11.122  15.705  64.859  1.00  0.00    -0.345 SA 
HETATM   15  C   UNL     1     -10.711  14.928  66.381  1.00  0.00    -0.316 C  
HETATM   16  O   UNL     1      -9.835  15.334  67.132  1.00  0.00    -0.222 OA 
ENDBRANCH   9  11
ENDBRANCH   6   7
ENDBRANCH   5   6
ENDBRANCH   4   5
TORSDOF 4
ENDMDL
MODEL       51
REMARK 921   NORMALIZED FREE ENERGY PREDICTED BY IDOCK:   -4.23 KCAL/MOL
REMARK 922        TOTAL FREE ENERGY PREDICTED BY IDOCK:   -5.54 KCAL/MOL
REMARK 923 INTER-LIGAND FREE ENERGY PREDICTED BY IDOCK:   -5.21 KCAL/MOL
REMARK 924 INTRA-LIGAND FREE ENERGY PREDICTED BY IDOCK:   -0.33 KCAL/MOL
REMARK 927      BINDING AFFINITY PREDICTED BY RF-SCORE:    0.00 PKD
ROOT
HETATM    1  O   UNL     1     -13.154  10.843  71.985  1.00  0.00    -0.491 OA 
HETATM    2  C   UNL     1     -13.392   9.512  72.093  1.00  0.00    -0.461 C  
HETATM    3  O   UNL     1     -14.320   9.077  72.762  1.00  0.00    -0.596 OA 
HETATM    4  C   UNL     1     -12.473   8.637  71.265  1.00  0.00    -0.252 C  
ENDROOT
BRANCH   4   5
HETATM    5  S   UNL     1     -10.850   9.452  70.977  1.00  0.00    -0.361 SA 
BRANCH   5   6
HETATM    6  C   UNL     1     -10.824   9.418  69.158  1.00  0.00    -0.155 C  
BRANCH   6   7
HETATM    7  C   UNL     1     -11.363  10.717  68.597  1.00  0.00    -0.291 C  
HETATM    8  O   UNL     1     -12.488  11.125  68.877  1.00  0.00    -0.460 OA 
HETATM    9  N   UNL     1     -10.478  11.416  67.798  1.00  0.00    -0.180 N  
HETATM   10  H   UNL     1      -9.579  10.997  67.559  1.00  0.00     0.000 HD 
BRANCH   9  11
HETATM   11  C   UNL     1     -10.810  12.745  67.289  1.00  0.00    -0.251 C  
HETATM   12  C   UNL     1      -9.640  13.723  67.238  1.00  0.00    -0.237 C  
HETATM   13  C   UNL     1     -10.006  14.843  66.281  1.00  0.00    -0.282 C  
HETATM   14  S   UNL     1     -10.891  14.048  64.915  1.00  0.00    -0.427 SA 
HETATM   15  C   UNL     1     -11.424  12.688  65.894  1.00  0.00    -0.363 C  
HETATM   16  O   UNL     1     -12.233  11.855  65.510  1.00  0.00    -0.399 OA 
ENDBRANCH   9  11
ENDBRANCH   6   7
ENDBRANCH   5   6
ENDBRANCH   4   5
TORSDOF 4
ENDMDL
MODEL       52
REMARK 921   NORMALIZED FREE ENERGY PREDICTED BY IDOCK:   -4.23 KCAL/MOL
REMARK 922        TOTAL FREE ENERGY PREDICTED BY IDOCK:   -5.54 KCAL/MOL
REMARK 923 INTER-LIGAND FREE ENERGY PREDICTED BY IDOCK:   -5.42 KCAL/MOL
REMARK 924 INTRA-LIGAND FREE ENERGY PREDICTED BY IDOCK:   -0.11 KCAL/MOL
REMARK 927      BINDING AFFINITY PREDICTED BY RF-SCORE:    0.00 PKD
ROOT
HETATM    1  O   UNL     1     -13.040  14.871  73.446  1.00  0.00    -0.506 OA 
HETATM    2  C   UNL     1     -13.639  14.243  72.403  1.00  0.00    -0.500 C  
HETATM    3  O   UNL     1     -14.361  13.269  72.568  1.00  0.00    -0.662 OA 
HETATM    4  C   UNL     1     -13.401  14.891  71.054  1.00  0.00    -0.393 C  
ENDROOT
BRANCH   4   5
HETATM    5  S   UNL     1     -11.812  15.815  71.025  1.00  0.00    -0.450 SA 
BRANCH   5   6
HETATM    6  C   UNL     1     -11.440  15.702  69.247  1.00  0.00    -0.362 C  
BRANCH   6   7
HETATM    7  C   UNL     1     -10.028  16.174  68.972  1.00  0.00    -0.242 C  
HETATM    8  O   UNL     1      -9.048  15.533  69.344  1.00  0.00    -0.259 OA 
HETATM    9  N   UNL     1      -9.939  17.341  68.236  1.00  0.00    -0.295 N  
HETATM   10  H   UNL     1     -10.789  17.854  68.004  1.00  0.00     0.000 HD 
BRANCH   9  11
HETATM   11  C   UNL     1      -8.646  17.851  67.785  1.00  0.00    -0.242 C  
HETATM   12  C   UNL     1      -8.036  17.100  66.605  1.00  0.00    -0.300 C  
HETATM   13  C   UNL     1      -6.990  17.996  65.967  1.00  0.00    -0.305 C  
HETATM   14  S   UNL     1      -7.684  19.670  66.023  1.00  0.00    -0.299 SA 
HETATM   15  C   UNL     1      -8.712  19.327  67.407  1.00  0.00    -0.293 C  
HETATM   16  O   UNL     1      -9.336  20.186  68.014  1.00  0.00    -0.316 OA 
ENDBRANCH   9  11
ENDBRANCH   6   7
ENDBRANCH   5   6
ENDBRANCH   4   5
TORSDOF 4
ENDMDL
MODEL       53
REMARK 921   NORMALIZED FREE ENERGY PREDICTED BY IDOCK:   -4.22 KCAL/MOL
REMARK 922        TOTAL FREE ENERGY PREDICTED BY IDOCK:   -5.53 KCAL/MOL
REMARK 923 INTER-LIGAND FREE ENERGY PREDICTED BY IDOCK:   -5.74 KCAL/MOL
REMARK 924 INTRA-LIGAND FREE ENERGY PREDICTED BY IDOCK:    0.21 KCAL/MOL
REMARK 927      BINDING AFFINITY PREDICTED BY RF-SCORE:    0.00 PKD
ROOT
HETATM    1  O   UNL     1     -11.981  11.730  65.886  1.00  0.00    -0.405 OA 
HETATM    2  C   UNL     1     -12.469  12.833  65.266  1.00  0.00    -0.465 C  
HETATM    3  O   UNL     1     -12.938  12.782  64.137  1.00  0.00    -0.695 OA 
HETATM    4  C   UNL     1     -12.453  14.091  66.111  1.00  0.00    -0.430 C  
ENDROOT
BRANCH   4   5
HETATM    5  S   UNL     1     -11.124  14.030  67.380  1.00  0.00    -0.314 SA 
BRANCH   5   6
HETATM    6  C   UNL     1     -11.511  15.563  68.283  1.00  0.00    -0.353 C  
BRANCH   6   7
HETATM    7  C   UNL     1     -10.447  16.610  68.026  1.00  0.00    -0.320 C  
HETATM    8  O   UNL     1      -9.336  16.310  67.597  1.00  0.00    -0.216 OA 
HETATM    9  N   UNL     1     -10.846  17.912  68.264  1.00  0.00    -0.264 N  
HETATM   10  H   UNL     1     -11.764  18.090  68.671  1.00  0.00     0.000 HD 
BRANCH   9  11
HETATM   11  C   UNL     1      -9.972  19.038  67.940  1.00  0.00    -0.358 C  
HETATM   12  C   UNL     1      -8.603  19.000  68.613  1.00  0.00    -0.389 C  
HETATM   13  C   UNL     1      -7.675  19.921  67.841  1.00  0.00    -0.294 C  
HETATM   14  S   UNL     1      -8.098  19.688  66.095  1.00  0.00    -0.316 SA 
HETATM   15  C   UNL     1      -9.744  19.174  66.438  1.00  0.00    -0.364 C  
HETATM   16  O   UNL     1     -10.597  19.017  65.575  1.00  0.00    -0.557 OA 
ENDBRANCH   9  11
ENDBRANCH   6   7
ENDBRANCH   5   6
ENDBRANCH   4   5
TORSDOF 4
ENDMDL
MODEL       54
REMARK 921   NORMALIZED FREE ENERGY PREDICTED BY IDOCK:   -4.22 KCAL/MOL
REMARK 922        TOTAL FREE ENERGY PREDICTED BY IDOCK:   -5.52 KCAL/MOL
REMARK 923 INTER-LIGAND FREE ENERGY PREDICTED BY IDOCK:   -5.29 KCAL/MOL
REMARK 924 INTRA-LIGAND FREE ENERGY PREDICTED BY IDOCK:   -0.24 KCAL/MOL
REMARK 927      BINDING AFFINITY PREDICTED BY RF-SCORE:    0.00 PKD
ROOT
HETATM    1  O   UNL     1      -6.594  19.755  67.529  1.00  0.00    -0.208 OA 
HETATM    2  C   UNL     1      -7.243  19.357  68.651  1.00  0.00    -0.339 C  
HETATM    3  O   UNL     1      -6.860  19.684  69.767  1.00  0.00    -0.314 OA 
HETATM    4  C   UNL     1      -8.503  18.552  68.400  1.00  0.00    -0.328 C  
ENDROOT
BRANCH   4   5
HETATM    5  S   UNL     1      -8.422  17.664  66.793  1.00  0.00    -0.262 SA 
BRANCH   5   6
HETATM    6  C   UNL     1      -9.966  18.271  66.045  1.00  0.00    -0.215 C  
BRANCH   6   7
HETATM    7  C   UNL     1     -10.749  17.122  65.444  1.00  0.00    -0.088 C  
HETATM    8  O   UNL     1     -11.330  17.230  64.367  1.00  0.00    -1.052 OA 
HETATM    9  N   UNL     1     -10.710  15.949  66.174  1.00  0.00    -0.301 N  
HETATM   10  H   UNL     1     -10.256  15.941  67.087  1.00  0.00     0.000 HD 
BRANCH   9  11
HETATM   11  C   UNL     1     -11.312  14.721  65.659  1.00  0.00    -0.343 C  
HETATM   12  C   UNL     1     -10.460  13.966  64.642  1.00  0.00    -0.419 C  
HETATM   13  C   UNL     1     -10.968  12.538  64.571  1.00  0.00    -0.323 C  
HETATM   14  S   UNL     1     -11.386  12.084  66.275  1.00  0.00    -0.338 SA 
HETATM   15  C   UNL     1     -11.669  13.745  66.775  1.00  0.00    -0.391 C  
HETATM   16  O   UNL     1     -12.153  14.052  67.856  1.00  0.00    -0.363 OA 
ENDBRANCH   9  11
ENDBRANCH   6   7
ENDBRANCH   5   6
ENDBRANCH   4   5
TORSDOF 4
ENDMDL
MODEL       55
REMARK 921   NORMALIZED FREE ENERGY PREDICTED BY IDOCK:   -4.21 KCAL/MOL
REMARK 922        TOTAL FREE ENERGY PREDICTED BY IDOCK:   -5.52 KCAL/MOL
REMARK 923 INTER-LIGAND FREE ENERGY PREDICTED BY IDOCK:   -5.13 KCAL/MOL
REMARK 924 INTRA-LIGAND FREE ENERGY PREDICTED BY IDOCK:   -0.39 KCAL/MOL
REMARK 927      BINDING AFFINITY PREDICTED BY RF-SCORE:    0.00 PKD
ROOT
HETATM    1  O   UNL     1     -11.023  19.223  67.497  1.00  0.00    -0.465 OA 
HETATM    2  C   UNL     1     -10.397  19.037  66.309  1.00  0.00    -0.459 C  
HETATM    3  O   UNL     1     -10.974  19.211  65.244  1.00  0.00    -0.512 OA 
HETATM    4  C   UNL     1      -8.929  18.677  66.417  1.00  0.00    -0.279 C  
ENDROOT
BRANCH   4   5
HETATM    5  S   UNL     1      -8.562  17.830  68.007  1.00  0.00    -0.256 SA 
BRANCH   5   6
HETATM    6  C   UNL     1      -8.174  16.169  67.371  1.00  0.00    -0.163 C  
BRANCH   6   7
HETATM    7  C   UNL     1      -9.447  15.400  67.091  1.00  0.00    -0.213 C  
HETATM    8  O   UNL     1     -10.505  15.674  67.653  1.00  0.00    -0.269 OA 
HETATM    9  N   UNL     1      -9.330  14.414  66.129  1.00  0.00    -0.490 N  
HETATM   10  H   UNL     1      -8.412  14.199  65.739  1.00  0.00     0.000 HD 
BRANCH   9  11
HETATM   11  C   UNL     1     -10.501  13.674  65.662  1.00  0.00    -0.299 C  
HETATM   12  C   UNL     1     -11.248  14.323  64.500  1.00  0.00    -0.331 C  
HETATM   13  C   UNL     1     -12.101  13.256  63.837  1.00  0.00    -0.468 C  
HETATM   14  S   UNL     1     -11.095  11.749  63.851  1.00  0.00    -0.432 SA 
HETATM   15  C   UNL     1     -10.150  12.249  65.247  1.00  0.00    -0.271 C  
HETATM   16  O   UNL     1      -9.369  11.512  65.832  1.00  0.00    -0.221 OA 
ENDBRANCH   9  11
ENDBRANCH   6   7
ENDBRANCH   5   6
ENDBRANCH   4   5
TORSDOF 4
ENDMDL
MODEL       56
REMARK 921   NORMALIZED FREE ENERGY PREDICTED BY IDOCK:   -4.20 KCAL/MOL
REMARK 922        TOTAL FREE ENERGY PREDICTED BY IDOCK:   -5.50 KCAL/MOL
REMARK 923 INTER-LIGAND FREE ENERGY PREDICTED BY IDOCK:   -5.51 KCAL/MOL
REMARK 924 INTRA-LIGAND FREE ENERGY PREDICTED BY IDOCK:    0.01 KCAL/MOL
REMARK 927      BINDING AFFINITY PREDICTED BY RF-SCORE:    0.00 PKD
ROOT
HETATM    1  O   UNL     1     -10.999   9.550  71.429  1.00  0.00    -0.351 OA 
HETATM    2  C   UNL     1     -12.304   9.656  71.784  1.00  0.00    -0.392 C  
HETATM    3  O   UNL     1     -12.908   8.724  72.299  1.00  0.00    -0.369 OA 
HETATM    4  C   UNL     1     -12.910  11.027  71.562  1.00  0.00    -0.450 C  
ENDROOT
BRANCH   4   5
HETATM    5  S   UNL     1     -12.055  11.926  70.206  1.00  0.00    -0.269 SA 
BRANCH   5   6
HETATM    6  C   UNL     1     -12.522  13.630  70.645  1.00  0.00    -0.347 C  
BRANCH   6   7
HETATM    7  C   UNL     1     -12.040  14.599  69.585  1.00  0.00    -0.311 C  
HETATM    8  O   UNL     1     -11.524  15.674  69.879  1.00  0.00    -0.285 OA 
HETATM    9  N   UNL     1     -12.184  14.154  68.284  1.00  0.00    -0.573 N  
HETATM   10  H   UNL     1     -12.671  13.276  68.104  1.00  0.00     0.000 HD 
BRANCH   9  11
HETATM   11  C   UNL     1     -11.651  14.924  67.162  1.00  0.00    -0.315 C  
HETATM   12  C   UNL     1     -10.137  15.117  67.179  1.00  0.00    -0.239 C  
HETATM   13  C   UNL     1      -9.696  15.489  65.775  1.00  0.00    -0.348 C  
HETATM   14  S   UNL     1     -10.707  14.478  64.662  1.00  0.00    -0.195 SA 
HETATM   15  C   UNL     1     -12.022  14.308  65.817  1.00  0.00    -0.393 C  
HETATM   16  O   UNL     1     -13.106  13.817  65.537  1.00  0.00    -0.671 OA 
ENDBRANCH   9  11
ENDBRANCH   6   7
ENDBRANCH   5   6
ENDBRANCH   4   5
TORSDOF 4
ENDMDL
MODEL       57
REMARK 921   NORMALIZED FREE ENERGY PREDICTED BY IDOCK:   -4.20 KCAL/MOL
REMARK 922        TOTAL FREE ENERGY PREDICTED BY IDOCK:   -5.50 KCAL/MOL
REMARK 923 INTER-LIGAND FREE ENERGY PREDICTED BY IDOCK:   -5.18 KCAL/MOL
REMARK 924 INTRA-LIGAND FREE ENERGY PREDICTED BY IDOCK:   -0.32 KCAL/MOL
REMARK 927      BINDING AFFINITY PREDICTED BY RF-SCORE:    0.00 PKD
ROOT
HETATM    1  O   UNL     1      -9.487  19.561  69.069  1.00  0.00    -0.393 OA 
HETATM    2  C   UNL     1      -8.366  18.899  68.691  1.00  0.00    -0.349 C  
HETATM    3  O   UNL     1      -7.259  19.415  68.763  1.00  0.00    -0.326 OA 
HETATM    4  C   UNL     1      -8.595  17.467  68.253  1.00  0.00    -0.260 C  
ENDROOT
BRANCH   4   5
HETATM    5  S   UNL     1     -10.296  17.230  67.596  1.00  0.00    -0.358 SA 
BRANCH   5   6
HETATM    6  C   UNL     1     -10.989  16.214  68.937  1.00  0.00    -0.324 C  
BRANCH   6   7
HETATM    7  C   UNL     1     -11.447  14.873  68.401  1.00  0.00    -0.318 C  
HETATM    8  O   UNL     1     -12.140  14.112  69.072  1.00  0.00    -0.343 OA 
HETATM    9  N   UNL     1     -11.065  14.608  67.099  1.00  0.00    -0.316 N  
HETATM   10  H   UNL     1     -10.444  15.257  66.616  1.00  0.00     0.000 HD 
BRANCH   9  11
HETATM   11  C   UNL     1     -11.538  13.412  66.405  1.00  0.00    -0.346 C  
HETATM   12  C   UNL     1     -12.605  13.666  65.344  1.00  0.00    -0.533 C  
HETATM   13  C   UNL     1     -12.640  12.465  64.416  1.00  0.00    -0.399 C  
HETATM   14  S   UNL     1     -10.911  11.964  64.203  1.00  0.00    -0.403 SA 
HETATM   15  C   UNL     1     -10.398  12.648  65.738  1.00  0.00    -0.279 C  
HETATM   16  O   UNL     1      -9.289  12.468  66.221  1.00  0.00    -0.232 OA 
ENDBRANCH   9  11
ENDBRANCH   6   7
ENDBRANCH   5   6
ENDBRANCH   4   5
TORSDOF 4
ENDMDL
MODEL       58
REMARK 921   NORMALIZED FREE ENERGY PREDICTED BY IDOCK:   -4.19 KCAL/MOL
REMARK 922        TOTAL FREE ENERGY PREDICTED BY IDOCK:   -5.48 KCAL/MOL
REMARK 923 INTER-LIGAND FREE ENERGY PREDICTED BY IDOCK:   -5.24 KCAL/MOL
REMARK 924 INTRA-LIGAND FREE ENERGY PREDICTED BY IDOCK:   -0.24 KCAL/MOL
REMARK 927      BINDING AFFINITY PREDICTED BY RF-SCORE:    0.00 PKD
ROOT
HETATM    1  O   UNL     1     -10.774   9.334  71.404  1.00  0.00    -0.317 OA 
HETATM    2  C   UNL     1     -12.093   9.079  71.590  1.00  0.00    -0.352 C  
HETATM    3  O   UNL     1     -12.516   7.938  71.721  1.00  0.00    -0.304 OA 
HETATM    4  C   UNL     1     -12.966  10.313  71.697  1.00  0.00    -0.465 C  
ENDROOT
BRANCH   4   5
HETATM    5  S   UNL     1     -12.228  11.736  70.795  1.00  0.00    -0.224 SA 
BRANCH   5   6
HETATM    6  C   UNL     1     -13.071  13.099  71.658  1.00  0.00    -0.353 C  
BRANCH   6   7
HETATM    7  C   UNL     1     -13.003  14.368  70.835  1.00  0.00    -0.348 C  
HETATM    8  O   UNL     1     -13.707  15.342  71.089  1.00  0.00    -0.495 OA 
HETATM    9  N   UNL     1     -12.061  14.353  69.823  1.00  0.00    -0.320 N  
HETATM   10  H   UNL     1     -11.547  13.494  69.629  1.00  0.00     0.000 HD 
BRANCH   9  11
HETATM   11  C   UNL     1     -11.792  15.548  69.027  1.00  0.00    -0.354 C  
HETATM   12  C   UNL     1     -10.696  16.455  69.581  1.00  0.00    -0.337 C  
HETATM   13  C   UNL     1     -10.212  17.349  68.454  1.00  0.00    -0.362 C  
HETATM   14  S   UNL     1     -10.192  16.302  66.975  1.00  0.00    -0.283 SA 
HETATM   15  C   UNL     1     -11.423  15.207  67.587  1.00  0.00    -0.309 C  
HETATM   16  O   UNL     1     -11.950  14.336  66.908  1.00  0.00    -0.416 OA 
ENDBRANCH   9  11
ENDBRANCH   6   7
ENDBRANCH   5   6
ENDBRANCH   4   5
TORSDOF 4
ENDMDL
MODEL       59
REMARK 921   NORMALIZED FREE ENERGY PREDICTED BY IDOCK:   -4.17 KCAL/MOL
REMARK 922        TOTAL FREE ENERGY PREDICTED BY IDOCK:   -5.46 KCAL/MOL
REMARK 923 INTER-LIGAND FREE ENERGY PREDICTED BY IDOCK:   -5.21 KCAL/MOL
REMARK 924 INTRA-LIGAND FREE ENERGY PREDICTED BY IDOCK:   -0.25 KCAL/MOL
REMARK 927      BINDING AFFINITY PREDICTED BY RF-SCORE:    0.00 PKD
ROOT
HETATM    1  O   UNL     1     -10.911  11.940  63.213  1.00  0.00    -0.385 OA 
HETATM    2  C   UNL     1     -12.076  12.351  63.773  1.00  0.00    -0.529 C  
HETATM    3  O   UNL     1     -13.161  12.058  63.288  1.00  0.00    -0.701 OA 
HETATM    4  C   UNL     1     -11.918  13.121  65.068  1.00  0.00    -0.383 C  
ENDROOT
BRANCH   4   5
HETATM    5  S   UNL     1     -10.291  13.974  65.146  1.00  0.00    -0.393 SA 
BRANCH   5   6
HETATM    6  C   UNL     1     -10.861  15.701  65.076  1.00  0.00    -0.450 C  
BRANCH   6   7
HETATM    7  C   UNL     1     -10.018  16.573  65.983  1.00  0.00    -0.337 C  
HETATM    8  O   UNL     1     -10.495  17.532  66.584  1.00  0.00    -0.323 OA 
HETATM    9  N   UNL     1      -8.701  16.172  66.112  1.00  0.00    -0.337 N  
HETATM   10  H   UNL     1      -8.353  15.400  65.544  1.00  0.00     0.000 HD 
BRANCH   9  11
HETATM   11  C   UNL     1      -7.800  16.839  67.050  1.00  0.00    -0.194 C  
HETATM   12  C   UNL     1      -6.810  15.915  67.755  1.00  0.00    -0.174 C  
HETATM   13  C   UNL     1      -5.677  16.767  68.296  1.00  0.00    -0.118 C  
HETATM   14  S   UNL     1      -5.364  18.024  67.028  1.00  0.00    -0.140 SA 
HETATM   15  C   UNL     1      -6.997  17.950  66.381  1.00  0.00    -0.249 C  
HETATM   16  O   UNL     1      -7.431  18.738  65.553  1.00  0.00    -0.493 OA 
ENDBRANCH   9  11
ENDBRANCH   6   7
ENDBRANCH   5   6
ENDBRANCH   4   5
TORSDOF 4
ENDMDL
MODEL       60
REMARK 921   NORMALIZED FREE ENERGY PREDICTED BY IDOCK:   -4.16 KCAL/MOL
REMARK 922        TOTAL FREE ENERGY PREDICTED BY IDOCK:   -5.45 KCAL/MOL
REMARK 923 INTER-LIGAND FREE ENERGY PREDICTED BY IDOCK:   -5.17 KCAL/MOL
REMARK 924 INTRA-LIGAND FREE ENERGY PREDICTED BY IDOCK:   -0.28 KCAL/MOL
REMARK 927      BINDING AFFINITY PREDICTED BY RF-SCORE:    0.00 PKD
ROOT
HETATM    1  O   UNL     1     -10.017  11.714  67.027  1.00  0.00    -0.200 OA 
HETATM    2  C   UNL     1     -11.369  11.824  67.021  1.00  0.00    -0.321 C  
HETATM    3  O   UNL     1     -12.072  11.144  67.756  1.00  0.00    -0.606 OA 
HETATM    4  C   UNL     1     -11.912  12.896  66.099  1.00  0.00    -0.429 C  
ENDROOT
BRANCH   4   5
HETATM    5  S   UNL     1     -10.769  13.214  64.694  1.00  0.00    -0.401 SA 
BRANCH   5   6
HETATM    6  C   UNL     1     -10.998  15.012  64.531  1.00  0.00    -0.191 C  
BRANCH   6   7
HETATM    7  C   UNL     1     -10.119  15.748  65.520  1.00  0.00    -0.351 C  
HETATM    8  O   UNL     1      -9.086  15.250  65.963  1.00  0.00    -0.310 OA 
HETATM    9  N   UNL     1     -10.545  17.025  65.838  1.00  0.00    -0.282 N  
HETATM   10  H   UNL     1     -11.440  17.359  65.480  1.00  0.00     0.000 HD 
BRANCH   9  11
HETATM   11  C   UNL     1      -9.734  17.902  66.680  1.00  0.00    -0.319 C  
HETATM   12  C   UNL     1      -9.838  19.387  66.346  1.00  0.00    -0.476 C  
HETATM   13  C   UNL     1      -9.353  20.174  67.550  1.00  0.00    -0.382 C  
HETATM   14  S   UNL     1      -9.976  19.281  68.999  1.00  0.00    -0.277 SA 
HETATM   15  C   UNL     1     -10.062  17.738  68.161  1.00  0.00    -0.362 C  
HETATM   16  O   UNL     1     -10.289  16.676  68.723  1.00  0.00    -0.261 OA 
ENDBRANCH   9  11
ENDBRANCH   6   7
ENDBRANCH   5   6
ENDBRANCH   4   5
TORSDOF 4
ENDMDL
MODEL       61
REMARK 921   NORMALIZED FREE ENERGY PREDICTED BY IDOCK:   -4.15 KCAL/MOL
REMARK 922        TOTAL FREE ENERGY PREDICTED BY IDOCK:   -5.44 KCAL/MOL
REMARK 923 INTER-LIGAND FREE ENERGY PREDICTED BY IDOCK:   -5.06 KCAL/MOL
REMARK 924 INTRA-LIGAND FREE ENERGY PREDICTED BY IDOCK:   -0.38 KCAL/MOL
REMARK 927      BINDING AFFINITY PREDICTED BY RF-SCORE:    0.00 PKD
ROOT
HETATM    1  O   UNL     1      -8.652  14.038  67.962  1.00  0.00    -0.160 OA 
HETATM    2  C   UNL     1      -9.222  13.524  66.844  1.00  0.00    -0.249 C  
HETATM    3  O   UNL     1      -9.506  14.228  65.885  1.00  0.00    -0.237 OA 
HETATM    4  C   UNL     1      -9.400  12.019  66.860  1.00  0.00    -0.200 C  
ENDROOT
BRANCH   4   5
HETATM    5  S   UNL     1      -9.557  11.380  68.577  1.00  0.00    -0.170 SA 
BRANCH   5   6
HETATM    6  C   UNL     1     -11.372  11.320  68.703  1.00  0.00    -0.273 C  
BRANCH   6   7
HETATM    7  C   UNL     1     -11.919  12.675  69.100  1.00  0.00    -0.243 C  
HETATM    8  O   UNL     1     -12.270  13.502  68.262  1.00  0.00    -0.313 OA 
HETATM    9  N   UNL     1     -12.032  12.878  70.463  1.00  0.00    -0.533 N  
HETATM   10  H   UNL     1     -11.671  12.174  71.107  1.00  0.00     0.000 HD 
BRANCH   9  11
HETATM   11  C   UNL     1     -12.660  14.086  70.995  1.00  0.00    -0.366 C  
HETATM   12  C   UNL     1     -13.469  13.879  72.272  1.00  0.00    -0.623 C  
HETATM   13  C   UNL     1     -13.643  15.230  72.942  1.00  0.00    -0.487 C  
HETATM   14  S   UNL     1     -12.065  16.093  72.715  1.00  0.00    -0.545 SA 
HETATM   15  C   UNL     1     -11.642  15.188  71.268  1.00  0.00    -0.358 C  
HETATM   16  O   UNL     1     -10.689  15.466  70.553  1.00  0.00    -0.311 OA 
ENDBRANCH   9  11
ENDBRANCH   6   7
ENDBRANCH   5   6
ENDBRANCH   4   5
TORSDOF 4
ENDMDL
MODEL       62
REMARK 921   NORMALIZED FREE ENERGY PREDICTED BY IDOCK:   -4.15 KCAL/MOL
REMARK 922        TOTAL FREE ENERGY PREDICTED BY IDOCK:   -5.44 KCAL/MOL
REMARK 923 INTER-LIGAND FREE ENERGY PREDICTED BY IDOCK:   -5.17 KCAL/MOL
REMARK 924 INTRA-LIGAND FREE ENERGY PREDICTED BY IDOCK:   -0.27 KCAL/MOL
REMARK 927      BINDING AFFINITY PREDICTED BY RF-SCORE:    0.00 PKD
ROOT
HETATM    1  O   UNL     1     -10.990  16.903  68.741  1.00  0.00    -0.311 OA 
HETATM    2  C   UNL     1     -10.541  16.879  67.461  1.00  0.00    -0.307 C  
HETATM    3  O   UNL     1     -10.115  17.885  66.910  1.00  0.00    -0.317 OA 
HETATM    4  C   UNL     1     -10.543  15.508  66.816  1.00  0.00    -0.307 C  
ENDROOT
BRANCH   4   5
HETATM    5  S   UNL     1     -11.822  14.417  67.562  1.00  0.00    -0.360 SA 
BRANCH   5   6
HETATM    6  C   UNL     1     -10.749  13.373  68.598  1.00  0.00    -0.255 C  
BRANCH   6   7
HETATM    7  C   UNL     1     -11.360  11.999  68.772  1.00  0.00    -0.278 C  
HETATM    8  O   UNL     1     -12.111  11.513  67.929  1.00  0.00    -0.630 OA 
HETATM    9  N   UNL     1     -10.967  11.330  69.917  1.00  0.00    -0.471 N  
HETATM   10  H   UNL     1     -10.385  11.809  70.603  1.00  0.00     0.000 HD 
BRANCH   9  11
HETATM   11  C   UNL     1     -11.373   9.947  70.158  1.00  0.00    -0.275 C  
HETATM   12  C   UNL     1     -10.222   8.968  70.368  1.00  0.00    -0.250 C  
HETATM   13  C   UNL     1     -10.775   7.734  71.059  1.00  0.00    -0.228 C  
HETATM   14  S   UNL     1     -11.986   8.349  72.258  1.00  0.00    -0.385 SA 
HETATM   15  C   UNL     1     -12.307   9.825  71.358  1.00  0.00    -0.388 C  
HETATM   16  O   UNL     1     -13.208  10.604  71.637  1.00  0.00    -0.412 OA 
ENDBRANCH   9  11
ENDBRANCH   6   7
ENDBRANCH   5   6
ENDBRANCH   4   5
TORSDOF 4
ENDMDL
MODEL       63
REMARK 921   NORMALIZED FREE ENERGY PREDICTED BY IDOCK:   -4.12 KCAL/MOL
REMARK 922        TOTAL FREE ENERGY PREDICTED BY IDOCK:   -5.41 KCAL/MOL
REMARK 923 INTER-LIGAND FREE ENERGY PREDICTED BY IDOCK:   -5.13 KCAL/MOL
REMARK 924 INTRA-LIGAND FREE ENERGY PREDICTED BY IDOCK:   -0.27 KCAL/MOL
REMARK 927      BINDING AFFINITY PREDICTED BY RF-SCORE:    0.00 PKD
ROOT
HETATM    1  O   UNL     1     -12.996  14.032  65.277  1.00  0.00    -0.743 OA 
HETATM    2  C   UNL     1     -12.652  12.754  64.979  1.00  0.00    -0.468 C  
HETATM    3  O   UNL     1     -13.201  12.133  64.078  1.00  0.00    -0.728 OA 
HETATM    4  C   UNL     1     -11.498  12.204  65.792  1.00  0.00    -0.361 C  
ENDROOT
BRANCH   4   5
HETATM    5  S   UNL     1     -11.379  13.029  67.431  1.00  0.00    -0.324 SA 
BRANCH   5   6
HETATM    6  C   UNL     1     -11.785  11.614  68.502  1.00  0.00    -0.315 C  
BRANCH   6   7
HETATM    7  C   UNL     1     -10.673  10.588  68.464  1.00  0.00    -0.224 C  
HETATM    8  O   UNL     1      -9.499  10.912  68.297  1.00  0.00    -0.156 OA 
HETATM    9  N   UNL     1     -11.078   9.284  68.682  1.00  0.00    -0.458 N  
HETATM   10  H   UNL     1     -12.073   9.074  68.760  1.00  0.00     0.000 HD 
BRANCH   9  11
HETATM   11  C   UNL     1     -10.103   8.202  68.800  1.00  0.00    -0.199 C  
HETATM   12  C   UNL     1      -9.734   7.825  70.232  1.00  0.00    -0.179 C  
HETATM   13  C   UNL     1      -9.123   6.436  70.210  1.00  0.00    -0.155 C  
HETATM   14  S   UNL     1     -10.084   5.499  68.992  1.00  0.00    -0.221 SA 
HETATM   15  C   UNL     1     -10.568   6.932  68.095  1.00  0.00    -0.216 C  
HETATM   16  O   UNL     1     -11.142   6.891  67.015  1.00  0.00    -0.389 OA 
ENDBRANCH   9  11
ENDBRANCH   6   7
ENDBRANCH   5   6
ENDBRANCH   4   5
TORSDOF 4
ENDMDL
MODEL       64
REMARK 921   NORMALIZED FREE ENERGY PREDICTED BY IDOCK:   -4.12 KCAL/MOL
REMARK 922        TOTAL FREE ENERGY PREDICTED BY IDOCK:   -5.40 KCAL/MOL
REMARK 923 INTER-LIGAND FREE ENERGY PREDICTED BY IDOCK:   -5.10 KCAL/MOL
REMARK 924 INTRA-LIGAND FREE ENERGY PREDICTED BY IDOCK:   -0.30 KCAL/MOL
REMARK 927      BINDING AFFINITY PREDICTED BY RF-SCORE:    0.00 PKD
ROOT
HETATM    1  O   UNL     1     -10.253   6.556  71.074  1.00  0.00    -0.187 OA 
HETATM    2  C   UNL     1     -11.421   6.550  70.385  1.00  0.00    -0.404 C  
HETATM    3  O   UNL     1     -11.497   6.095  69.251  1.00  0.00    -0.404 OA 
HETATM    4  C   UNL     1     -12.614   7.075  71.158  1.00  0.00    -0.339 C  
ENDROOT
BRANCH   4   5
HETATM    5  S   UNL     1     -12.098   8.274  72.453  1.00  0.00    -0.325 SA 
BRANCH   5   6
HETATM    6  C   UNL     1     -12.818   9.791  71.751  1.00  0.00    -0.434 C  
BRANCH   6   7
HETATM    7  C   UNL     1     -11.814  10.486  70.856  1.00  0.00    -0.355 C  
HETATM    8  O   UNL     1     -10.687  10.032  70.673  1.00  0.00    -0.303 OA 
HETATM    9  N   UNL     1     -12.285  11.628  70.234  1.00  0.00    -0.332 N  
HETATM   10  H   UNL     1     -13.211  11.983  70.469  1.00  0.00     0.000 HD 
BRANCH   9  11
HETATM   11  C   UNL     1     -11.474  12.334  69.244  1.00  0.00    -0.292 C  
HETATM   12  C   UNL     1     -11.430  11.681  67.866  1.00  0.00    -0.381 C  
HETATM   13  C   UNL     1     -10.980  12.728  66.864  1.00  0.00    -0.260 C  
HETATM   14  S   UNL     1     -11.786  14.269  67.374  1.00  0.00    -0.404 SA 
HETATM   15  C   UNL     1     -11.929  13.778  69.055  1.00  0.00    -0.360 C  
HETATM   16  O   UNL     1     -12.286  14.531  69.951  1.00  0.00    -0.320 OA 
ENDBRANCH   9  11
ENDBRANCH   6   7
ENDBRANCH   5   6
ENDBRANCH   4   5
TORSDOF 4
ENDMDL
MODEL       65
REMARK 921   NORMALIZED FREE ENERGY PREDICTED BY IDOCK:   -4.12 KCAL/MOL
REMARK 922        TOTAL FREE ENERGY PREDICTED BY IDOCK:   -5.40 KCAL/MOL
REMARK 923 INTER-LIGAND FREE ENERGY PREDICTED BY IDOCK:   -5.05 KCAL/MOL
REMARK 924 INTRA-LIGAND FREE ENERGY PREDICTED BY IDOCK:   -0.35 KCAL/MOL
REMARK 927      BINDING AFFINITY PREDICTED BY RF-SCORE:    0.00 PKD
ROOT
HETATM    1  O   UNL     1     -12.032  11.546  70.480  1.00  0.00    -0.359 OA 
HETATM    2  C   UNL     1     -12.469  10.553  71.293  1.00  0.00    -0.419 C  
HETATM    3  O   UNL     1     -13.407  10.717  72.062  1.00  0.00    -0.447 OA 
HETATM    4  C   UNL     1     -11.758   9.228  71.111  1.00  0.00    -0.325 C  
ENDROOT
BRANCH   4   5
HETATM    5  S   UNL     1     -10.050   9.466  70.472  1.00  0.00    -0.290 SA 
BRANCH   5   6
HETATM    6  C   UNL     1     -10.325   9.023  68.728  1.00  0.00    -0.215 C  
BRANCH   6   7
HETATM    7  C   UNL     1      -9.982  10.190  67.827  1.00  0.00    -0.168 C  
HETATM    8  O   UNL     1      -9.119  11.010  68.130  1.00  0.00    -0.143 OA 
HETATM    9  N   UNL     1     -10.678  10.225  66.633  1.00  0.00    -0.162 N  
HETATM   10  H   UNL     1     -11.421   9.546  66.465  1.00  0.00     0.000 HD 
BRANCH   9  11
HETATM   11  C   UNL     1     -10.366  11.219  65.608  1.00  0.00    -0.256 C  
HETATM   12  C   UNL     1      -9.866  10.642  64.286  1.00  0.00    -0.391 C  
HETATM   13  C   UNL     1     -10.043  11.702  63.214  1.00  0.00    -0.423 C  
HETATM   14  S   UNL     1     -11.622  12.511  63.585  1.00  0.00    -0.527 SA 
HETATM   15  C   UNL     1     -11.560  12.116  65.297  1.00  0.00    -0.322 C  
HETATM   16  O   UNL     1     -12.342  12.566  66.123  1.00  0.00    -0.596 OA 
ENDBRANCH   9  11
ENDBRANCH   6   7
ENDBRANCH   5   6
ENDBRANCH   4   5
TORSDOF 4
ENDMDL
MODEL       66
REMARK 921   NORMALIZED FREE ENERGY PREDICTED BY IDOCK:   -4.11 KCAL/MOL
REMARK 922        TOTAL FREE ENERGY PREDICTED BY IDOCK:   -5.39 KCAL/MOL
REMARK 923 INTER-LIGAND FREE ENERGY PREDICTED BY IDOCK:   -5.16 KCAL/MOL
REMARK 924 INTRA-LIGAND FREE ENERGY PREDICTED BY IDOCK:   -0.23 KCAL/MOL
REMARK 927      BINDING AFFINITY PREDICTED BY RF-SCORE:    0.00 PKD
ROOT
HETATM    1  O   UNL     1     -10.488   5.530  72.028  1.00  0.00    -0.209 OA 
HETATM    2  C   UNL     1     -10.708   6.180  73.198  1.00  0.00    -0.260 C  
HETATM    3  O   UNL     1     -10.621   5.609  74.277  1.00  0.00    -0.262 OA 
HETATM    4  C   UNL     1     -10.990   7.662  73.054  1.00  0.00    -0.400 C  
ENDROOT
BRANCH   4   5
HETATM    5  S   UNL     1     -11.730   8.048  71.416  1.00  0.00    -0.295 SA 
BRANCH   5   6
HETATM    6  C   UNL     1     -10.830   9.585  71.042  1.00  0.00    -0.353 C  
BRANCH   6   7
HETATM    7  C   UNL     1     -11.766  10.613  70.443  1.00  0.00    -0.353 C  
HETATM    8  O   UNL     1     -12.976  10.588  70.655  1.00  0.00    -0.366 OA 
HETATM    9  N   UNL     1     -11.146  11.593  69.690  1.00  0.00    -0.457 N  
HETATM   10  H   UNL     1     -10.145  11.527  69.506  1.00  0.00     0.000 HD 
BRANCH   9  11
HETATM   11  C   UNL     1     -11.903  12.722  69.153  1.00  0.00    -0.301 C  
HETATM   12  C   UNL     1     -11.495  14.087  69.702  1.00  0.00    -0.317 C  
HETATM   13  C   UNL     1     -12.001  15.149  68.743  1.00  0.00    -0.250 C  
HETATM   14  S   UNL     1     -11.756  14.464  67.084  1.00  0.00    -0.403 SA 
HETATM   15  C   UNL     1     -11.823  12.795  67.632  1.00  0.00    -0.339 C  
HETATM   16  O   UNL     1     -11.866  11.836  66.874  1.00  0.00    -0.591 OA 
ENDBRANCH   9  11
ENDBRANCH   6   7
ENDBRANCH   5   6
ENDBRANCH   4   5
TORSDOF 4
ENDMDL
MODEL       67
REMARK 921   NORMALIZED FREE ENERGY PREDICTED BY IDOCK:   -4.10 KCAL/MOL
REMARK 922        TOTAL FREE ENERGY PREDICTED BY IDOCK:   -5.38 KCAL/MOL
REMARK 923 INTER-LIGAND FREE ENERGY PREDICTED BY IDOCK:   -5.76 KCAL/MOL
REMARK 924 INTRA-LIGAND FREE ENERGY PREDICTED BY IDOCK:    0.38 KCAL/MOL
REMARK 927      BINDING AFFINITY PREDICTED BY RF-SCORE:    0.00 PKD
ROOT
HETATM    1  O   UNL     1      -9.650  16.044  66.606  1.00  0.00    -0.218 OA 
HETATM    2  C   UNL     1     -10.360  15.593  65.542  1.00  0.00    -0.396 C  
HETATM    3  O   UNL     1     -10.842  16.359  64.718  1.00  0.00    -0.697 OA 
HETATM    4  C   UNL     1     -10.433  14.084  65.426  1.00  0.00    -0.351 C  
ENDROOT
BRANCH   4   5
HETATM    5  S   UNL     1     -10.266  13.276  67.069  1.00  0.00    -0.246 SA 
BRANCH   5   6
HETATM    6  C   UNL     1     -11.953  13.539  67.698  1.00  0.00    -0.336 C  
BRANCH   6   7
HETATM    7  C   UNL     1     -11.921  14.370  68.963  1.00  0.00    -0.307 C  
HETATM    8  O   UNL     1     -12.056  15.591  68.938  1.00  0.00    -0.311 OA 
HETATM    9  N   UNL     1     -11.780  13.643  70.131  1.00  0.00    -0.469 N  
HETATM   10  H   UNL     1     -11.618  12.638  70.081  1.00  0.00     0.000 HD 
BRANCH   9  11
HETATM   11  C   UNL     1     -11.859  14.295  71.437  1.00  0.00    -0.092 C  
HETATM   12  C   UNL     1     -11.435  15.761  71.450  1.00  0.00    -0.496 C  
HETATM   13  C   UNL     1     -12.007  16.404  72.700  1.00  0.00    -0.502 C  
HETATM   14  S   UNL     1     -13.660  15.690  72.903  1.00  0.00    -0.531 SA 
HETATM   15  C   UNL     1     -13.261  14.215  72.033  1.00  0.00    -0.402 C  
HETATM   16  O   UNL     1     -13.998  13.241  71.982  1.00  0.00    -0.406 OA 
ENDBRANCH   9  11
ENDBRANCH   6   7
ENDBRANCH   5   6
ENDBRANCH   4   5
TORSDOF 4
ENDMDL
MODEL       68
REMARK 921   NORMALIZED FREE ENERGY PREDICTED BY IDOCK:   -4.09 KCAL/MOL
REMARK 922        TOTAL FREE ENERGY PREDICTED BY IDOCK:   -5.36 KCAL/MOL
REMARK 923 INTER-LIGAND FREE ENERGY PREDICTED BY IDOCK:   -5.08 KCAL/MOL
REMARK 924 INTRA-LIGAND FREE ENERGY PREDICTED BY IDOCK:   -0.28 KCAL/MOL
REMARK 927      BINDING AFFINITY PREDICTED BY RF-SCORE:    0.00 PKD
ROOT
HETATM    1  O   UNL     1     -11.991   7.282  70.785  1.00  0.00    -0.314 OA 
HETATM    2  C   UNL     1     -11.136   7.038  69.761  1.00  0.00    -0.241 C  
HETATM    3  O   UNL     1     -10.924   5.903  69.357  1.00  0.00    -0.342 OA 
HETATM    4  C   UNL     1     -10.540   8.278  69.126  1.00  0.00    -0.165 C  
ENDROOT
BRANCH   4   5
HETATM    5  S   UNL     1     -10.468   9.675  70.320  1.00  0.00    -0.303 SA 
BRANCH   5   6
HETATM    6  C   UNL     1     -11.623  10.820  69.502  1.00  0.00    -0.303 C  
BRANCH   6   7
HETATM    7  C   UNL     1     -10.943  11.515  68.341  1.00  0.00    -0.221 C  
HETATM    8  O   UNL     1      -9.752  11.813  68.374  1.00  0.00    -0.194 OA 
HETATM    9  N   UNL     1     -11.753  11.735  67.242  1.00  0.00    -0.271 N  
HETATM   10  H   UNL     1     -12.746  11.513  67.298  1.00  0.00     0.000 HD 
BRANCH   9  11
HETATM   11  C   UNL     1     -11.206  12.280  66.002  1.00  0.00    -0.332 C  
HETATM   12  C   UNL     1     -10.580  11.248  65.068  1.00  0.00    -0.353 C  
HETATM   13  C   UNL     1     -10.503  11.857  63.679  1.00  0.00    -0.447 C  
HETATM   14  S   UNL     1     -12.035  12.803  63.476  1.00  0.00    -0.543 SA 
HETATM   15  C   UNL     1     -12.254  13.049  65.203  1.00  0.00    -0.459 C  
HETATM   16  O   UNL     1     -13.099  13.795  65.677  1.00  0.00    -0.591 OA 
ENDBRANCH   9  11
ENDBRANCH   6   7
ENDBRANCH   5   6
ENDBRANCH   4   5
TORSDOF 4
ENDMDL
MODEL       69
REMARK 921   NORMALIZED FREE ENERGY PREDICTED BY IDOCK:   -4.09 KCAL/MOL
REMARK 922        TOTAL FREE ENERGY PREDICTED BY IDOCK:   -5.36 KCAL/MOL
REMARK 923 INTER-LIGAND FREE ENERGY PREDICTED BY IDOCK:   -5.11 KCAL/MOL
REMARK 924 INTRA-LIGAND FREE ENERGY PREDICTED BY IDOCK:   -0.25 KCAL/MOL
REMARK 927      BINDING AFFINITY PREDICTED BY RF-SCORE:    0.00 PKD
ROOT
HETATM    1  O   UNL     1     -12.269  12.306  66.563  1.00  0.00    -0.588 OA 
HETATM    2  C   UNL     1     -11.973  13.470  67.192  1.00  0.00    -0.381 C  
HETATM    3  O   UNL     1     -11.763  14.502  66.570  1.00  0.00    -0.374 OA 
HETATM    4  C   UNL     1     -12.002  13.395  68.705  1.00  0.00    -0.324 C  
ENDROOT
BRANCH   4   5
HETATM    5  S   UNL     1     -11.645  11.692  69.300  1.00  0.00    -0.348 SA 
BRANCH   5   6
HETATM    6  C   UNL     1     -12.580  11.724  70.861  1.00  0.00    -0.289 C  
BRANCH   6   7
HETATM    7  C   UNL     1     -12.522  10.371  71.539  1.00  0.00    -0.404 C  
HETATM    8  O   UNL     1     -13.445   9.958  72.237  1.00  0.00    -0.430 OA 
HETATM    9  N   UNL     1     -11.384   9.635  71.268  1.00  0.00    -0.372 N  
HETATM   10  H   UNL     1     -10.630  10.056  70.726  1.00  0.00     0.000 HD 
BRANCH   9  11
HETATM   11  C   UNL     1     -11.244   8.262  71.748  1.00  0.00    -0.283 C  
HETATM   12  C   UNL     1     -11.586   7.185  70.722  1.00  0.00    -0.358 C  
HETATM   13  C   UNL     1     -10.956   5.883  71.180  1.00  0.00    -0.260 C  
HETATM   14  S   UNL     1      -9.340   6.337  71.865  1.00  0.00    -0.148 SA 
HETATM   15  C   UNL     1      -9.837   7.976  72.264  1.00  0.00    -0.236 C  
HETATM   16  O   UNL     1      -9.155   8.745  72.926  1.00  0.00    -0.311 OA 
ENDBRANCH   9  11
ENDBRANCH   6   7
ENDBRANCH   5   6
ENDBRANCH   4   5
TORSDOF 4
ENDMDL
MODEL       70
REMARK 921   NORMALIZED FREE ENERGY PREDICTED BY IDOCK:   -4.08 KCAL/MOL
REMARK 922        TOTAL FREE ENERGY PREDICTED BY IDOCK:   -5.35 KCAL/MOL
REMARK 923 INTER-LIGAND FREE ENERGY PREDICTED BY IDOCK:   -5.06 KCAL/MOL
REMARK 924 INTRA-LIGAND FREE ENERGY PREDICTED BY IDOCK:   -0.28 KCAL/MOL
REMARK 927      BINDING AFFINITY PREDICTED BY RF-SCORE:    0.00 PKD
ROOT
HETATM    1  O   UNL     1     -13.866  13.507  72.540  1.00  0.00    -0.660 OA 
HETATM    2  C   UNL     1     -13.067  12.806  71.697  1.00  0.00    -0.331 C  
HETATM    3  O   UNL     1     -12.795  11.630  71.897  1.00  0.00    -0.364 OA 
HETATM    4  C   UNL     1     -12.616  13.573  70.470  1.00  0.00    -0.241 C  
ENDROOT
BRANCH   4   5
HETATM    5  S   UNL     1     -12.572  15.384  70.790  1.00  0.00    -0.455 SA 
BRANCH   5   6
HETATM    6  C   UNL     1     -10.824  15.708  70.396  1.00  0.00    -0.340 C  
BRANCH   6   7
HETATM    7  C   UNL     1     -10.466  15.109  69.052  1.00  0.00    -0.248 C  
HETATM    8  O   UNL     1      -9.616  14.228  68.943  1.00  0.00    -0.179 OA 
HETATM    9  N   UNL     1     -11.200  15.594  67.986  1.00  0.00    -0.341 N  
HETATM   10  H   UNL     1     -11.853  16.363  68.135  1.00  0.00     0.000 HD 
BRANCH   9  11
HETATM   11  C   UNL     1     -11.055  15.022  66.650  1.00  0.00    -0.326 C  
HETATM   12  C   UNL     1     -12.204  14.118  66.210  1.00  0.00    -0.474 C  
HETATM   13  C   UNL     1     -12.156  13.999  64.698  1.00  0.00    -0.440 C  
HETATM   14  S   UNL     1     -11.701  15.646  64.094  1.00  0.00     0.136 SA 
HETATM   15  C   UNL     1     -10.881  16.096  65.581  1.00  0.00    -0.238 C  
HETATM   16  O   UNL     1     -10.208  17.111  65.701  1.00  0.00    -0.564 OA 
ENDBRANCH   9  11
ENDBRANCH   6   7
ENDBRANCH   5   6
ENDBRANCH   4   5
TORSDOF 4
ENDMDL
MODEL       71
REMARK 921   NORMALIZED FREE ENERGY PREDICTED BY IDOCK:   -4.05 KCAL/MOL
REMARK 922        TOTAL FREE ENERGY PREDICTED BY IDOCK:   -5.32 KCAL/MOL
REMARK 923 INTER-LIGAND FREE ENERGY PREDICTED BY IDOCK:   -4.95 KCAL/MOL
REMARK 924 INTRA-LIGAND FREE ENERGY PREDICTED BY IDOCK:   -0.36 KCAL/MOL
REMARK 927      BINDING AFFINITY PREDICTED BY RF-SCORE:    0.00 PKD
ROOT
HETATM    1  O   UNL     1     -11.034  19.365  67.354  1.00  0.00    -0.490 OA 
HETATM    2  C   UNL     1     -10.436  19.658  66.172  1.00  0.00    -0.524 C  
HETATM    3  O   UNL     1     -11.082  19.999  65.191  1.00  0.00    -0.289 OA 
HETATM    4  C   UNL     1      -8.922  19.603  66.199  1.00  0.00    -0.334 C  
ENDROOT
BRANCH   4   5
HETATM    5  S   UNL     1      -8.317  18.440  67.489  1.00  0.00    -0.255 SA 
BRANCH   5   6
HETATM    6  C   UNL     1      -8.092  16.954  66.462  1.00  0.00    -0.291 C  
BRANCH   6   7
HETATM    7  C   UNL     1      -9.399  16.201  66.331  1.00  0.00    -0.298 C  
HETATM    8  O   UNL     1     -10.148  16.366  65.371  1.00  0.00    -0.543 OA 
HETATM    9  N   UNL     1      -9.648  15.291  67.342  1.00  0.00    -0.207 N  
HETATM   10  H   UNL     1      -9.014  15.240  68.139  1.00  0.00     0.000 HD 
BRANCH   9  11
HETATM   11  C   UNL     1     -10.806  14.401  67.286  1.00  0.00    -0.290 C  
HETATM   12  C   UNL     1     -10.576  13.096  66.529  1.00  0.00    -0.290 C  
HETATM   13  C   UNL     1     -11.651  12.112  66.953  1.00  0.00    -0.341 C  
HETATM   14  S   UNL     1     -11.882  12.378  68.731  1.00  0.00    -0.267 SA 
HETATM   15  C   UNL     1     -11.321  14.043  68.676  1.00  0.00    -0.276 C  
HETATM   16  O   UNL     1     -11.405  14.815  69.621  1.00  0.00    -0.259 OA 
ENDBRANCH   9  11
ENDBRANCH   6   7
ENDBRANCH   5   6
ENDBRANCH   4   5
TORSDOF 4
ENDMDL
MODEL       72
REMARK 921   NORMALIZED FREE ENERGY PREDICTED BY IDOCK:   -4.05 KCAL/MOL
REMARK 922        TOTAL FREE ENERGY PREDICTED BY IDOCK:   -5.32 KCAL/MOL
REMARK 923 INTER-LIGAND FREE ENERGY PREDICTED BY IDOCK:   -5.02 KCAL/MOL
REMARK 924 INTRA-LIGAND FREE ENERGY PREDICTED BY IDOCK:   -0.29 KCAL/MOL
REMARK 927      BINDING AFFINITY PREDICTED BY RF-SCORE:    0.00 PKD
ROOT
HETATM    1  O   UNL     1      -9.785  16.464  65.303  1.00  0.00    -0.433 OA 
HETATM    2  C   UNL     1     -10.951  16.014  64.776  1.00  0.00    -0.356 C  
HETATM    3  O   UNL     1     -11.634  16.710  64.038  1.00  0.00    -1.197 OA 
HETATM    4  C   UNL     1     -11.284  14.575  65.115  1.00  0.00    -0.367 C  
ENDROOT
BRANCH   4   5
HETATM    5  S   UNL     1     -10.519  14.067  66.708  1.00  0.00    -0.280 SA 
BRANCH   5   6
HETATM    6  C   UNL     1     -11.986  13.367  67.527  1.00  0.00    -0.339 C  
BRANCH   6   7
HETATM    7  C   UNL     1     -11.719  11.940  67.959  1.00  0.00    -0.312 C  
HETATM    8  O   UNL     1     -12.511  11.319  68.663  1.00  0.00    -0.442 OA 
HETATM    9  N   UNL     1     -10.552  11.392  67.461  1.00  0.00    -0.204 N  
HETATM   10  H   UNL     1      -9.910  11.978  66.927  1.00  0.00     0.000 HD 
BRANCH   9  11
HETATM   11  C   UNL     1     -10.223   9.986  67.688  1.00  0.00    -0.204 C  
HETATM   12  C   UNL     1     -10.227   9.116  66.435  1.00  0.00    -0.300 C  
HETATM   13  C   UNL     1      -9.431   7.859  66.733  1.00  0.00    -0.201 C  
HETATM   14  S   UNL     1      -8.029   8.399  67.746  1.00  0.00    -0.112 SA 
HETATM   15  C   UNL     1      -8.866   9.816  68.363  1.00  0.00    -0.120 C  
HETATM   16  O   UNL     1      -8.428  10.521  69.262  1.00  0.00    -0.157 OA 
ENDBRANCH   9  11
ENDBRANCH   6   7
ENDBRANCH   5   6
ENDBRANCH   4   5
TORSDOF 4
ENDMDL
MODEL       73
REMARK 921   NORMALIZED FREE ENERGY PREDICTED BY IDOCK:   -4.05 KCAL/MOL
REMARK 922        TOTAL FREE ENERGY PREDICTED BY IDOCK:   -5.31 KCAL/MOL
REMARK 923 INTER-LIGAND FREE ENERGY PREDICTED BY IDOCK:   -5.06 KCAL/MOL
REMARK 924 INTRA-LIGAND FREE ENERGY PREDICTED BY IDOCK:   -0.25 KCAL/MOL
REMARK 927      BINDING AFFINITY PREDICTED BY RF-SCORE:    0.00 PKD
ROOT
HETATM    1  O   UNL     1      -8.103  18.474  66.560  1.00  0.00    -0.262 OA 
HETATM    2  C   UNL     1      -9.143  18.475  67.430  1.00  0.00    -0.275 C  
HETATM    3  O   UNL     1      -9.197  19.260  68.367  1.00  0.00    -0.327 OA 
HETATM    4  C   UNL     1     -10.247  17.492  67.096  1.00  0.00    -0.323 C  
ENDROOT
BRANCH   4   5
HETATM    5  S   UNL     1      -9.601  16.057  66.144  1.00  0.00    -0.359 SA 
BRANCH   5   6
HETATM    6  C   UNL     1     -10.928  15.907  64.906  1.00  0.00    -0.411 C  
BRANCH   6   7
HETATM    7  C   UNL     1     -11.240  14.449  64.641  1.00  0.00    -0.360 C  
HETATM    8  O   UNL     1     -12.310  14.096  64.151  1.00  0.00    -0.628 OA 
HETATM    9  N   UNL     1     -10.216  13.572  64.948  1.00  0.00    -0.537 N  
HETATM   10  H   UNL     1      -9.374  13.922  65.403  1.00  0.00     0.000 HD 
BRANCH   9  11
HETATM   11  C   UNL     1     -10.323  12.150  64.629  1.00  0.00    -0.297 C  
HETATM   12  C   UNL     1      -9.806  11.761  63.247  1.00  0.00    -0.402 C  
HETATM   13  C   UNL     1      -9.540  10.267  63.248  1.00  0.00    -0.256 C  
HETATM   14  S   UNL     1      -8.838   9.897  64.877  1.00  0.00    -0.211 SA 
HETATM   15  C   UNL     1      -9.603  11.277  65.652  1.00  0.00    -0.229 C  
HETATM   16  O   UNL     1      -9.603  11.458  66.862  1.00  0.00    -0.181 OA 
ENDBRANCH   9  11
ENDBRANCH   6   7
ENDBRANCH   5   6
ENDBRANCH   4   5
TORSDOF 4
ENDMDL
MODEL       74
REMARK 921   NORMALIZED FREE ENERGY PREDICTED BY IDOCK:   -4.03 KCAL/MOL
REMARK 922        TOTAL FREE ENERGY PREDICTED BY IDOCK:   -5.29 KCAL/MOL
REMARK 923 INTER-LIGAND FREE ENERGY PREDICTED BY IDOCK:   -4.99 KCAL/MOL
REMARK 924 INTRA-LIGAND FREE ENERGY PREDICTED BY IDOCK:   -0.30 KCAL/MOL
REMARK 927      BINDING AFFINITY PREDICTED BY RF-SCORE:    0.00 PKD
ROOT
HETATM    1  O   UNL     1      -9.044   9.281  66.758  1.00  0.00    -0.134 OA 
HETATM    2  C   UNL     1     -10.180   8.870  67.375  1.00  0.00    -0.249 C  
HETATM    3  O   UNL     1     -10.752   7.838  67.050  1.00  0.00    -0.347 OA 
HETATM    4  C   UNL     1     -10.622   9.744  68.531  1.00  0.00    -0.221 C  
ENDROOT
BRANCH   4   5
HETATM    5  S   UNL     1     -10.038  11.476  68.325  1.00  0.00    -0.204 SA 
BRANCH   5   6
HETATM    6  C   UNL     1     -11.500  12.181  67.501  1.00  0.00    -0.340 C  
BRANCH   6   7
HETATM    7  C   UNL     1     -11.901  13.483  68.162  1.00  0.00    -0.365 C  
HETATM    8  O   UNL     1     -12.067  14.514  67.514  1.00  0.00    -0.366 OA 
HETATM    9  N   UNL     1     -12.110  13.401  69.527  1.00  0.00    -0.304 N  
HETATM   10  H   UNL     1     -11.903  12.530  70.015  1.00  0.00     0.000 HD 
BRANCH   9  11
HETATM   11  C   UNL     1     -12.622  14.544  70.280  1.00  0.00    -0.323 C  
HETATM   12  C   UNL     1     -13.641  14.195  71.361  1.00  0.00    -0.363 C  
HETATM   13  C   UNL     1     -13.710  15.357  72.335  1.00  0.00    -0.542 C  
HETATM   14  S   UNL     1     -12.004  15.941  72.517  1.00  0.00    -0.552 SA 
HETATM   15  C   UNL     1     -11.504  15.342  70.942  1.00  0.00    -0.361 C  
HETATM   16  O   UNL     1     -10.421  15.599  70.434  1.00  0.00    -0.315 OA 
ENDBRANCH   9  11
ENDBRANCH   6   7
ENDBRANCH   5   6
ENDBRANCH   4   5
TORSDOF 4
ENDMDL
MODEL       75
REMARK 921   NORMALIZED FREE ENERGY PREDICTED BY IDOCK:   -4.00 KCAL/MOL
REMARK 922        TOTAL FREE ENERGY PREDICTED BY IDOCK:   -5.26 KCAL/MOL
REMARK 923 INTER-LIGAND FREE ENERGY PREDICTED BY IDOCK:   -5.01 KCAL/MOL
REMARK 924 INTRA-LIGAND FREE ENERGY PREDICTED BY IDOCK:   -0.25 KCAL/MOL
REMARK 927      BINDING AFFINITY PREDICTED BY RF-SCORE:    0.00 PKD
ROOT
HETATM    1  O   UNL     1     -10.262  10.041  65.377  1.00  0.00    -0.289 OA 
HETATM    2  C   UNL     1     -10.536  10.355  66.667  1.00  0.00    -0.215 C  
HETATM    3  O   UNL     1     -10.911   9.510  67.469  1.00  0.00    -0.241 OA 
HETATM    4  C   UNL     1     -10.266  11.799  67.038  1.00  0.00    -0.214 C  
ENDROOT
BRANCH   4   5
HETATM    5  S   UNL     1     -10.408  12.904  65.575  1.00  0.00    -0.291 SA 
BRANCH   5   6
HETATM    6  C   UNL     1     -11.383  14.250  66.318  1.00  0.00    -0.346 C  
BRANCH   6   7
HETATM    7  C   UNL     1     -10.954  15.587  65.752  1.00  0.00    -0.283 C  
HETATM    8  O   UNL     1     -11.049  15.843  64.555  1.00  0.00    -0.495 OA 
HETATM    9  N   UNL     1     -10.501  16.496  66.691  1.00  0.00    -0.290 N  
HETATM   10  H   UNL     1     -10.394  16.203  67.662  1.00  0.00     0.000 HD 
BRANCH   9  11
HETATM   11  C   UNL     1     -10.172  17.868  66.313  1.00  0.00    -0.363 C  
HETATM   12  C   UNL     1     -10.782  18.944  67.207  1.00  0.00    -0.523 C  
HETATM   13  C   UNL     1      -9.997  20.227  67.001  1.00  0.00    -0.460 C  
HETATM   14  S   UNL     1      -8.265  19.718  66.844  1.00  0.00    -0.323 SA 
HETATM   15  C   UNL     1      -8.666  18.106  66.269  1.00  0.00    -0.172 C  
HETATM   16  O   UNL     1      -7.837  17.319  65.834  1.00  0.00    -0.505 OA 
ENDBRANCH   9  11
ENDBRANCH   6   7
ENDBRANCH   5   6
ENDBRANCH   4   5
TORSDOF 4
ENDMDL
MODEL       76
REMARK 921   NORMALIZED FREE ENERGY PREDICTED BY IDOCK:   -3.98 KCAL/MOL
REMARK 922        TOTAL FREE ENERGY PREDICTED BY IDOCK:   -5.24 KCAL/MOL
REMARK 923 INTER-LIGAND FREE ENERGY PREDICTED BY IDOCK:   -5.01 KCAL/MOL
REMARK 924 INTRA-LIGAND FREE ENERGY PREDICTED BY IDOCK:   -0.23 KCAL/MOL
REMARK 927      BINDING AFFINITY PREDICTED BY RF-SCORE:    0.00 PKD
ROOT
HETATM    1  O   UNL     1     -10.756   8.451  67.178  1.00  0.00    -0.291 OA 
HETATM    2  C   UNL     1      -9.734   8.661  66.311  1.00  0.00    -0.251 C  
HETATM    3  O   UNL     1      -8.860   7.824  66.132  1.00  0.00    -0.151 OA 
HETATM    4  C   UNL     1      -9.814   9.965  65.544  1.00  0.00    -0.311 C  
ENDROOT
BRANCH   4   5
HETATM    5  S   UNL     1     -10.750  11.240  66.484  1.00  0.00    -0.258 SA 
BRANCH   5   6
HETATM    6  C   UNL     1      -9.895  12.731  65.885  1.00  0.00    -0.238 C  
BRANCH   6   7
HETATM    7  C   UNL     1     -10.669  13.974  66.273  1.00  0.00    -0.289 C  
HETATM    8  O   UNL     1     -11.849  13.922  66.609  1.00  0.00    -0.374 OA 
HETATM    9  N   UNL     1      -9.930  15.143  66.263  1.00  0.00    -0.270 N  
HETATM   10  H   UNL     1      -8.970  15.128  65.922  1.00  0.00     0.000 HD 
BRANCH   9  11
HETATM   11  C   UNL     1     -10.506  16.401  66.735  1.00  0.00    -0.273 C  
HETATM   12  C   UNL     1      -9.705  17.104  67.826  1.00  0.00    -0.271 C  
HETATM   13  C   UNL     1     -10.139  18.558  67.865  1.00  0.00    -0.369 C  
HETATM   14  S   UNL     1     -10.384  19.040  66.135  1.00  0.00    -0.445 SA 
HETATM   15  C   UNL     1     -10.713  17.398  65.599  1.00  0.00    -0.111 C  
HETATM   16  O   UNL     1     -11.118  17.121  64.479  1.00  0.00    -1.105 OA 
ENDBRANCH   9  11
ENDBRANCH   6   7
ENDBRANCH   5   6
ENDBRANCH   4   5
TORSDOF 4
ENDMDL
MODEL       77
REMARK 921   NORMALIZED FREE ENERGY PREDICTED BY IDOCK:   -3.98 KCAL/MOL
REMARK 922        TOTAL FREE ENERGY PREDICTED BY IDOCK:   -5.23 KCAL/MOL
REMARK 923 INTER-LIGAND FREE ENERGY PREDICTED BY IDOCK:   -5.19 KCAL/MOL
REMARK 924 INTRA-LIGAND FREE ENERGY PREDICTED BY IDOCK:   -0.05 KCAL/MOL
REMARK 927      BINDING AFFINITY PREDICTED BY RF-SCORE:    0.00 PKD
ROOT
HETATM    1  O   UNL     1      -9.614  19.518  66.034  1.00  0.00    -0.367 OA 
HETATM    2  C   UNL     1     -10.131  19.180  67.242  1.00  0.00    -0.376 C  
HETATM    3  O   UNL     1     -10.319  20.015  68.117  1.00  0.00    -0.421 OA 
HETATM    4  C   UNL     1     -10.519  17.722  67.378  1.00  0.00    -0.364 C  
ENDROOT
BRANCH   4   5
HETATM    5  S   UNL     1      -9.517  16.655  66.265  1.00  0.00    -0.290 SA 
BRANCH   5   6
HETATM    6  C   UNL     1     -10.797  16.222  65.044  1.00  0.00    -0.320 C  
BRANCH   6   7
HETATM    7  C   UNL     1     -11.410  14.878  65.376  1.00  0.00    -0.346 C  
HETATM    8  O   UNL     1     -11.859  14.139  64.503  1.00  0.00    -0.397 OA 
HETATM    9  N   UNL     1     -11.375  14.540  66.716  1.00  0.00    -0.342 N  
HETATM   10  H   UNL     1     -11.038  15.220  67.398  1.00  0.00     0.000 HD 
BRANCH   9  11
HETATM   11  C   UNL     1     -11.814  13.222  67.172  1.00  0.00    -0.374 C  
HETATM   12  C   UNL     1     -10.925  12.062  66.731  1.00  0.00    -0.329 C  
HETATM   13  C   UNL     1     -11.212  10.880  67.639  1.00  0.00    -0.309 C  
HETATM   14  S   UNL     1     -11.440  11.580  69.294  1.00  0.00    -0.334 SA 
HETATM   15  C   UNL     1     -11.941  13.153  68.690  1.00  0.00    -0.284 C  
HETATM   16  O   UNL     1     -12.392  14.038  69.404  1.00  0.00    -0.333 OA 
ENDBRANCH   9  11
ENDBRANCH   6   7
ENDBRANCH   5   6
ENDBRANCH   4   5
TORSDOF 4
ENDMDL
MODEL       78
REMARK 921   NORMALIZED FREE ENERGY PREDICTED BY IDOCK:   -3.98 KCAL/MOL
REMARK 922        TOTAL FREE ENERGY PREDICTED BY IDOCK:   -5.23 KCAL/MOL
REMARK 923 INTER-LIGAND FREE ENERGY PREDICTED BY IDOCK:   -4.91 KCAL/MOL
REMARK 924 INTRA-LIGAND FREE ENERGY PREDICTED BY IDOCK:   -0.31 KCAL/MOL
REMARK 927      BINDING AFFINITY PREDICTED BY RF-SCORE:    0.00 PKD
ROOT
HETATM    1  O   UNL     1     -10.445   9.011  71.972  1.00  0.00    -0.346 OA 
HETATM    2  C   UNL     1     -11.588   9.603  71.546  1.00  0.00    -0.381 C  
HETATM    3  O   UNL     1     -12.661   9.401  72.099  1.00  0.00    -0.384 OA 
HETATM    4  C   UNL     1     -11.408  10.575  70.397  1.00  0.00    -0.328 C  
ENDROOT
BRANCH   4   5
HETATM    5  S   UNL     1      -9.938  10.145  69.380  1.00  0.00    -0.235 SA 
BRANCH   5   6
HETATM    6  C   UNL     1     -10.782   9.543  67.884  1.00  0.00    -0.228 C  
BRANCH   6   7
HETATM    7  C   UNL     1     -10.513  10.469  66.717  1.00  0.00    -0.242 C  
HETATM    8  O   UNL     1      -9.739  10.163  65.814  1.00  0.00    -0.209 OA 
HETATM    9  N   UNL     1     -11.239  11.646  66.731  1.00  0.00    -0.310 N  
HETATM   10  H   UNL     1     -11.824  11.866  67.536  1.00  0.00     0.000 HD 
BRANCH   9  11
HETATM   11  C   UNL     1     -11.180  12.580  65.608  1.00  0.00    -0.317 C  
HETATM   12  C   UNL     1     -12.525  13.170  65.193  1.00  0.00    -0.539 C  
HETATM   13  C   UNL     1     -12.258  14.426  64.385  1.00  0.00    -0.458 C  
HETATM   14  S   UNL     1     -10.854  15.237  65.194  1.00  0.00    -0.445 SA 
HETATM   15  C   UNL     1     -10.231  13.743  65.879  1.00  0.00    -0.313 C  
HETATM   16  O   UNL     1      -9.146  13.656  66.437  1.00  0.00    -0.179 OA 
ENDBRANCH   9  11
ENDBRANCH   6   7
ENDBRANCH   5   6
ENDBRANCH   4   5
TORSDOF 4
ENDMDL
MODEL       79
REMARK 921   NORMALIZED FREE ENERGY PREDICTED BY IDOCK:   -3.97 KCAL/MOL
REMARK 922        TOTAL FREE ENERGY PREDICTED BY IDOCK:   -5.22 KCAL/MOL
REMARK 923 INTER-LIGAND FREE ENERGY PREDICTED BY IDOCK:   -5.05 KCAL/MOL
REMARK 924 INTRA-LIGAND FREE ENERGY PREDICTED BY IDOCK:   -0.17 KCAL/MOL
REMARK 927      BINDING AFFINITY PREDICTED BY RF-SCORE:    0.00 PKD
ROOT
HETATM    1  O   UNL     1     -11.465  16.740  64.001  1.00  0.00    -1.198 OA 
HETATM    2  C   UNL     1     -10.755  16.492  65.129  1.00  0.00    -0.244 C  
HETATM    3  O   UNL     1      -9.920  17.281  65.550  1.00  0.00    -0.557 OA 
HETATM    4  C   UNL     1     -11.138  15.214  65.849  1.00  0.00    -0.319 C  
ENDROOT
BRANCH   4   5
HETATM    5  S   UNL     1     -11.838  13.974  64.686  1.00  0.00    -0.439 SA 
BRANCH   5   6
HETATM    6  C   UNL     1     -11.797  12.507  65.763  1.00  0.00    -0.437 C  
BRANCH   6   7
HETATM    7  C   UNL     1     -10.850  11.467  65.202  1.00  0.00    -0.238 C  
HETATM    8  O   UNL     1     -10.393  11.555  64.065  1.00  0.00    -0.288 OA 
HETATM    9  N   UNL     1     -10.513  10.455  66.082  1.00  0.00    -0.195 N  
HETATM   10  H   UNL     1     -10.969  10.409  66.992  1.00  0.00     0.000 HD 
BRANCH   9  11
HETATM   11  C   UNL     1      -9.512   9.451  65.726  1.00  0.00    -0.259 C  
HETATM   12  C   UNL     1      -8.064   9.907  65.875  1.00  0.00    -0.121 C  
HETATM   13  C   UNL     1      -7.186   8.671  65.940  1.00  0.00    -0.077 C  
HETATM   14  S   UNL     1      -8.113   7.466  66.927  1.00  0.00    -0.122 SA 
HETATM   15  C   UNL     1      -9.676   8.167  66.534  1.00  0.00    -0.239 C  
HETATM   16  O   UNL     1     -10.743   7.643  66.821  1.00  0.00    -0.318 OA 
ENDBRANCH   9  11
ENDBRANCH   6   7
ENDBRANCH   5   6
ENDBRANCH   4   5
TORSDOF 4
ENDMDL
MODEL       80
REMARK 921   NORMALIZED FREE ENERGY PREDICTED BY IDOCK:   -3.97 KCAL/MOL
REMARK 922        TOTAL FREE ENERGY PREDICTED BY IDOCK:   -5.22 KCAL/MOL
REMARK 923 INTER-LIGAND FREE ENERGY PREDICTED BY IDOCK:   -5.08 KCAL/MOL
REMARK 924 INTRA-LIGAND FREE ENERGY PREDICTED BY IDOCK:   -0.14 KCAL/MOL
REMARK 927      BINDING AFFINITY PREDICTED BY RF-SCORE:    0.00 PKD
ROOT
HETATM    1  O   UNL     1     -11.075  19.457  67.508  1.00  0.00    -0.417 OA 
HETATM    2  C   UNL     1     -10.098  19.576  66.575  1.00  0.00    -0.439 C  
HETATM    3  O   UNL     1     -10.322  20.043  65.466  1.00  0.00    -0.400 OA 
HETATM    4  C   UNL     1      -8.719  19.162  67.046  1.00  0.00    -0.294 C  
ENDROOT
BRANCH   4   5
HETATM    5  S   UNL     1      -8.818  17.913  68.392  1.00  0.00    -0.286 SA 
BRANCH   5   6
HETATM    6  C   UNL     1      -7.454  16.822  67.880  1.00  0.00    -0.160 C  
BRANCH   6   7
HETATM    7  C   UNL     1      -7.991  15.627  67.119  1.00  0.00    -0.219 C  
HETATM    8  O   UNL     1      -7.389  14.557  67.088  1.00  0.00    -0.133 OA 
HETATM    9  N   UNL     1      -9.219  15.828  66.516  1.00  0.00    -0.256 N  
HETATM   10  H   UNL     1      -9.641  16.756  66.533  1.00  0.00     0.000 HD 
BRANCH   9  11
HETATM   11  C   UNL     1      -9.921  14.730  65.855  1.00  0.00    -0.326 C  
HETATM   12  C   UNL     1     -10.491  13.673  66.796  1.00  0.00    -0.270 C  
HETATM   13  C   UNL     1     -11.557  12.899  66.043  1.00  0.00    -0.375 C  
HETATM   14  S   UNL     1     -12.433  14.127  65.038  1.00  0.00    -0.373 SA 
HETATM   15  C   UNL     1     -11.064  15.228  64.975  1.00  0.00    -0.426 C  
HETATM   16  O   UNL     1     -11.028  16.220  64.262  1.00  0.00    -0.707 OA 
ENDBRANCH   9  11
ENDBRANCH   6   7
ENDBRANCH   5   6
ENDBRANCH   4   5
TORSDOF 4
ENDMDL
MODEL       81
REMARK 921   NORMALIZED FREE ENERGY PREDICTED BY IDOCK:   -3.97 KCAL/MOL
REMARK 922        TOTAL FREE ENERGY PREDICTED BY IDOCK:   -5.22 KCAL/MOL
REMARK 923 INTER-LIGAND FREE ENERGY PREDICTED BY IDOCK:   -5.43 KCAL/MOL
REMARK 924 INTRA-LIGAND FREE ENERGY PREDICTED BY IDOCK:    0.21 KCAL/MOL
REMARK 927      BINDING AFFINITY PREDICTED BY RF-SCORE:    0.00 PKD
ROOT
HETATM    1  O   UNL     1      -7.865  19.841  65.519  1.00  0.00    -0.385 OA 
HETATM    2  C   UNL     1      -7.951  20.065  66.854  1.00  0.00    -0.309 C  
HETATM    3  O   UNL     1      -6.960  20.309  67.530  1.00  0.00    -0.253 OA 
HETATM    4  C   UNL     1      -9.362  20.064  67.406  1.00  0.00    -0.371 C  
ENDROOT
BRANCH   4   5
HETATM    5  S   UNL     1     -10.481  19.022  66.384  1.00  0.00    -0.437 SA 
BRANCH   5   6
HETATM    6  C   UNL     1     -10.203  17.415  67.192  1.00  0.00    -0.323 C  
BRANCH   6   7
HETATM    7  C   UNL     1     -10.607  16.284  66.269  1.00  0.00    -0.255 C  
HETATM    8  O   UNL     1     -10.437  16.348  65.054  1.00  0.00    -0.642 OA 
HETATM    9  N   UNL     1     -11.128  15.173  66.907  1.00  0.00    -0.325 N  
HETATM   10  H   UNL     1     -11.295  15.204  67.913  1.00  0.00     0.000 HD 
BRANCH   9  11
HETATM   11  C   UNL     1     -11.445  13.957  66.162  1.00  0.00    -0.345 C  
HETATM   12  C   UNL     1     -12.298  14.172  64.915  1.00  0.00    -0.446 C  
HETATM   13  C   UNL     1     -12.141  12.954  64.023  1.00  0.00    -0.455 C  
HETATM   14  S   UNL     1     -10.396  12.481  64.147  1.00  0.00    -0.372 SA 
HETATM   15  C   UNL     1     -10.189  13.202  65.736  1.00  0.00    -0.289 C  
HETATM   16  O   UNL     1      -9.188  13.050  66.422  1.00  0.00    -0.222 OA 
ENDBRANCH   9  11
ENDBRANCH   6   7
ENDBRANCH   5   6
ENDBRANCH   4   5
TORSDOF 4
ENDMDL
MODEL       82
REMARK 921   NORMALIZED FREE ENERGY PREDICTED BY IDOCK:   -3.95 KCAL/MOL
REMARK 922        TOTAL FREE ENERGY PREDICTED BY IDOCK:   -5.19 KCAL/MOL
REMARK 923 INTER-LIGAND FREE ENERGY PREDICTED BY IDOCK:   -4.84 KCAL/MOL
REMARK 924 INTRA-LIGAND FREE ENERGY PREDICTED BY IDOCK:   -0.34 KCAL/MOL
REMARK 927      BINDING AFFINITY PREDICTED BY RF-SCORE:    0.00 PKD
ROOT
HETATM    1  O   UNL     1     -12.227  11.268  67.989  1.00  0.00    -0.621 OA 
HETATM    2  C   UNL     1     -11.044  11.532  68.598  1.00  0.00    -0.238 C  
HETATM    3  O   UNL     1     -10.595  10.804  69.474  1.00  0.00    -0.223 OA 
HETATM    4  C   UNL     1     -10.308  12.738  68.053  1.00  0.00    -0.229 C  
ENDROOT
BRANCH   4   5
HETATM    5  S   UNL     1     -11.471  13.958  67.318  1.00  0.00    -0.365 SA 
BRANCH   5   6
HETATM    6  C   UNL     1     -12.111  14.711  68.846  1.00  0.00    -0.216 C  
BRANCH   6   7
HETATM    7  C   UNL     1     -11.268  15.906  69.239  1.00  0.00    -0.335 C  
HETATM    8  O   UNL     1     -11.196  16.291  70.404  1.00  0.00    -0.373 OA 
HETATM    9  N   UNL     1     -10.562  16.484  68.201  1.00  0.00    -0.315 N  
HETATM   10  H   UNL     1     -10.708  16.152  67.248  1.00  0.00     0.000 HD 
BRANCH   9  11
HETATM   11  C   UNL     1      -9.610  17.565  68.448  1.00  0.00    -0.303 C  
HETATM   12  C   UNL     1      -8.147  17.198  68.215  1.00  0.00    -0.239 C  
HETATM   13  C   UNL     1      -7.361  18.485  68.043  1.00  0.00    -0.248 C  
HETATM   14  S   UNL     1      -8.432  19.584  67.078  1.00  0.00    -0.310 SA 
HETATM   15  C   UNL     1      -9.914  18.801  67.606  1.00  0.00    -0.345 C  
HETATM   16  O   UNL     1     -11.031  19.242  67.373  1.00  0.00    -0.484 OA 
ENDBRANCH   9  11
ENDBRANCH   6   7
ENDBRANCH   5   6
ENDBRANCH   4   5
TORSDOF 4
ENDMDL
MODEL       83
REMARK 921   NORMALIZED FREE ENERGY PREDICTED BY IDOCK:   -3.95 KCAL/MOL
REMARK 922        TOTAL FREE ENERGY PREDICTED BY IDOCK:   -5.19 KCAL/MOL
REMARK 923 INTER-LIGAND FREE ENERGY PREDICTED BY IDOCK:   -4.94 KCAL/MOL
REMARK 924 INTRA-LIGAND FREE ENERGY PREDICTED BY IDOCK:   -0.25 KCAL/MOL
REMARK 927      BINDING AFFINITY PREDICTED BY RF-SCORE:    0.00 PKD
ROOT
HETATM    1  O   UNL     1     -12.576  13.458  71.239  1.00  0.00    -0.354 OA 
HETATM    2  C   UNL     1     -13.152  14.656  71.506  1.00  0.00    -0.348 C  
HETATM    3  O   UNL     1     -14.331  14.747  71.822  1.00  0.00    -0.468 OA 
HETATM    4  C   UNL     1     -12.205  15.838  71.456  1.00  0.00    -0.453 C  
ENDROOT
BRANCH   4   5
HETATM    5  S   UNL     1     -10.791  15.517  70.325  1.00  0.00    -0.343 SA 
BRANCH   5   6
HETATM    6  C   UNL     1     -11.477  16.216  68.791  1.00  0.00    -0.340 C  
BRANCH   6   7
HETATM    7  C   UNL     1     -10.526  17.238  68.205  1.00  0.00    -0.385 C  
HETATM    8  O   UNL     1     -10.931  18.210  67.573  1.00  0.00    -0.324 OA 
HETATM    9  N   UNL     1      -9.190  17.013  68.482  1.00  0.00    -0.259 N  
HETATM   10  H   UNL     1      -8.915  16.158  68.966  1.00  0.00     0.000 HD 
BRANCH   9  11
HETATM   11  C   UNL     1      -8.167  17.980  68.092  1.00  0.00    -0.271 C  
HETATM   12  C   UNL     1      -6.989  18.092  69.056  1.00  0.00    -0.262 C  
HETATM   13  C   UNL     1      -5.833  18.737  68.312  1.00  0.00    -0.205 C  
HETATM   14  S   UNL     1      -5.880  18.041  66.639  1.00  0.00    -0.171 SA 
HETATM   15  C   UNL     1      -7.601  17.688  66.705  1.00  0.00    -0.222 C  
HETATM   16  O   UNL     1      -8.253  17.323  65.737  1.00  0.00    -0.533 OA 
ENDBRANCH   9  11
ENDBRANCH   6   7
ENDBRANCH   5   6
ENDBRANCH   4   5
TORSDOF 4
ENDMDL
MODEL       84
REMARK 921   NORMALIZED FREE ENERGY PREDICTED BY IDOCK:   -3.91 KCAL/MOL
REMARK 922        TOTAL FREE ENERGY PREDICTED BY IDOCK:   -5.14 KCAL/MOL
REMARK 923 INTER-LIGAND FREE ENERGY PREDICTED BY IDOCK:   -4.91 KCAL/MOL
REMARK 924 INTRA-LIGAND FREE ENERGY PREDICTED BY IDOCK:   -0.23 KCAL/MOL
REMARK 927      BINDING AFFINITY PREDICTED BY RF-SCORE:    0.00 PKD
ROOT
HETATM    1  O   UNL     1     -11.869  16.590  72.590  1.00  0.00    -0.541 OA 
HETATM    2  C   UNL     1     -12.703  15.815  73.327  1.00  0.00    -0.525 C  
HETATM    3  O   UNL     1     -12.482  15.574  74.506  1.00  0.00    -0.629 OA 
HETATM    4  C   UNL     1     -13.945  15.348  72.595  1.00  0.00    -0.496 C  
ENDROOT
BRANCH   4   5
HETATM    5  S   UNL     1     -13.658  15.253  70.781  1.00  0.00    -0.112 SA 
BRANCH   5   6
HETATM    6  C   UNL     1     -12.525  13.829  70.738  1.00  0.00    -0.370 C  
BRANCH   6   7
HETATM    7  C   UNL     1     -11.899  13.693  69.365  1.00  0.00    -0.339 C  
HETATM    8  O   UNL     1     -12.037  14.559  68.504  1.00  0.00    -0.304 OA 
HETATM    9  N   UNL     1     -11.133  12.556  69.187  1.00  0.00    -0.380 N  
HETATM   10  H   UNL     1     -11.104  11.850  69.922  1.00  0.00     0.000 HD 
BRANCH   9  11
HETATM   11  C   UNL     1     -10.366  12.351  67.960  1.00  0.00    -0.216 C  
HETATM   12  C   UNL     1      -8.884  12.701  68.064  1.00  0.00    -0.195 C  
HETATM   13  C   UNL     1      -8.157  12.008  66.926  1.00  0.00    -0.127 C  
HETATM   14  S   UNL     1      -8.939  10.381  66.766  1.00  0.00    -0.140 SA 
HETATM   15  C   UNL     1     -10.466  10.914  67.456  1.00  0.00    -0.215 C  
HETATM   16  O   UNL     1     -11.480  10.231  67.461  1.00  0.00    -0.323 OA 
ENDBRANCH   9  11
ENDBRANCH   6   7
ENDBRANCH   5   6
ENDBRANCH   4   5
TORSDOF 4
ENDMDL
MODEL       85
REMARK 921   NORMALIZED FREE ENERGY PREDICTED BY IDOCK:   -3.90 KCAL/MOL
REMARK 922        TOTAL FREE ENERGY PREDICTED BY IDOCK:   -5.13 KCAL/MOL
REMARK 923 INTER-LIGAND FREE ENERGY PREDICTED BY IDOCK:   -4.89 KCAL/MOL
REMARK 924 INTRA-LIGAND FREE ENERGY PREDICTED BY IDOCK:   -0.24 KCAL/MOL
REMARK 927      BINDING AFFINITY PREDICTED BY RF-SCORE:    0.00 PKD
ROOT
HETATM    1  O   UNL     1      -9.663  19.484  68.998  1.00  0.00    -0.412 OA 
HETATM    2  C   UNL     1      -8.564  18.762  68.663  1.00  0.00    -0.323 C  
HETATM    3  O   UNL     1      -7.457  19.277  68.577  1.00  0.00    -0.296 OA 
HETATM    4  C   UNL     1      -8.813  17.278  68.484  1.00  0.00    -0.269 C  
ENDROOT
BRANCH   4   5
HETATM    5  S   UNL     1     -10.552  16.945  67.986  1.00  0.00    -0.369 SA 
BRANCH   5   6
HETATM    6  C   UNL     1     -11.135  16.113  69.496  1.00  0.00    -0.344 C  
BRANCH   6   7
HETATM    7  C   UNL     1     -11.744  14.769  69.156  1.00  0.00    -0.313 C  
HETATM    8  O   UNL     1     -12.249  14.547  68.058  1.00  0.00    -0.247 OA 
HETATM    9  N   UNL     1     -11.641  13.816  70.153  1.00  0.00    -0.480 N  
HETATM   10  H   UNL     1     -11.260  14.079  71.062  1.00  0.00     0.000 HD 
BRANCH   9  11
HETATM   11  C   UNL     1     -12.070  12.438  69.924  1.00  0.00    -0.247 C  
HETATM   12  C   UNL     1     -10.975  11.500  69.423  1.00  0.00    -0.233 C  
HETATM   13  C   UNL     1     -11.421  10.074  69.688  1.00  0.00    -0.155 C  
HETATM   14  S   UNL     1     -12.244  10.112  71.302  1.00  0.00    -0.411 SA 
HETATM   15  C   UNL     1     -12.676  11.811  71.176  1.00  0.00    -0.305 C  
HETATM   16  O   UNL     1     -13.421  12.379  71.962  1.00  0.00    -0.489 OA 
ENDBRANCH   9  11
ENDBRANCH   6   7
ENDBRANCH   5   6
ENDBRANCH   4   5
TORSDOF 4
ENDMDL
MODEL       86
REMARK 921   NORMALIZED FREE ENERGY PREDICTED BY IDOCK:   -3.88 KCAL/MOL
REMARK 922        TOTAL FREE ENERGY PREDICTED BY IDOCK:   -5.11 KCAL/MOL
REMARK 923 INTER-LIGAND FREE ENERGY PREDICTED BY IDOCK:   -4.89 KCAL/MOL
REMARK 924 INTRA-LIGAND FREE ENERGY PREDICTED BY IDOCK:   -0.22 KCAL/MOL
REMARK 927      BINDING AFFINITY PREDICTED BY RF-SCORE:    0.00 PKD
ROOT
HETATM    1  O   UNL     1     -10.484  17.353  67.686  1.00  0.00    -0.347 OA 
HETATM    2  C   UNL     1     -10.278  17.372  66.346  1.00  0.00    -0.338 C  
HETATM    3  O   UNL     1     -10.093  18.418  65.738  1.00  0.00    -0.553 OA 
HETATM    4  C   UNL     1     -10.220  16.004  65.696  1.00  0.00    -0.386 C  
ENDROOT
BRANCH   4   5
HETATM    5  S   UNL     1     -11.189  14.767  66.651  1.00  0.00    -0.338 SA 
BRANCH   5   6
HETATM    6  C   UNL     1     -10.180  13.288  66.322  1.00  0.00    -0.296 C  
BRANCH   6   7
HETATM    7  C   UNL     1     -10.944  12.034  66.695  1.00  0.00    -0.287 C  
HETATM    8  O   UNL     1     -12.116  11.870  66.367  1.00  0.00    -0.552 OA 
HETATM    9  N   UNL     1     -10.206  11.088  67.381  1.00  0.00    -0.189 N  
HETATM   10  H   UNL     1      -9.253  11.307  67.671  1.00  0.00     0.000 HD 
BRANCH   9  11
HETATM   11  C   UNL     1     -10.770   9.777  67.697  1.00  0.00    -0.274 C  
HETATM   12  C   UNL     1     -10.235   8.627  66.849  1.00  0.00    -0.367 C  
HETATM   13  C   UNL     1     -10.527   7.329  67.579  1.00  0.00    -0.266 C  
HETATM   14  S   UNL     1     -10.245   7.683  69.334  1.00  0.00    -0.209 SA 
HETATM   15  C   UNL     1     -10.565   9.403  69.162  1.00  0.00    -0.218 C  
HETATM   16  O   UNL     1     -10.672  10.168  70.110  1.00  0.00    -0.273 OA 
ENDBRANCH   9  11
ENDBRANCH   6   7
ENDBRANCH   5   6
ENDBRANCH   4   5
TORSDOF 4
ENDMDL
MODEL       87
REMARK 921   NORMALIZED FREE ENERGY PREDICTED BY IDOCK:   -3.88 KCAL/MOL
REMARK 922        TOTAL FREE ENERGY PREDICTED BY IDOCK:   -5.11 KCAL/MOL
REMARK 923 INTER-LIGAND FREE ENERGY PREDICTED BY IDOCK:   -4.59 KCAL/MOL
REMARK 924 INTRA-LIGAND FREE ENERGY PREDICTED BY IDOCK:   -0.51 KCAL/MOL
REMARK 927      BINDING AFFINITY PREDICTED BY RF-SCORE:    0.00 PKD
ROOT
HETATM    1  O   UNL     1     -11.422  14.035  66.990  1.00  0.00    -0.318 OA 
HETATM    2  C   UNL     1     -10.932  15.044  66.227  1.00  0.00    -0.338 C  
HETATM    3  O   UNL     1     -10.615  16.121  66.712  1.00  0.00    -0.309 OA 
HETATM    4  C   UNL     1     -10.744  14.696  64.764  1.00  0.00    -0.377 C  
ENDROOT
BRANCH   4   5
HETATM    5  S   UNL     1     -11.903  13.370  64.236  1.00  0.00    -0.441 SA 
BRANCH   5   6
HETATM    6  C   UNL     1     -10.717  12.244  63.437  1.00  0.00    -0.391 C  
BRANCH   6   7
HETATM    7  C   UNL     1     -10.342  11.118  64.378  1.00  0.00    -0.344 C  
HETATM    8  O   UNL     1      -9.734  10.125  63.987  1.00  0.00    -0.306 OA 
HETATM    9  N   UNL     1     -10.694  11.325  65.699  1.00  0.00    -0.246 N  
HETATM   10  H   UNL     1     -11.245  12.145  65.949  1.00  0.00     0.000 HD 
BRANCH   9  11
HETATM   11  C   UNL     1     -10.287  10.386  66.742  1.00  0.00    -0.235 C  
HETATM   12  C   UNL     1      -8.799  10.407  67.080  1.00  0.00    -0.141 C  
HETATM   13  C   UNL     1      -8.619   9.769  68.446  1.00  0.00    -0.119 C  
HETATM   14  S   UNL     1     -10.025  10.336  69.438  1.00  0.00    -0.225 SA 
HETATM   15  C   UNL     1     -11.058  10.602  68.041  1.00  0.00    -0.301 C  
HETATM   16  O   UNL     1     -12.250  10.861  68.122  1.00  0.00    -0.503 OA 
ENDBRANCH   9  11
ENDBRANCH   6   7
ENDBRANCH   5   6
ENDBRANCH   4   5
TORSDOF 4
ENDMDL
MODEL       88
REMARK 921   NORMALIZED FREE ENERGY PREDICTED BY IDOCK:   -3.88 KCAL/MOL
REMARK 922        TOTAL FREE ENERGY PREDICTED BY IDOCK:   -5.10 KCAL/MOL
REMARK 923 INTER-LIGAND FREE ENERGY PREDICTED BY IDOCK:   -4.82 KCAL/MOL
REMARK 924 INTRA-LIGAND FREE ENERGY PREDICTED BY IDOCK:   -0.29 KCAL/MOL
REMARK 927      BINDING AFFINITY PREDICTED BY RF-SCORE:    0.00 PKD
ROOT
HETATM    1  O   UNL     1     -14.376  13.470  72.575  1.00  0.00    -0.713 OA 
HETATM    2  C   UNL     1     -13.676  14.160  71.641  1.00  0.00    -0.367 C  
HETATM    3  O   UNL     1     -13.983  15.301  71.320  1.00  0.00    -0.487 OA 
HETATM    4  C   UNL     1     -12.460  13.436  71.100  1.00  0.00    -0.327 C  
ENDROOT
BRANCH   4   5
HETATM    5  S   UNL     1     -12.663  11.612  71.208  1.00  0.00    -0.263 SA 
BRANCH   5   6
HETATM    6  C   UNL     1     -11.619  11.117  69.802  1.00  0.00    -0.334 C  
BRANCH   6   7
HETATM    7  C   UNL     1     -11.080   9.717  70.011  1.00  0.00    -0.267 C  
HETATM    8  O   UNL     1     -10.708   9.020  69.070  1.00  0.00    -0.215 OA 
HETATM    9  N   UNL     1     -10.997   9.319  71.332  1.00  0.00    -0.335 N  
HETATM   10  H   UNL     1     -11.373   9.923  72.063  1.00  0.00     0.000 HD 
BRANCH   9  11
HETATM   11  C   UNL     1     -10.380   8.046  71.698  1.00  0.00    -0.214 C  
HETATM   12  C   UNL     1      -9.475   8.101  72.926  1.00  0.00    -0.345 C  
HETATM   13  C   UNL     1      -9.306   6.685  73.448  1.00  0.00    -0.137 C  
HETATM   14  S   UNL     1     -10.928   5.899  73.256  1.00  0.00    -0.181 SA 
HETATM   15  C   UNL     1     -11.417   6.954  71.939  1.00  0.00    -0.272 C  
HETATM   16  O   UNL     1     -12.428   6.778  71.272  1.00  0.00    -0.362 OA 
ENDBRANCH   9  11
ENDBRANCH   6   7
ENDBRANCH   5   6
ENDBRANCH   4   5
TORSDOF 4
ENDMDL
MODEL       89
REMARK 921   NORMALIZED FREE ENERGY PREDICTED BY IDOCK:   -3.87 KCAL/MOL
REMARK 922        TOTAL FREE ENERGY PREDICTED BY IDOCK:   -5.10 KCAL/MOL
REMARK 923 INTER-LIGAND FREE ENERGY PREDICTED BY IDOCK:   -4.79 KCAL/MOL
REMARK 924 INTRA-LIGAND FREE ENERGY PREDICTED BY IDOCK:   -0.31 KCAL/MOL
REMARK 927      BINDING AFFINITY PREDICTED BY RF-SCORE:    0.00 PKD
ROOT
HETATM    1  O   UNL     1     -10.695   5.250  69.564  1.00  0.00    -0.252 OA 
HETATM    2  C   UNL     1     -10.043   6.295  68.996  1.00  0.00    -0.172 C  
HETATM    3  O   UNL     1      -9.083   6.128  68.255  1.00  0.00    -0.115 OA 
HETATM    4  C   UNL     1     -10.645   7.653  69.295  1.00  0.00    -0.201 C  
ENDROOT
BRANCH   4   5
HETATM    5  S   UNL     1     -11.548   7.649  70.896  1.00  0.00    -0.260 SA 
BRANCH   5   6
HETATM    6  C   UNL     1     -11.114   9.316  71.482  1.00  0.00    -0.373 C  
BRANCH   6   7
HETATM    7  C   UNL     1     -11.990  10.355  70.815  1.00  0.00    -0.363 C  
HETATM    8  O   UNL     1     -13.214  10.330  70.917  1.00  0.00    -0.395 OA 
HETATM    9  N   UNL     1     -11.303  11.344  70.136  1.00  0.00    -0.499 N  
HETATM   10  H   UNL     1     -10.290  11.278  70.042  1.00  0.00     0.000 HD 
BRANCH   9  11
HETATM   11  C   UNL     1     -12.007  12.483  69.550  1.00  0.00    -0.266 C  
HETATM   12  C   UNL     1     -11.572  13.847  70.078  1.00  0.00    -0.282 C  
HETATM   13  C   UNL     1     -12.015  14.901  69.079  1.00  0.00    -0.272 C  
HETATM   14  S   UNL     1     -11.742  14.167  67.444  1.00  0.00    -0.408 SA 
HETATM   15  C   UNL     1     -11.879  12.516  68.030  1.00  0.00    -0.325 C  
HETATM   16  O   UNL     1     -11.931  11.540  67.294  1.00  0.00    -0.605 OA 
ENDBRANCH   9  11
ENDBRANCH   6   7
ENDBRANCH   5   6
ENDBRANCH   4   5
TORSDOF 4
ENDMDL
MODEL       90
REMARK 921   NORMALIZED FREE ENERGY PREDICTED BY IDOCK:   -3.87 KCAL/MOL
REMARK 922        TOTAL FREE ENERGY PREDICTED BY IDOCK:   -5.09 KCAL/MOL
REMARK 923 INTER-LIGAND FREE ENERGY PREDICTED BY IDOCK:   -4.71 KCAL/MOL
REMARK 924 INTRA-LIGAND FREE ENERGY PREDICTED BY IDOCK:   -0.38 KCAL/MOL
REMARK 927      BINDING AFFINITY PREDICTED BY RF-SCORE:    0.00 PKD
ROOT
HETATM    1  O   UNL     1     -13.340  14.122  65.182  1.00  0.00    -0.684 OA 
HETATM    2  C   UNL     1     -12.580  13.031  64.912  1.00  0.00    -0.428 C  
HETATM    3  O   UNL     1     -12.853  12.268  63.996  1.00  0.00    -0.696 OA 
HETATM    4  C   UNL     1     -11.345  12.892  65.778  1.00  0.00    -0.315 C  
ENDROOT
BRANCH   4   5
HETATM    5  S   UNL     1     -11.576  13.703  67.412  1.00  0.00    -0.379 SA 
BRANCH   5   6
HETATM    6  C   UNL     1     -12.035  12.245  68.400  1.00  0.00    -0.210 C  
BRANCH   6   7
HETATM    7  C   UNL     1     -10.942  11.200  68.338  1.00  0.00    -0.227 C  
HETATM    8  O   UNL     1      -9.762  11.485  68.532  1.00  0.00    -0.190 OA 
HETATM    9  N   UNL     1     -11.384   9.912  68.097  1.00  0.00    -0.531 N  
HETATM   10  H   UNL     1     -12.369   9.750  67.890  1.00  0.00     0.000 HD 
BRANCH   9  11
HETATM   11  C   UNL     1     -10.460   8.780  68.134  1.00  0.00    -0.191 C  
HETATM   12  C   UNL     1     -10.904   7.619  69.020  1.00  0.00    -0.059 C  
HETATM   13  C   UNL     1     -10.131   6.383  68.597  1.00  0.00    -0.158 C  
HETATM   14  S   UNL     1     -10.029   6.468  66.789  1.00  0.00    -0.150 SA 
HETATM   15  C   UNL     1     -10.185   8.218  66.743  1.00  0.00    -0.304 C  
HETATM   16  O   UNL     1     -10.025   8.884  65.729  1.00  0.00    -0.188 OA 
ENDBRANCH   9  11
ENDBRANCH   6   7
ENDBRANCH   5   6
ENDBRANCH   4   5
TORSDOF 4
ENDMDL
MODEL       91
REMARK 921   NORMALIZED FREE ENERGY PREDICTED BY IDOCK:   -3.86 KCAL/MOL
REMARK 922        TOTAL FREE ENERGY PREDICTED BY IDOCK:   -5.08 KCAL/MOL
REMARK 923 INTER-LIGAND FREE ENERGY PREDICTED BY IDOCK:   -4.96 KCAL/MOL
REMARK 924 INTRA-LIGAND FREE ENERGY PREDICTED BY IDOCK:   -0.12 KCAL/MOL
REMARK 927      BINDING AFFINITY PREDICTED BY RF-SCORE:    0.00 PKD
ROOT
HETATM    1  O   UNL     1      -8.756   8.668  64.977  1.00  0.00    -0.179 OA 
HETATM    2  C   UNL     1      -9.074   9.945  64.649  1.00  0.00    -0.242 C  
HETATM    3  O   UNL     1      -8.573  10.505  63.683  1.00  0.00    -0.172 OA 
HETATM    4  C   UNL     1     -10.142  10.575  65.521  1.00  0.00    -0.283 C  
ENDROOT
BRANCH   4   5
HETATM    5  S   UNL     1     -10.166   9.824  67.199  1.00  0.00    -0.239 SA 
BRANCH   5   6
HETATM    6  C   UNL     1      -9.893  11.323  68.195  1.00  0.00    -0.183 C  
BRANCH   6   7
HETATM    7  C   UNL     1     -11.206  11.836  68.747  1.00  0.00    -0.251 C  
HETATM    8  O   UNL     1     -12.282  11.337  68.427  1.00  0.00    -0.604 OA 
HETATM    9  N   UNL     1     -11.087  12.863  69.665  1.00  0.00    -0.472 N  
HETATM   10  H   UNL     1     -10.170  13.270  69.848  1.00  0.00     0.000 HD 
BRANCH   9  11
HETATM   11  C   UNL     1     -12.256  13.375  70.378  1.00  0.00    -0.345 C  
HETATM   12  C   UNL     1     -12.801  12.451  71.464  1.00  0.00    -0.377 C  
HETATM   13  C   UNL     1     -13.661  13.282  72.398  1.00  0.00    -0.578 C  
HETATM   14  S   UNL     1     -12.802  14.868  72.572  1.00  0.00    -0.401 SA 
HETATM   15  C   UNL     1     -11.987  14.732  71.020  1.00  0.00    -0.331 C  
HETATM   16  O   UNL     1     -11.348  15.643  70.511  1.00  0.00    -0.301 OA 
ENDBRANCH   9  11
ENDBRANCH   6   7
ENDBRANCH   5   6
ENDBRANCH   4   5
TORSDOF 4
ENDMDL
MODEL       92
REMARK 921   NORMALIZED FREE ENERGY PREDICTED BY IDOCK:   -3.85 KCAL/MOL
REMARK 922        TOTAL FREE ENERGY PREDICTED BY IDOCK:   -5.07 KCAL/MOL
REMARK 923 INTER-LIGAND FREE ENERGY PREDICTED BY IDOCK:   -4.60 KCAL/MOL
REMARK 924 INTRA-LIGAND FREE ENERGY PREDICTED BY IDOCK:   -0.47 KCAL/MOL
REMARK 927      BINDING AFFINITY PREDICTED BY RF-SCORE:    0.00 PKD
ROOT
HETATM    1  O   UNL     1     -12.054  15.767  68.482  1.00  0.00    -0.233 OA 
HETATM    2  C   UNL     1     -11.572  14.571  68.904  1.00  0.00    -0.309 C  
HETATM    3  O   UNL     1     -11.072  14.434  70.012  1.00  0.00    -0.192 OA 
HETATM    4  C   UNL     1     -11.777  13.428  67.930  1.00  0.00    -0.361 C  
ENDROOT
BRANCH   4   5
HETATM    5  S   UNL     1     -11.874  14.034  66.196  1.00  0.00    -0.426 SA 
BRANCH   5   6
HETATM    6  C   UNL     1     -10.120  14.441  65.930  1.00  0.00    -0.325 C  
BRANCH   6   7
HETATM    7  C   UNL     1      -9.921  15.943  65.931  1.00  0.00    -0.349 C  
HETATM    8  O   UNL     1     -10.459  16.667  65.097  1.00  0.00    -0.647 OA 
HETATM    9  N   UNL     1      -9.135  16.423  66.962  1.00  0.00    -0.208 N  
HETATM   10  H   UNL     1      -8.672  15.766  67.589  1.00  0.00     0.000 HD 
BRANCH   9  11
HETATM   11  C   UNL     1      -8.957  17.859  67.167  1.00  0.00    -0.251 C  
HETATM   12  C   UNL     1     -10.045  18.528  68.002  1.00  0.00    -0.403 C  
HETATM   13  C   UNL     1      -9.498  19.847  68.517  1.00  0.00    -0.242 C  
HETATM   14  S   UNL     1      -7.767  19.524  68.942  1.00  0.00    -0.273 SA 
HETATM   15  C   UNL     1      -7.615  18.184  67.814  1.00  0.00    -0.222 C  
HETATM   16  O   UNL     1      -6.551  17.642  67.548  1.00  0.00    -0.157 OA 
ENDBRANCH   9  11
ENDBRANCH   6   7
ENDBRANCH   5   6
ENDBRANCH   4   5
TORSDOF 4
ENDMDL
MODEL       93
REMARK 921   NORMALIZED FREE ENERGY PREDICTED BY IDOCK:   -3.84 KCAL/MOL
REMARK 922        TOTAL FREE ENERGY PREDICTED BY IDOCK:   -5.06 KCAL/MOL
REMARK 923 INTER-LIGAND FREE ENERGY PREDICTED BY IDOCK:   -5.12 KCAL/MOL
REMARK 924 INTRA-LIGAND FREE ENERGY PREDICTED BY IDOCK:    0.06 KCAL/MOL
REMARK 927      BINDING AFFINITY PREDICTED BY RF-SCORE:    0.00 PKD
ROOT
HETATM    1  O   UNL     1     -12.300   6.630  70.862  1.00  0.00    -0.353 OA 
HETATM    2  C   UNL     1     -11.744   6.966  72.053  1.00  0.00    -0.300 C  
HETATM    3  O   UNL     1     -11.089   6.164  72.706  1.00  0.00    -0.246 OA 
HETATM    4  C   UNL     1     -11.937   8.414  72.455  1.00  0.00    -0.384 C  
ENDROOT
BRANCH   4   5
HETATM    5  S   UNL     1     -13.460   9.120  71.705  1.00  0.00    -0.434 SA 
BRANCH   5   6
HETATM    6  C   UNL     1     -13.036  10.888  71.791  1.00  0.00    -0.459 C  
BRANCH   6   7
HETATM    7  C   UNL     1     -12.134  11.271  70.636  1.00  0.00    -0.383 C  
HETATM    8  O   UNL     1     -11.617  10.424  69.911  1.00  0.00    -0.257 OA 
HETATM    9  N   UNL     1     -11.987  12.632  70.442  1.00  0.00    -0.522 N  
HETATM   10  H   UNL     1     -12.398  13.282  71.111  1.00  0.00     0.000 HD 
BRANCH   9  11
HETATM   11  C   UNL     1     -11.250  13.153  69.292  1.00  0.00    -0.206 C  
HETATM   12  C   UNL     1     -11.872  12.838  67.935  1.00  0.00    -0.392 C  
HETATM   13  C   UNL     1     -11.298  13.808  66.918  1.00  0.00    -0.328 C  
HETATM   14  S   UNL     1     -11.175  15.398  67.778  1.00  0.00    -0.298 SA 
HETATM   15  C   UNL     1     -11.058  14.664  69.371  1.00  0.00    -0.268 C  
HETATM   16  O   UNL     1     -10.791  15.292  70.386  1.00  0.00    -0.286 OA 
ENDBRANCH   9  11
ENDBRANCH   6   7
ENDBRANCH   5   6
ENDBRANCH   4   5
TORSDOF 4
ENDMDL
MODEL       94
REMARK 921   NORMALIZED FREE ENERGY PREDICTED BY IDOCK:   -3.84 KCAL/MOL
REMARK 922        TOTAL FREE ENERGY PREDICTED BY IDOCK:   -5.06 KCAL/MOL
REMARK 923 INTER-LIGAND FREE ENERGY PREDICTED BY IDOCK:   -4.37 KCAL/MOL
REMARK 924 INTRA-LIGAND FREE ENERGY PREDICTED BY IDOCK:   -0.69 KCAL/MOL
REMARK 927      BINDING AFFINITY PREDICTED BY RF-SCORE:    0.00 PKD
ROOT
HETATM    1  O   UNL     1     -11.323  11.281  69.816  1.00  0.00    -0.269 OA 
HETATM    2  C   UNL     1     -11.376  10.183  70.610  1.00  0.00    -0.352 C  
HETATM    3  O   UNL     1     -12.266  10.029  71.436  1.00  0.00    -0.362 OA 
HETATM    4  C   UNL     1     -10.303   9.150  70.333  1.00  0.00    -0.223 C  
ENDROOT
BRANCH   4   5
HETATM    5  S   UNL     1      -8.798   9.924  69.613  1.00  0.00    -0.202 SA 
BRANCH   5   6
HETATM    6  C   UNL     1      -8.755   9.049  68.017  1.00  0.00    -0.129 C  
BRANCH   6   7
HETATM    7  C   UNL     1      -9.921   9.475  67.150  1.00  0.00    -0.204 C  
HETATM    8  O   UNL     1     -10.776   8.674  66.779  1.00  0.00    -0.221 OA 
HETATM    9  N   UNL     1      -9.966  10.826  66.861  1.00  0.00    -0.193 N  
HETATM   10  H   UNL     1      -9.197  11.428  67.153  1.00  0.00     0.000 HD 
BRANCH   9  11
HETATM   11  C   UNL     1     -11.099  11.404  66.142  1.00  0.00    -0.198 C  
HETATM   12  C   UNL     1     -11.554  12.769  66.651  1.00  0.00    -0.430 C  
HETATM   13  C   UNL     1     -12.373  13.430  65.558  1.00  0.00    -0.480 C  
HETATM   14  S   UNL     1     -11.541  13.009  64.004  1.00  0.00    -0.452 SA 
HETATM   15  C   UNL     1     -10.822  11.540  64.648  1.00  0.00    -0.310 C  
HETATM   16  O   UNL     1     -10.237  10.716  63.958  1.00  0.00    -0.341 OA 
ENDBRANCH   9  11
ENDBRANCH   6   7
ENDBRANCH   5   6
ENDBRANCH   4   5
TORSDOF 4
ENDMDL
MODEL       95
REMARK 921   NORMALIZED FREE ENERGY PREDICTED BY IDOCK:   -3.84 KCAL/MOL
REMARK 922        TOTAL FREE ENERGY PREDICTED BY IDOCK:   -5.06 KCAL/MOL
REMARK 923 INTER-LIGAND FREE ENERGY PREDICTED BY IDOCK:   -4.75 KCAL/MOL
REMARK 924 INTRA-LIGAND FREE ENERGY PREDICTED BY IDOCK:   -0.31 KCAL/MOL
REMARK 927      BINDING AFFINITY PREDICTED BY RF-SCORE:    0.00 PKD
ROOT
HETATM    1  O   UNL     1     -12.276  12.221  64.941  1.00  0.00    -0.410 OA 
HETATM    2  C   UNL     1     -12.071  13.017  66.020  1.00  0.00    -0.432 C  
HETATM    3  O   UNL     1     -12.760  14.007  66.230  1.00  0.00    -0.414 OA 
HETATM    4  C   UNL     1     -10.987  12.536  66.963  1.00  0.00    -0.267 C  
ENDROOT
BRANCH   4   5
HETATM    5  S   UNL     1      -9.733  11.521  66.081  1.00  0.00    -0.230 SA 
BRANCH   5   6
HETATM    6  C   UNL     1     -10.095   9.899  66.822  1.00  0.00    -0.230 C  
BRANCH   6   7
HETATM    7  C   UNL     1     -10.187  10.015  68.329  1.00  0.00    -0.173 C  
HETATM    8  O   UNL     1      -9.222  10.348  69.012  1.00  0.00    -0.169 OA 
HETATM    9  N   UNL     1     -11.442   9.767  68.855  1.00  0.00    -0.477 N  
HETATM   10  H   UNL     1     -12.188   9.442  68.241  1.00  0.00     0.000 HD 
BRANCH   9  11
HETATM   11  C   UNL     1     -11.715   9.964  70.277  1.00  0.00    -0.216 C  
HETATM   12  C   UNL     1     -12.764  11.028  70.588  1.00  0.00    -0.375 C  
HETATM   13  C   UNL     1     -13.272  10.788  71.998  1.00  0.00    -0.361 C  
HETATM   14  S   UNL     1     -13.380   8.988  72.178  1.00  0.00    -0.487 SA 
HETATM   15  C   UNL     1     -12.151   8.672  70.961  1.00  0.00    -0.215 C  
HETATM   16  O   UNL     1     -11.675   7.565  70.753  1.00  0.00    -0.291 OA 
ENDBRANCH   9  11
ENDBRANCH   6   7
ENDBRANCH   5   6
ENDBRANCH   4   5
TORSDOF 4
ENDMDL
MODEL       96
REMARK 921   NORMALIZED FREE ENERGY PREDICTED BY IDOCK:   -3.84 KCAL/MOL
REMARK 922        TOTAL FREE ENERGY PREDICTED BY IDOCK:   -5.05 KCAL/MOL
REMARK 923 INTER-LIGAND FREE ENERGY PREDICTED BY IDOCK:   -4.74 KCAL/MOL
REMARK 924 INTRA-LIGAND FREE ENERGY PREDICTED BY IDOCK:   -0.31 KCAL/MOL
REMARK 927      BINDING AFFINITY PREDICTED BY RF-SCORE:    0.00 PKD
ROOT
HETATM    1  O   UNL     1     -10.878  12.509  63.297  1.00  0.00    -0.406 OA 
HETATM    2  C   UNL     1     -11.915  13.177  63.862  1.00  0.00    -0.488 C  
HETATM    3  O   UNL     1     -12.524  14.049  63.258  1.00  0.00    -0.795 OA 
HETATM    4  C   UNL     1     -12.292  12.700  65.250  1.00  0.00    -0.466 C  
ENDROOT
BRANCH   4   5
HETATM    5  S   UNL     1     -10.853  11.950  66.116  1.00  0.00    -0.303 SA 
BRANCH   5   6
HETATM    6  C   UNL     1     -11.521  11.904  67.808  1.00  0.00    -0.319 C  
BRANCH   6   7
HETATM    7  C   UNL     1     -11.238  10.562  68.451  1.00  0.00    -0.279 C  
HETATM    8  O   UNL     1     -11.523  10.334  69.624  1.00  0.00    -0.248 OA 
HETATM    9  N   UNL     1     -10.688   9.618  67.604  1.00  0.00    -0.335 N  
HETATM   10  H   UNL     1     -10.425   9.886  66.656  1.00  0.00     0.000 HD 
BRANCH   9  11
HETATM   11  C   UNL     1     -10.478   8.241  68.046  1.00  0.00    -0.181 C  
HETATM   12  C   UNL     1     -11.013   7.173  67.096  1.00  0.00    -0.342 C  
HETATM   13  C   UNL     1     -10.324   5.862  67.428  1.00  0.00    -0.220 C  
HETATM   14  S   UNL     1      -8.606   6.296  67.809  1.00  0.00    -0.114 SA 
HETATM   15  C   UNL     1      -9.004   7.938  68.297  1.00  0.00    -0.132 C  
HETATM   16  O   UNL     1      -8.205   8.697  68.827  1.00  0.00    -0.117 OA 
ENDBRANCH   9  11
ENDBRANCH   6   7
ENDBRANCH   5   6
ENDBRANCH   4   5
TORSDOF 4
ENDMDL
MODEL       97
REMARK 921   NORMALIZED FREE ENERGY PREDICTED BY IDOCK:   -3.83 KCAL/MOL
REMARK 922        TOTAL FREE ENERGY PREDICTED BY IDOCK:   -5.05 KCAL/MOL
REMARK 923 INTER-LIGAND FREE ENERGY PREDICTED BY IDOCK:   -4.42 KCAL/MOL
REMARK 924 INTRA-LIGAND FREE ENERGY PREDICTED BY IDOCK:   -0.63 KCAL/MOL
REMARK 927      BINDING AFFINITY PREDICTED BY RF-SCORE:    0.00 PKD
ROOT
HETATM    1  O   UNL     1     -10.211  12.628  66.718  1.00  0.00    -0.232 OA 
HETATM    2  C   UNL     1     -11.507  12.732  67.104  1.00  0.00    -0.337 C  
HETATM    3  O   UNL     1     -11.953  12.084  68.041  1.00  0.00    -0.495 OA 
HETATM    4  C   UNL     1     -12.314  13.761  66.337  1.00  0.00    -0.412 C  
ENDROOT
BRANCH   4   5
HETATM    5  S   UNL     1     -11.637  14.020  64.647  1.00  0.00    -0.400 SA 
BRANCH   5   6
HETATM    6  C   UNL     1     -11.488  15.834  64.666  1.00  0.00    -0.282 C  
BRANCH   6   7
HETATM    7  C   UNL     1     -10.544  16.275  65.765  1.00  0.00    -0.324 C  
HETATM    8  O   UNL     1     -10.903  17.041  66.656  1.00  0.00    -0.143 OA 
HETATM    9  N   UNL     1      -9.283  15.711  65.707  1.00  0.00    -0.325 N  
HETATM   10  H   UNL     1      -9.031  15.125  64.912  1.00  0.00     0.000 HD 
BRANCH   9  11
HETATM   11  C   UNL     1      -8.306  15.943  66.768  1.00  0.00    -0.271 C  
HETATM   12  C   UNL     1      -7.539  14.702  67.217  1.00  0.00    -0.173 C  
HETATM   13  C   UNL     1      -6.283  15.160  67.935  1.00  0.00    -0.156 C  
HETATM   14  S   UNL     1      -5.688  16.599  67.009  1.00  0.00    -0.082 SA 
HETATM   15  C   UNL     1      -7.280  17.004  66.382  1.00  0.00    -0.276 C  
HETATM   16  O   UNL     1      -7.524  18.037  65.775  1.00  0.00    -0.514 OA 
ENDBRANCH   9  11
ENDBRANCH   6   7
ENDBRANCH   5   6
ENDBRANCH   4   5
TORSDOF 4
ENDMDL
MODEL       98
REMARK 921   NORMALIZED FREE ENERGY PREDICTED BY IDOCK:   -3.82 KCAL/MOL
REMARK 922        TOTAL FREE ENERGY PREDICTED BY IDOCK:   -5.04 KCAL/MOL
REMARK 923 INTER-LIGAND FREE ENERGY PREDICTED BY IDOCK:   -5.13 KCAL/MOL
REMARK 924 INTRA-LIGAND FREE ENERGY PREDICTED BY IDOCK:    0.09 KCAL/MOL
REMARK 927      BINDING AFFINITY PREDICTED BY RF-SCORE:    0.00 PKD
ROOT
HETATM    1  O   UNL     1     -10.423  19.109  65.707  1.00  0.00    -0.502 OA 
HETATM    2  C   UNL     1     -10.483  17.776  65.463  1.00  0.00    -0.017 C  
HETATM    3  O   UNL     1     -11.262  17.306  64.645  1.00  0.00    -1.014 OA 
HETATM    4  C   UNL     1      -9.465  16.949  66.221  1.00  0.00    -0.271 C  
ENDROOT
BRANCH   4   5
HETATM    5  S   UNL     1      -8.973  17.766  67.793  1.00  0.00    -0.253 SA 
BRANCH   5   6
HETATM    6  C   UNL     1     -10.351  17.219  68.850  1.00  0.00    -0.352 C  
BRANCH   6   7
HETATM    7  C   UNL     1     -10.517  15.716  68.766  1.00  0.00    -0.225 C  
HETATM    8  O   UNL     1      -9.581  14.949  68.981  1.00  0.00    -0.213 OA 
HETATM    9  N   UNL     1     -11.800  15.290  68.480  1.00  0.00    -0.501 N  
HETATM   10  H   UNL     1     -12.520  15.977  68.258  1.00  0.00     0.000 HD 
BRANCH   9  11
HETATM   11  C   UNL     1     -12.141  13.869  68.491  1.00  0.00    -0.296 C  
HETATM   12  C   UNL     1     -11.332  13.007  67.526  1.00  0.00    -0.346 C  
HETATM   13  C   UNL     1     -11.446  11.562  67.977  1.00  0.00    -0.311 C  
HETATM   14  S   UNL     1     -11.390  11.611  69.788  1.00  0.00    -0.144 SA 
HETATM   15  C   UNL     1     -12.003  13.257  69.882  1.00  0.00    -0.330 C  
HETATM   16  O   UNL     1     -12.332  13.796  70.929  1.00  0.00    -0.349 OA 
ENDBRANCH   9  11
ENDBRANCH   6   7
ENDBRANCH   5   6
ENDBRANCH   4   5
TORSDOF 4
ENDMDL
MODEL       99
REMARK 921   NORMALIZED FREE ENERGY PREDICTED BY IDOCK:   -3.79 KCAL/MOL
REMARK 922        TOTAL FREE ENERGY PREDICTED BY IDOCK:   -5.00 KCAL/MOL
REMARK 923 INTER-LIGAND FREE ENERGY PREDICTED BY IDOCK:   -4.95 KCAL/MOL
REMARK 924 INTRA-LIGAND FREE ENERGY PREDICTED BY IDOCK:   -0.05 KCAL/MOL
REMARK 927      BINDING AFFINITY PREDICTED BY RF-SCORE:    0.00 PKD
ROOT
HETATM    1  O   UNL     1     -11.110  10.887  66.266  1.00  0.00    -0.128 OA 
HETATM    2  C   UNL     1     -11.571  12.163  66.298  1.00  0.00    -0.360 C  
HETATM    3  O   UNL     1     -12.360  12.583  65.462  1.00  0.00    -0.600 OA 
HETATM    4  C   UNL     1     -11.092  12.977  67.483  1.00  0.00    -0.268 C  
ENDROOT
BRANCH   4   5
HETATM    5  S   UNL     1      -9.472  12.369  68.104  1.00  0.00    -0.208 SA 
BRANCH   5   6
HETATM    6  C   UNL     1      -8.459  13.845  67.777  1.00  0.00    -0.183 C  
BRANCH   6   7
HETATM    7  C   UNL     1      -9.196  15.097  68.205  1.00  0.00    -0.184 C  
HETATM    8  O   UNL     1      -9.540  15.278  69.370  1.00  0.00    -0.241 OA 
HETATM    9  N   UNL     1      -9.401  16.022  67.198  1.00  0.00    -0.209 N  
HETATM   10  H   UNL     1      -9.141  15.788  66.240  1.00  0.00     0.000 HD 
BRANCH   9  11
HETATM   11  C   UNL     1      -9.985  17.330  67.485  1.00  0.00    -0.296 C  
HETATM   12  C   UNL     1      -9.125  18.239  68.359  1.00  0.00    -0.331 C  
HETATM   13  C   UNL     1      -9.611  19.665  68.174  1.00  0.00    -0.377 C  
HETATM   14  S   UNL     1     -10.015  19.819  66.414  1.00  0.00    -0.505 SA 
HETATM   15  C   UNL     1     -10.323  18.100  66.212  1.00  0.00    -0.397 C  
HETATM   16  O   UNL     1     -10.806  17.615  65.198  1.00  0.00    -0.664 OA 
ENDBRANCH   9  11
ENDBRANCH   6   7
ENDBRANCH   5   6
ENDBRANCH   4   5
TORSDOF 4
ENDMDL
MODEL      100
REMARK 921   NORMALIZED FREE ENERGY PREDICTED BY IDOCK:   -3.78 KCAL/MOL
REMARK 922        TOTAL FREE ENERGY PREDICTED BY IDOCK:   -4.98 KCAL/MOL
REMARK 923 INTER-LIGAND FREE ENERGY PREDICTED BY IDOCK:   -4.70 KCAL/MOL
REMARK 924 INTRA-LIGAND FREE ENERGY PREDICTED BY IDOCK:   -0.28 KCAL/MOL
REMARK 927      BINDING AFFINITY PREDICTED BY RF-SCORE:    0.00 PKD
ROOT
HETATM    1  O   UNL     1     -10.580  15.594  66.724  1.00  0.00    -0.301 OA 
HETATM    2  C   UNL     1     -10.857  15.962  65.448  1.00  0.00    -0.349 C  
HETATM    3  O   UNL     1     -10.550  17.065  65.016  1.00  0.00    -0.703 OA 
HETATM    4  C   UNL     1     -11.495  14.879  64.602  1.00  0.00    -0.379 C  
ENDROOT
BRANCH   4   5
HETATM    5  S   UNL     1     -12.433  13.685  65.639  1.00  0.00    -0.487 SA 
BRANCH   5   6
HETATM    6  C   UNL     1     -11.178  12.375  65.787  1.00  0.00    -0.333 C  
BRANCH   6   7
HETATM    7  C   UNL     1     -10.896  12.076  67.244  1.00  0.00    -0.246 C  
HETATM    8  O   UNL     1      -9.798  11.674  67.621  1.00  0.00    -0.181 OA 
HETATM    9  N   UNL     1     -11.948  12.337  68.103  1.00  0.00    -0.296 N  
HETATM   10  H   UNL     1     -12.851  12.617  67.722  1.00  0.00     0.000 HD 
BRANCH   9  11
HETATM   11  C   UNL     1     -11.784  12.217  69.551  1.00  0.00    -0.332 C  
HETATM   12  C   UNL     1     -12.625  13.190  70.374  1.00  0.00    -0.186 C  
HETATM   13  C   UNL     1     -12.719  12.648  71.788  1.00  0.00    -0.137 C  
HETATM   14  S   UNL     1     -12.892  10.852  71.612  1.00  0.00    -0.405 SA 
HETATM   15  C   UNL     1     -12.091  10.808  70.048  1.00  0.00    -0.345 C  
HETATM   16  O   UNL     1     -11.771   9.772  69.482  1.00  0.00    -0.023 OA 
ENDBRANCH   9  11
ENDBRANCH   6   7
ENDBRANCH   5   6
ENDBRANCH   4   5
TORSDOF 4
ENDMDL
MODEL      101
REMARK 921   NORMALIZED FREE ENERGY PREDICTED BY IDOCK:   -3.77 KCAL/MOL
REMARK 922        TOTAL FREE ENERGY PREDICTED BY IDOCK:   -4.97 KCAL/MOL
REMARK 923 INTER-LIGAND FREE ENERGY PREDICTED BY IDOCK:   -4.69 KCAL/MOL
REMARK 924 INTRA-LIGAND FREE ENERGY PREDICTED BY IDOCK:   -0.27 KCAL/MOL
REMARK 927      BINDING AFFINITY PREDICTED BY RF-SCORE:    0.00 PKD
ROOT
HETATM    1  O   UNL     1      -9.555  16.684  65.691  1.00  0.00    -0.519 OA 
HETATM    2  C   UNL     1     -10.235  16.772  66.862  1.00  0.00    -0.290 C  
HETATM    3  O   UNL     1     -10.760  17.816  67.225  1.00  0.00    -0.334 OA 
HETATM    4  C   UNL     1     -10.349  15.467  67.625  1.00  0.00    -0.269 C  
ENDROOT
BRANCH   4   5
HETATM    5  S   UNL     1      -8.950  14.339  67.238  1.00  0.00    -0.223 SA 
BRANCH   5   6
HETATM    6  C   UNL     1      -9.875  12.986  66.447  1.00  0.00    -0.270 C  
BRANCH   6   7
HETATM    7  C   UNL     1     -11.152  12.703  67.209  1.00  0.00    -0.278 C  
HETATM    8  O   UNL     1     -12.252  12.735  66.663  1.00  0.00    -0.481 OA 
HETATM    9  N   UNL     1     -10.972  12.362  68.537  1.00  0.00    -0.232 N  
HETATM   10  H   UNL     1     -10.038  12.407  68.945  1.00  0.00     0.000 HD 
BRANCH   9  11
HETATM   11  C   UNL     1     -12.099  11.940  69.366  1.00  0.00    -0.216 C  
HETATM   12  C   UNL     1     -11.908  10.602  70.076  1.00  0.00    -0.403 C  
HETATM   13  C   UNL     1     -12.898  10.534  71.224  1.00  0.00    -0.431 C  
HETATM   14  S   UNL     1     -12.947  12.204  71.926  1.00  0.00    -0.212 SA 
HETATM   15  C   UNL     1     -12.451  12.978  70.427  1.00  0.00    -0.194 C  
HETATM   16  O   UNL     1     -12.459  14.189  70.257  1.00  0.00    -0.342 OA 
ENDBRANCH   9  11
ENDBRANCH   6   7
ENDBRANCH   5   6
ENDBRANCH   4   5
TORSDOF 4
ENDMDL
MODEL      102
REMARK 921   NORMALIZED FREE ENERGY PREDICTED BY IDOCK:   -3.76 KCAL/MOL
REMARK 922        TOTAL FREE ENERGY PREDICTED BY IDOCK:   -4.95 KCAL/MOL
REMARK 923 INTER-LIGAND FREE ENERGY PREDICTED BY IDOCK:   -4.73 KCAL/MOL
REMARK 924 INTRA-LIGAND FREE ENERGY PREDICTED BY IDOCK:   -0.22 KCAL/MOL
REMARK 927      BINDING AFFINITY PREDICTED BY RF-SCORE:    0.00 PKD
ROOT
HETATM    1  O   UNL     1     -13.375  12.506  72.016  1.00  0.00    -0.502 OA 
HETATM    2  C   UNL     1     -13.186  13.843  71.885  1.00  0.00    -0.397 C  
HETATM    3  O   UNL     1     -13.720  14.644  72.640  1.00  0.00    -0.457 OA 
HETATM    4  C   UNL     1     -12.212  14.239  70.795  1.00  0.00    -0.353 C  
ENDROOT
BRANCH   4   5
HETATM    5  S   UNL     1     -12.149  12.976  69.460  1.00  0.00    -0.172 SA 
BRANCH   5   6
HETATM    6  C   UNL     1     -11.883  14.073  68.031  1.00  0.00    -0.368 C  
BRANCH   6   7
HETATM    7  C   UNL     1     -11.940  13.282  66.741  1.00  0.00    -0.382 C  
HETATM    8  O   UNL     1     -12.866  13.411  65.944  1.00  0.00    -0.330 OA 
HETATM    9  N   UNL     1     -10.854  12.456  66.519  1.00  0.00    -0.243 N  
HETATM   10  H   UNL     1     -10.145  12.352  67.244  1.00  0.00     0.000 HD 
BRANCH   9  11
HETATM   11  C   UNL     1     -10.708  11.727  65.260  1.00  0.00    -0.287 C  
HETATM   12  C   UNL     1      -9.860  12.433  64.205  1.00  0.00    -0.129 C  
HETATM   13  C   UNL     1      -9.413  11.396  63.192  1.00  0.00    -0.343 C  
HETATM   14  S   UNL     1      -9.035   9.907  64.152  1.00  0.00    -0.251 SA 
HETATM   15  C   UNL     1     -10.119  10.336  65.469  1.00  0.00    -0.281 C  
HETATM   16  O   UNL     1     -10.401   9.577  66.386  1.00  0.00    -0.240 OA 
ENDBRANCH   9  11
ENDBRANCH   6   7
ENDBRANCH   5   6
ENDBRANCH   4   5
TORSDOF 4
ENDMDL
MODEL      103
REMARK 921   NORMALIZED FREE ENERGY PREDICTED BY IDOCK:   -3.75 KCAL/MOL
REMARK 922        TOTAL FREE ENERGY PREDICTED BY IDOCK:   -4.95 KCAL/MOL
REMARK 923 INTER-LIGAND FREE ENERGY PREDICTED BY IDOCK:   -4.65 KCAL/MOL
REMARK 924 INTRA-LIGAND FREE ENERGY PREDICTED BY IDOCK:   -0.29 KCAL/MOL
REMARK 927      BINDING AFFINITY PREDICTED BY RF-SCORE:    0.00 PKD
ROOT
HETATM    1  O   UNL     1     -12.779   7.696  71.538  1.00  0.00    -0.327 OA 
HETATM    2  C   UNL     1     -11.744   8.346  72.126  1.00  0.00    -0.375 C  
HETATM    3  O   UNL     1     -11.126   7.858  73.063  1.00  0.00    -0.402 OA 
HETATM    4  C   UNL     1     -11.379   9.668  71.480  1.00  0.00    -0.350 C  
ENDROOT
BRANCH   4   5
HETATM    5  S   UNL     1     -12.828  10.425  70.639  1.00  0.00    -0.244 SA 
BRANCH   5   6
HETATM    6  C   UNL     1     -12.754  12.090  71.369  1.00  0.00    -0.275 C  
BRANCH   6   7
HETATM    7  C   UNL     1     -12.331  13.105  70.328  1.00  0.00    -0.249 C  
HETATM    8  O   UNL     1     -12.464  14.313  70.510  1.00  0.00    -0.324 OA 
HETATM    9  N   UNL     1     -11.748  12.566  69.196  1.00  0.00    -0.309 N  
HETATM   10  H   UNL     1     -11.716  11.554  69.081  1.00  0.00     0.000 HD 
BRANCH   9  11
HETATM   11  C   UNL     1     -11.176  13.426  68.162  1.00  0.00    -0.273 C  
HETATM   12  C   UNL     1      -9.690  13.732  68.330  1.00  0.00    -0.219 C  
HETATM   13  C   UNL     1      -9.153  14.202  66.991  1.00  0.00    -0.243 C  
HETATM   14  S   UNL     1      -9.974  13.172  65.747  1.00  0.00    -0.212 SA 
HETATM   15  C   UNL     1     -11.372  12.849  66.763  1.00  0.00    -0.322 C  
HETATM   16  O   UNL     1     -12.384  12.291  66.362  1.00  0.00    -0.531 OA 
ENDBRANCH   9  11
ENDBRANCH   6   7
ENDBRANCH   5   6
ENDBRANCH   4   5
TORSDOF 4
ENDMDL
MODEL      104
REMARK 921   NORMALIZED FREE ENERGY PREDICTED BY IDOCK:   -3.74 KCAL/MOL
REMARK 922        TOTAL FREE ENERGY PREDICTED BY IDOCK:   -4.94 KCAL/MOL
REMARK 923 INTER-LIGAND FREE ENERGY PREDICTED BY IDOCK:   -4.69 KCAL/MOL
REMARK 924 INTRA-LIGAND FREE ENERGY PREDICTED BY IDOCK:   -0.25 KCAL/MOL
REMARK 927      BINDING AFFINITY PREDICTED BY RF-SCORE:    0.00 PKD
ROOT
HETATM    1  O   UNL     1     -12.225   8.416  72.453  1.00  0.00    -0.369 OA 
HETATM    2  C   UNL     1     -13.292   9.247  72.340  1.00  0.00    -0.449 C  
HETATM    3  O   UNL     1     -14.388   8.952  72.797  1.00  0.00    -0.600 OA 
HETATM    4  C   UNL     1     -12.990  10.577  71.680  1.00  0.00    -0.476 C  
ENDROOT
BRANCH   4   5
HETATM    5  S   UNL     1     -11.561  10.446  70.530  1.00  0.00    -0.362 SA 
BRANCH   5   6
HETATM    6  C   UNL     1     -12.219  11.412  69.134  1.00  0.00    -0.175 C  
BRANCH   6   7
HETATM    7  C   UNL     1     -11.642  12.812  69.143  1.00  0.00    -0.319 C  
HETATM    8  O   UNL     1     -12.141  13.713  69.812  1.00  0.00    -0.320 OA 
HETATM    9  N   UNL     1     -10.496  12.971  68.386  1.00  0.00    -0.248 N  
HETATM   10  H   UNL     1     -10.163  12.198  67.810  1.00  0.00     0.000 HD 
BRANCH   9  11
HETATM   11  C   UNL     1      -9.755  14.231  68.397  1.00  0.00    -0.225 C  
HETATM   12  C   UNL     1      -8.236  14.082  68.386  1.00  0.00    -0.150 C  
HETATM   13  C   UNL     1      -7.639  15.399  67.926  1.00  0.00    -0.136 C  
HETATM   14  S   UNL     1      -8.738  16.003  66.618  1.00  0.00    -0.303 SA 
HETATM   15  C   UNL     1     -10.138  15.132  67.227  1.00  0.00    -0.235 C  
HETATM   16  O   UNL     1     -11.272  15.292  66.799  1.00  0.00    -0.317 OA 
ENDBRANCH   9  11
ENDBRANCH   6   7
ENDBRANCH   5   6
ENDBRANCH   4   5
TORSDOF 4
ENDMDL
MODEL      105
REMARK 921   NORMALIZED FREE ENERGY PREDICTED BY IDOCK:   -3.74 KCAL/MOL
REMARK 922        TOTAL FREE ENERGY PREDICTED BY IDOCK:   -4.93 KCAL/MOL
REMARK 923 INTER-LIGAND FREE ENERGY PREDICTED BY IDOCK:   -4.67 KCAL/MOL
REMARK 924 INTRA-LIGAND FREE ENERGY PREDICTED BY IDOCK:   -0.26 KCAL/MOL
REMARK 927      BINDING AFFINITY PREDICTED BY RF-SCORE:    0.00 PKD
ROOT
HETATM    1  O   UNL     1     -10.319  20.077  68.307  1.00  0.00    -0.429 OA 
HETATM    2  C   UNL     1      -9.051  19.774  67.931  1.00  0.00    -0.327 C  
HETATM    3  O   UNL     1      -8.368  20.555  67.282  1.00  0.00    -0.337 OA 
HETATM    4  C   UNL     1      -8.541  18.442  68.443  1.00  0.00    -0.325 C  
ENDROOT
BRANCH   4   5
HETATM    5  S   UNL     1      -9.922  17.263  68.735  1.00  0.00    -0.325 SA 
BRANCH   5   6
HETATM    6  C   UNL     1     -10.320  16.844  67.009  1.00  0.00    -0.307 C  
BRANCH   6   7
HETATM    7  C   UNL     1      -9.827  15.452  66.676  1.00  0.00    -0.255 C  
HETATM    8  O   UNL     1      -8.811  15.268  66.010  1.00  0.00    -0.244 OA 
HETATM    9  N   UNL     1     -10.577  14.426  67.219  1.00  0.00    -0.276 N  
HETATM   10  H   UNL     1     -11.440  14.643  67.716  1.00  0.00     0.000 HD 
BRANCH   9  11
HETATM   11  C   UNL     1     -10.153  13.033  67.090  1.00  0.00    -0.244 C  
HETATM   12  C   UNL     1      -9.390  12.481  68.291  1.00  0.00    -0.193 C  
HETATM   13  C   UNL     1      -9.442  10.966  68.224  1.00  0.00    -0.168 C  
HETATM   14  S   UNL     1     -11.110  10.560  67.644  1.00  0.00    -0.251 SA 
HETATM   15  C   UNL     1     -11.328  12.098  66.821  1.00  0.00    -0.342 C  
HETATM   16  O   UNL     1     -12.271  12.341  66.082  1.00  0.00    -0.647 OA 
ENDBRANCH   9  11
ENDBRANCH   6   7
ENDBRANCH   5   6
ENDBRANCH   4   5
TORSDOF 4
ENDMDL
MODEL      106
REMARK 921   NORMALIZED FREE ENERGY PREDICTED BY IDOCK:   -3.72 KCAL/MOL
REMARK 922        TOTAL FREE ENERGY PREDICTED BY IDOCK:   -4.91 KCAL/MOL
REMARK 923 INTER-LIGAND FREE ENERGY PREDICTED BY IDOCK:   -4.67 KCAL/MOL
REMARK 924 INTRA-LIGAND FREE ENERGY PREDICTED BY IDOCK:   -0.24 KCAL/MOL
REMARK 927      BINDING AFFINITY PREDICTED BY RF-SCORE:    0.00 PKD
ROOT
HETATM    1  O   UNL     1     -11.081   7.147  72.363  1.00  0.00    -0.243 OA 
HETATM    2  C   UNL     1     -12.070   7.679  71.603  1.00  0.00    -0.306 C  
HETATM    3  O   UNL     1     -13.148   7.117  71.466  1.00  0.00    -0.381 OA 
HETATM    4  C   UNL     1     -11.754   9.040  71.015  1.00  0.00    -0.296 C  
ENDROOT
BRANCH   4   5
HETATM    5  S   UNL     1      -9.943   9.271  70.797  1.00  0.00    -0.295 SA 
BRANCH   5   6
HETATM    6  C   UNL     1      -9.817   8.931  69.013  1.00  0.00    -0.180 C  
BRANCH   6   7
HETATM    7  C   UNL     1      -9.807  10.226  68.228  1.00  0.00    -0.146 C  
HETATM    8  O   UNL     1      -9.281  11.245  68.669  1.00  0.00    -0.179 OA 
HETATM    9  N   UNL     1     -10.386  10.149  66.975  1.00  0.00    -0.233 N  
HETATM   10  H   UNL     1     -10.853   9.289  66.689  1.00  0.00     0.000 HD 
BRANCH   9  11
HETATM   11  C   UNL     1     -10.338  11.282  66.053  1.00  0.00    -0.252 C  
HETATM   12  C   UNL     1     -10.243  10.905  64.577  1.00  0.00    -0.422 C  
HETATM   13  C   UNL     1     -10.676  12.107  63.757  1.00  0.00    -0.437 C  
HETATM   14  S   UNL     1     -12.063  12.841  64.662  1.00  0.00    -0.450 SA 
HETATM   15  C   UNL     1     -11.541  12.205  66.216  1.00  0.00    -0.360 C  
HETATM   16  O   UNL     1     -12.049  12.526  67.282  1.00  0.00    -0.490 OA 
ENDBRANCH   9  11
ENDBRANCH   6   7
ENDBRANCH   5   6
ENDBRANCH   4   5
TORSDOF 4
ENDMDL
MODEL      107
REMARK 921   NORMALIZED FREE ENERGY PREDICTED BY IDOCK:   -3.70 KCAL/MOL
REMARK 922        TOTAL FREE ENERGY PREDICTED BY IDOCK:   -4.89 KCAL/MOL
REMARK 923 INTER-LIGAND FREE ENERGY PREDICTED BY IDOCK:   -4.66 KCAL/MOL
REMARK 924 INTRA-LIGAND FREE ENERGY PREDICTED BY IDOCK:   -0.23 KCAL/MOL
REMARK 927      BINDING AFFINITY PREDICTED BY RF-SCORE:    0.00 PKD
ROOT
HETATM    1  O   UNL     1     -10.895   9.298  71.814  1.00  0.00    -0.368 OA 
HETATM    2  C   UNL     1     -12.251   9.310  71.841  1.00  0.00    -0.378 C  
HETATM    3  O   UNL     1     -12.890   8.440  72.419  1.00  0.00    -0.335 OA 
HETATM    4  C   UNL     1     -12.887  10.512  71.173  1.00  0.00    -0.416 C  
ENDROOT
BRANCH   4   5
HETATM    5  S   UNL     1     -11.800  11.203  69.861  1.00  0.00    -0.394 SA 
BRANCH   5   6
HETATM    6  C   UNL     1     -12.065  12.977  70.164  1.00  0.00    -0.307 C  
BRANCH   6   7
HETATM    7  C   UNL     1     -11.436  13.802  69.061  1.00  0.00    -0.305 C  
HETATM    8  O   UNL     1     -11.705  13.610  67.877  1.00  0.00    -0.319 OA 
HETATM    9  N   UNL     1     -10.588  14.803  69.496  1.00  0.00    -0.344 N  
HETATM   10  H   UNL     1     -10.363  14.875  70.488  1.00  0.00     0.000 HD 
BRANCH   9  11
HETATM   11  C   UNL     1     -10.007  15.759  68.555  1.00  0.00    -0.208 C  
HETATM   12  C   UNL     1     -10.645  17.145  68.573  1.00  0.00    -0.361 C  
HETATM   13  C   UNL     1      -9.671  18.119  67.935  1.00  0.00    -0.299 C  
HETATM   14  S   UNL     1      -8.028  17.608  68.505  1.00  0.00    -0.277 SA 
HETATM   15  C   UNL     1      -8.508  15.939  68.773  1.00  0.00    -0.204 C  
HETATM   16  O   UNL     1      -7.717  15.042  69.034  1.00  0.00    -0.145 OA 
ENDBRANCH   9  11
ENDBRANCH   6   7
ENDBRANCH   5   6
ENDBRANCH   4   5
TORSDOF 4
ENDMDL
MODEL      108
REMARK 921   NORMALIZED FREE ENERGY PREDICTED BY IDOCK:   -3.69 KCAL/MOL
REMARK 922        TOTAL FREE ENERGY PREDICTED BY IDOCK:   -4.87 KCAL/MOL
REMARK 923 INTER-LIGAND FREE ENERGY PREDICTED BY IDOCK:   -4.97 KCAL/MOL
REMARK 924 INTRA-LIGAND FREE ENERGY PREDICTED BY IDOCK:    0.10 KCAL/MOL
REMARK 927      BINDING AFFINITY PREDICTED BY RF-SCORE:    0.00 PKD
ROOT
HETATM    1  O   UNL     1     -14.252  12.960  72.544  1.00  0.00    -0.526 OA 
HETATM    2  C   UNL     1     -13.241  12.614  71.708  1.00  0.00    -0.359 C  
HETATM    3  O   UNL     1     -12.721  11.507  71.751  1.00  0.00    -0.332 OA 
HETATM    4  C   UNL     1     -12.876  13.673  70.687  1.00  0.00    -0.154 C  
ENDROOT
BRANCH   4   5
HETATM    5  S   UNL     1     -13.283  15.360  71.295  1.00  0.00    -0.519 SA 
BRANCH   5   6
HETATM    6  C   UNL     1     -11.601  16.049  71.394  1.00  0.00    -0.455 C  
BRANCH   6   7
HETATM    7  C   UNL     1     -10.909  15.948  70.051  1.00  0.00    -0.353 C  
HETATM    8  O   UNL     1      -9.834  15.367  69.920  1.00  0.00    -0.270 OA 
HETATM    9  N   UNL     1     -11.603  16.511  68.997  1.00  0.00    -0.195 N  
HETATM   10  H   UNL     1     -12.464  17.026  69.180  1.00  0.00     0.000 HD 
BRANCH   9  11
HETATM   11  C   UNL     1     -11.123  16.381  67.623  1.00  0.00    -0.150 C  
HETATM   12  C   UNL     1      -9.667  16.787  67.411  1.00  0.00    -0.245 C  
HETATM   13  C   UNL     1      -9.190  16.166  66.111  1.00  0.00    -0.347 C  
HETATM   14  S   UNL     1      -9.937  14.515  66.056  1.00  0.00    -0.333 SA 
HETATM   15  C   UNL     1     -11.287  14.961  67.090  1.00  0.00    -0.343 C  
HETATM   16  O   UNL     1     -12.253  14.237  67.289  1.00  0.00    -0.393 OA 
ENDBRANCH   9  11
ENDBRANCH   6   7
ENDBRANCH   5   6
ENDBRANCH   4   5
TORSDOF 4
ENDMDL
MODEL      109
REMARK 921   NORMALIZED FREE ENERGY PREDICTED BY IDOCK:   -3.68 KCAL/MOL
REMARK 922        TOTAL FREE ENERGY PREDICTED BY IDOCK:   -4.86 KCAL/MOL
REMARK 923 INTER-LIGAND FREE ENERGY PREDICTED BY IDOCK:   -4.59 KCAL/MOL
REMARK 924 INTRA-LIGAND FREE ENERGY PREDICTED BY IDOCK:   -0.27 KCAL/MOL
REMARK 927      BINDING AFFINITY PREDICTED BY RF-SCORE:    0.00 PKD
ROOT
HETATM    1  O   UNL     1      -8.810  11.806  66.778  1.00  0.00    -0.180 OA 
HETATM    2  C   UNL     1      -9.911  12.157  66.067  1.00  0.00    -0.243 C  
HETATM    3  O   UNL     1      -9.985  11.967  64.861  1.00  0.00    -0.253 OA 
HETATM    4  C   UNL     1     -11.045  12.722  66.898  1.00  0.00    -0.270 C  
ENDROOT
BRANCH   4   5
HETATM    5  S   UNL     1     -10.421  13.513  68.436  1.00  0.00    -0.248 SA 
BRANCH   5   6
HETATM    6  C   UNL     1     -12.007  13.794  69.285  1.00  0.00    -0.352 C  
BRANCH   6   7
HETATM    7  C   UNL     1     -12.133  12.878  70.484  1.00  0.00    -0.282 C  
HETATM    8  O   UNL     1     -12.585  13.274  71.556  1.00  0.00    -0.307 OA 
HETATM    9  N   UNL     1     -11.749  11.569  70.257  1.00  0.00    -0.465 N  
HETATM   10  H   UNL     1     -11.331  11.316  69.363  1.00  0.00     0.000 HD 
BRANCH   9  11
HETATM   11  C   UNL     1     -11.933  10.542  71.281  1.00  0.00    -0.289 C  
HETATM   12  C   UNL     1     -13.323   9.914  71.318  1.00  0.00    -0.419 C  
HETATM   13  C   UNL     1     -13.223   8.594  72.060  1.00  0.00    -0.386 C  
HETATM   14  S   UNL     1     -11.650   7.860  71.539  1.00  0.00    -0.281 SA 
HETATM   15  C   UNL     1     -10.919   9.410  71.146  1.00  0.00    -0.360 C  
HETATM   16  O   UNL     1      -9.736   9.548  70.869  1.00  0.00    -0.259 OA 
ENDBRANCH   9  11
ENDBRANCH   6   7
ENDBRANCH   5   6
ENDBRANCH   4   5
TORSDOF 4
ENDMDL
MODEL      110
REMARK 921   NORMALIZED FREE ENERGY PREDICTED BY IDOCK:   -3.66 KCAL/MOL
REMARK 922        TOTAL FREE ENERGY PREDICTED BY IDOCK:   -4.83 KCAL/MOL
REMARK 923 INTER-LIGAND FREE ENERGY PREDICTED BY IDOCK:   -5.20 KCAL/MOL
REMARK 924 INTRA-LIGAND FREE ENERGY PREDICTED BY IDOCK:    0.37 KCAL/MOL
REMARK 927      BINDING AFFINITY PREDICTED BY RF-SCORE:    0.00 PKD
ROOT
HETATM    1  O   UNL     1     -10.845  12.818  66.122  1.00  0.00    -0.273 OA 
HETATM    2  C   UNL     1     -10.747  14.065  65.597  1.00  0.00    -0.303 C  
HETATM    3  O   UNL     1     -11.074  14.304  64.442  1.00  0.00    -0.335 OA 
HETATM    4  C   UNL     1     -10.281  15.127  66.572  1.00  0.00    -0.276 C  
ENDROOT
BRANCH   4   5
HETATM    5  S   UNL     1      -9.244  14.403  67.907  1.00  0.00    -0.202 SA 
BRANCH   5   6
HETATM    6  C   UNL     1      -9.238  15.805  69.067  1.00  0.00    -0.243 C  
BRANCH   6   7
HETATM    7  C   UNL     1     -10.506  15.811  69.895  1.00  0.00    -0.320 C  
HETATM    8  O   UNL     1     -11.519  16.397  69.523  1.00  0.00    -0.261 OA 
HETATM    9  N   UNL     1     -10.440  15.070  71.061  1.00  0.00    -0.353 N  
HETATM   10  H   UNL     1      -9.554  14.651  71.341  1.00  0.00     0.000 HD 
BRANCH   9  11
HETATM   11  C   UNL     1     -11.623  14.877  71.898  1.00  0.00    -0.260 C  
HETATM   12  C   UNL     1     -12.078  16.119  72.661  1.00  0.00    -0.652 C  
HETATM   13  C   UNL     1     -13.522  15.911  73.077  1.00  0.00    -0.568 C  
HETATM   14  S   UNL     1     -14.316  15.071  71.681  1.00  0.00    -0.615 SA 
HETATM   15  C   UNL     1     -12.816  14.366  71.097  1.00  0.00    -0.347 C  
HETATM   16  O   UNL     1     -12.765  13.527  70.208  1.00  0.00    -0.193 OA 
ENDBRANCH   9  11
ENDBRANCH   6   7
ENDBRANCH   5   6
ENDBRANCH   4   5
TORSDOF 4
ENDMDL
MODEL      111
REMARK 921   NORMALIZED FREE ENERGY PREDICTED BY IDOCK:   -3.66 KCAL/MOL
REMARK 922        TOTAL FREE ENERGY PREDICTED BY IDOCK:   -4.83 KCAL/MOL
REMARK 923 INTER-LIGAND FREE ENERGY PREDICTED BY IDOCK:   -4.60 KCAL/MOL
REMARK 924 INTRA-LIGAND FREE ENERGY PREDICTED BY IDOCK:   -0.24 KCAL/MOL
REMARK 927      BINDING AFFINITY PREDICTED BY RF-SCORE:    0.00 PKD
ROOT
HETATM    1  O   UNL     1      -8.743   6.251  69.671  1.00  0.00    -0.134 OA 
HETATM    2  C   UNL     1     -10.093   6.312  69.552  1.00  0.00    -0.176 C  
HETATM    3  O   UNL     1     -10.792   5.311  69.635  1.00  0.00    -0.214 OA 
HETATM    4  C   UNL     1     -10.650   7.712  69.388  1.00  0.00    -0.215 C  
ENDROOT
BRANCH   4   5
HETATM    5  S   UNL     1      -9.418   8.839  68.618  1.00  0.00    -0.142 SA 
BRANCH   5   6
HETATM    6  C   UNL     1     -10.318   9.259  67.093  1.00  0.00    -0.260 C  
BRANCH   6   7
HETATM    7  C   UNL     1     -11.026  10.589  67.247  1.00  0.00    -0.260 C  
HETATM    8  O   UNL     1     -11.572  10.912  68.298  1.00  0.00    -0.391 OA 
HETATM    9  N   UNL     1     -10.960  11.412  66.138  1.00  0.00    -0.270 N  
HETATM   10  H   UNL     1     -10.539  11.063  65.277  1.00  0.00     0.000 HD 
BRANCH   9  11
HETATM   11  C   UNL     1     -11.486  12.775  66.180  1.00  0.00    -0.351 C  
HETATM   12  C   UNL     1     -10.426  13.871  66.231  1.00  0.00    -0.287 C  
HETATM   13  C   UNL     1     -11.074  15.172  65.796  1.00  0.00    -0.330 C  
HETATM   14  S   UNL     1     -12.198  14.730  64.445  1.00  0.00    -0.294 SA 
HETATM   15  C   UNL     1     -12.401  13.073  64.996  1.00  0.00    -0.473 C  
HETATM   16  O   UNL     1     -13.221  12.299  64.522  1.00  0.00    -0.799 OA 
ENDBRANCH   9  11
ENDBRANCH   6   7
ENDBRANCH   5   6
ENDBRANCH   4   5
TORSDOF 4
ENDMDL
MODEL      112
REMARK 921   NORMALIZED FREE ENERGY PREDICTED BY IDOCK:   -3.66 KCAL/MOL
REMARK 922        TOTAL FREE ENERGY PREDICTED BY IDOCK:   -4.83 KCAL/MOL
REMARK 923 INTER-LIGAND FREE ENERGY PREDICTED BY IDOCK:   -4.54 KCAL/MOL
REMARK 924 INTRA-LIGAND FREE ENERGY PREDICTED BY IDOCK:   -0.29 KCAL/MOL
REMARK 927      BINDING AFFINITY PREDICTED BY RF-SCORE:    0.00 PKD
ROOT
HETATM    1  O   UNL     1     -14.079   7.486  71.920  1.00  0.00    -0.354 OA 
HETATM    2  C   UNL     1     -13.188   8.505  71.837  1.00  0.00    -0.369 C  
HETATM    3  O   UNL     1     -13.540   9.647  71.574  1.00  0.00    -0.361 OA 
HETATM    4  C   UNL     1     -11.760   8.124  72.171  1.00  0.00    -0.359 C  
ENDROOT
BRANCH   4   5
HETATM    5  S   UNL     1     -11.442   6.345  71.830  1.00  0.00    -0.309 SA 
BRANCH   5   6
HETATM    6  C   UNL     1     -11.529   6.376  70.012  1.00  0.00    -0.428 C  
BRANCH   6   7
HETATM    7  C   UNL     1     -10.485   7.316  69.449  1.00  0.00    -0.216 C  
HETATM    8  O   UNL     1      -9.330   7.327  69.869  1.00  0.00    -0.154 OA 
HETATM    9  N   UNL     1     -10.922   8.112  68.406  1.00  0.00    -0.426 N  
HETATM   10  H   UNL     1     -11.906   8.095  68.141  1.00  0.00     0.000 HD 
BRANCH   9  11
HETATM   11  C   UNL     1      -9.996   8.978  67.680  1.00  0.00    -0.201 C  
HETATM   12  C   UNL     1      -9.187   8.281  66.590  1.00  0.00    -0.224 C  
HETATM   13  C   UNL     1      -8.659   9.344  65.644  1.00  0.00    -0.142 C  
HETATM   14  S   UNL     1      -9.996  10.556  65.477  1.00  0.00    -0.287 SA 
HETATM   15  C   UNL     1     -10.705  10.166  67.038  1.00  0.00    -0.196 C  
HETATM   16  O   UNL     1     -11.604  10.817  67.553  1.00  0.00    -0.510 OA 
ENDBRANCH   9  11
ENDBRANCH   6   7
ENDBRANCH   5   6
ENDBRANCH   4   5
TORSDOF 4
ENDMDL
MODEL      113
REMARK 921   NORMALIZED FREE ENERGY PREDICTED BY IDOCK:   -3.65 KCAL/MOL
REMARK 922        TOTAL FREE ENERGY PREDICTED BY IDOCK:   -4.82 KCAL/MOL
REMARK 923 INTER-LIGAND FREE ENERGY PREDICTED BY IDOCK:   -4.35 KCAL/MOL
REMARK 924 INTRA-LIGAND FREE ENERGY PREDICTED BY IDOCK:   -0.48 KCAL/MOL
REMARK 927      BINDING AFFINITY PREDICTED BY RF-SCORE:    0.00 PKD
ROOT
HETATM    1  O   UNL     1      -9.888   8.626  68.088  1.00  0.00    -0.155 OA 
HETATM    2  C   UNL     1      -8.981   9.134  68.959  1.00  0.00    -0.143 C  
HETATM    3  O   UNL     1      -7.790   9.198  68.683  1.00  0.00    -0.094 OA 
HETATM    4  C   UNL     1      -9.573   9.676  70.244  1.00  0.00    -0.254 C  
ENDROOT
BRANCH   4   5
HETATM    5  S   UNL     1     -11.157   8.839  70.658  1.00  0.00    -0.250 SA 
BRANCH   5   6
HETATM    6  C   UNL     1     -12.192  10.304  70.963  1.00  0.00    -0.384 C  
BRANCH   6   7
HETATM    7  C   UNL     1     -12.074  11.283  69.813  1.00  0.00    -0.325 C  
HETATM    8  O   UNL     1     -12.354  10.962  68.660  1.00  0.00    -0.501 OA 
HETATM    9  N   UNL     1     -11.680  12.558  70.174  1.00  0.00    -0.537 N  
HETATM   10  H   UNL     1     -11.410  12.745  71.139  1.00  0.00     0.000 HD 
BRANCH   9  11
HETATM   11  C   UNL     1     -11.644  13.641  69.194  1.00  0.00    -0.309 C  
HETATM   12  C   UNL     1     -12.060  15.007  69.731  1.00  0.00    -0.354 C  
HETATM   13  C   UNL     1     -11.530  16.067  68.783  1.00  0.00    -0.375 C  
HETATM   14  S   UNL     1      -9.889  15.489  68.275  1.00  0.00    -0.215 SA 
HETATM   15  C   UNL     1     -10.264  13.796  68.561  1.00  0.00    -0.235 C  
HETATM   16  O   UNL     1      -9.531  12.875  68.228  1.00  0.00    -0.217 OA 
ENDBRANCH   9  11
ENDBRANCH   6   7
ENDBRANCH   5   6
ENDBRANCH   4   5
TORSDOF 4
ENDMDL
MODEL      114
REMARK 921   NORMALIZED FREE ENERGY PREDICTED BY IDOCK:   -3.63 KCAL/MOL
REMARK 922        TOTAL FREE ENERGY PREDICTED BY IDOCK:   -4.80 KCAL/MOL
REMARK 923 INTER-LIGAND FREE ENERGY PREDICTED BY IDOCK:   -4.29 KCAL/MOL
REMARK 924 INTRA-LIGAND FREE ENERGY PREDICTED BY IDOCK:   -0.51 KCAL/MOL
REMARK 927      BINDING AFFINITY PREDICTED BY RF-SCORE:    0.00 PKD
ROOT
HETATM    1  O   UNL     1      -7.367  17.119  67.118  1.00  0.00    -0.149 OA 
HETATM    2  C   UNL     1      -7.101  18.273  66.458  1.00  0.00    -0.224 C  
HETATM    3  O   UNL     1      -6.192  18.353  65.642  1.00  0.00    -0.215 OA 
HETATM    4  C   UNL     1      -8.059  19.408  66.758  1.00  0.00    -0.284 C  
ENDROOT
BRANCH   4   5
HETATM    5  S   UNL     1      -8.800  19.235  68.432  1.00  0.00    -0.359 SA 
BRANCH   5   6
HETATM    6  C   UNL     1     -10.430  18.573  67.963  1.00  0.00    -0.360 C  
BRANCH   6   7
HETATM    7  C   UNL     1     -10.581  17.148  68.453  1.00  0.00    -0.371 C  
HETATM    8  O   UNL     1     -10.701  16.884  69.647  1.00  0.00    -0.318 OA 
HETATM    9  N   UNL     1     -10.623  16.193  67.454  1.00  0.00    -0.311 N  
HETATM   10  H   UNL     1     -10.463  16.471  66.486  1.00  0.00     0.000 HD 
BRANCH   9  11
HETATM   11  C   UNL     1     -10.892  14.791  67.764  1.00  0.00    -0.278 C  
HETATM   12  C   UNL     1     -11.896  14.110  66.839  1.00  0.00    -0.458 C  
HETATM   13  C   UNL     1     -11.713  12.609  66.970  1.00  0.00    -0.369 C  
HETATM   14  S   UNL     1      -9.925  12.346  67.109  1.00  0.00    -0.208 SA 
HETATM   15  C   UNL     1      -9.619  13.949  67.763  1.00  0.00    -0.222 C  
HETATM   16  O   UNL     1      -8.538  14.300  68.213  1.00  0.00    -0.162 OA 
ENDBRANCH   9  11
ENDBRANCH   6   7
ENDBRANCH   5   6
ENDBRANCH   4   5
TORSDOF 4
ENDMDL
MODEL      115
REMARK 921   NORMALIZED FREE ENERGY PREDICTED BY IDOCK:   -3.62 KCAL/MOL
REMARK 922        TOTAL FREE ENERGY PREDICTED BY IDOCK:   -4.79 KCAL/MOL
REMARK 923 INTER-LIGAND FREE ENERGY PREDICTED BY IDOCK:   -4.56 KCAL/MOL
REMARK 924 INTRA-LIGAND FREE ENERGY PREDICTED BY IDOCK:   -0.23 KCAL/MOL
REMARK 927      BINDING AFFINITY PREDICTED BY RF-SCORE:    0.00 PKD
ROOT
HETATM    1  O   UNL     1     -11.223  14.540  65.586  1.00  0.00    -0.320 OA 
HETATM    2  C   UNL     1     -12.192  13.607  65.766  1.00  0.00    -0.464 C  
HETATM    3  O   UNL     1     -13.092  13.450  64.952  1.00  0.00    -0.723 OA 
HETATM    4  C   UNL     1     -12.017  12.745  66.999  1.00  0.00    -0.295 C  
ENDROOT
BRANCH   4   5
HETATM    5  S   UNL     1     -11.073  13.628  68.307  1.00  0.00    -0.271 SA 
BRANCH   5   6
HETATM    6  C   UNL     1     -11.963  13.019  69.773  1.00  0.00    -0.308 C  
BRANCH   6   7
HETATM    7  C   UNL     1     -11.703  11.540  69.973  1.00  0.00    -0.332 C  
HETATM    8  O   UNL     1     -12.534  10.802  70.496  1.00  0.00    -0.320 OA 
HETATM    9  N   UNL     1     -10.491  11.093  69.479  1.00  0.00    -0.439 N  
HETATM   10  H   UNL     1      -9.822  11.766  69.105  1.00  0.00     0.000 HD 
BRANCH   9  11
HETATM   11  C   UNL     1     -10.154   9.671  69.486  1.00  0.00    -0.209 C  
HETATM   12  C   UNL     1     -10.460   8.934  68.185  1.00  0.00    -0.254 C  
HETATM   13  C   UNL     1      -9.648   7.651  68.170  1.00  0.00    -0.149 C  
HETATM   14  S   UNL     1      -8.041   8.084  68.890  1.00  0.00    -0.125 SA 
HETATM   15  C   UNL     1      -8.684   9.432  69.817  1.00  0.00    -0.181 C  
HETATM   16  O   UNL     1      -8.040  10.041  70.659  1.00  0.00    -0.166 OA 
ENDBRANCH   9  11
ENDBRANCH   6   7
ENDBRANCH   5   6
ENDBRANCH   4   5
TORSDOF 4
ENDMDL
MODEL      116
REMARK 921   NORMALIZED FREE ENERGY PREDICTED BY IDOCK:   -3.61 KCAL/MOL
REMARK 922        TOTAL FREE ENERGY PREDICTED BY IDOCK:   -4.77 KCAL/MOL
REMARK 923 INTER-LIGAND FREE ENERGY PREDICTED BY IDOCK:   -4.98 KCAL/MOL
REMARK 924 INTRA-LIGAND FREE ENERGY PREDICTED BY IDOCK:    0.22 KCAL/MOL
REMARK 927      BINDING AFFINITY PREDICTED BY RF-SCORE:    0.00 PKD
ROOT
HETATM    1  O   UNL     1     -12.497  14.278  65.548  1.00  0.00    -0.444 OA 
HETATM    2  C   UNL     1     -12.489  12.967  65.199  1.00  0.00    -0.501 C  
HETATM    3  O   UNL     1     -13.279  12.514  64.382  1.00  0.00    -0.782 OA 
HETATM    4  C   UNL     1     -11.388  12.149  65.842  1.00  0.00    -0.356 C  
ENDROOT
BRANCH   4   5
HETATM    5  S   UNL     1     -10.868  12.870  67.452  1.00  0.00    -0.256 SA 
BRANCH   5   6
HETATM    6  C   UNL     1      -9.783  11.531  68.036  1.00  0.00    -0.186 C  
BRANCH   6   7
HETATM    7  C   UNL     1     -10.558  10.566  68.909  1.00  0.00    -0.216 C  
HETATM    8  O   UNL     1     -11.406   9.809  68.441  1.00  0.00    -0.087 OA 
HETATM    9  N   UNL     1     -10.200  10.575  70.244  1.00  0.00    -0.364 N  
HETATM   10  H   UNL     1      -9.528  11.265  70.579  1.00  0.00     0.000 HD 
BRANCH   9  11
HETATM   11  C   UNL     1     -10.771   9.612  71.183  1.00  0.00    -0.294 C  
HETATM   12  C   UNL     1     -12.290   9.665  71.314  1.00  0.00    -0.449 C  
HETATM   13  C   UNL     1     -12.757   8.352  71.916  1.00  0.00    -0.355 C  
HETATM   14  S   UNL     1     -11.718   7.073  71.161  1.00  0.00    -0.343 SA 
HETATM   15  C   UNL     1     -10.389   8.176  70.835  1.00  0.00    -0.190 C  
HETATM   16  O   UNL     1      -9.289   7.811  70.443  1.00  0.00    -0.159 OA 
ENDBRANCH   9  11
ENDBRANCH   6   7
ENDBRANCH   5   6
ENDBRANCH   4   5
TORSDOF 4
ENDMDL
MODEL      117
REMARK 921   NORMALIZED FREE ENERGY PREDICTED BY IDOCK:   -3.58 KCAL/MOL
REMARK 922        TOTAL FREE ENERGY PREDICTED BY IDOCK:   -4.73 KCAL/MOL
REMARK 923 INTER-LIGAND FREE ENERGY PREDICTED BY IDOCK:   -4.44 KCAL/MOL
REMARK 924 INTRA-LIGAND FREE ENERGY PREDICTED BY IDOCK:   -0.29 KCAL/MOL
REMARK 927      BINDING AFFINITY PREDICTED BY RF-SCORE:    0.00 PKD
ROOT
HETATM    1  O   UNL     1     -10.554  20.015  66.542  1.00  0.00    -0.448 OA 
HETATM    2  C   UNL     1     -10.421  19.422  67.754  1.00  0.00    -0.441 C  
HETATM    3  O   UNL     1     -10.190  20.071  68.766  1.00  0.00    -0.436 OA 
HETATM    4  C   UNL     1     -10.656  17.925  67.755  1.00  0.00    -0.389 C  
ENDROOT
BRANCH   4   5
HETATM    5  S   UNL     1     -10.281  17.186  66.114  1.00  0.00    -0.295 SA 
BRANCH   5   6
HETATM    6  C   UNL     1      -8.480  16.983  66.289  1.00  0.00    -0.269 C  
BRANCH   6   7
HETATM    7  C   UNL     1      -8.139  15.537  66.580  1.00  0.00    -0.154 C  
HETATM    8  O   UNL     1      -7.024  15.203  66.976  1.00  0.00    -0.221 OA 
HETATM    9  N   UNL     1      -9.185  14.648  66.414  1.00  0.00    -0.393 N  
HETATM   10  H   UNL     1     -10.070  14.980  66.031  1.00  0.00     0.000 HD 
BRANCH   9  11
HETATM   11  C   UNL     1      -9.042  13.240  66.778  1.00  0.00    -0.210 C  
HETATM   12  C   UNL     1      -9.280  12.931  68.254  1.00  0.00    -0.187 C  
HETATM   13  C   UNL     1      -9.567  11.447  68.382  1.00  0.00    -0.197 C  
HETATM   14  S   UNL     1     -10.587  11.021  66.946  1.00  0.00    -0.265 SA 
HETATM   15  C   UNL     1      -9.967  12.341  65.964  1.00  0.00    -0.252 C  
HETATM   16  O   UNL     1     -10.206  12.465  64.771  1.00  0.00    -0.284 OA 
ENDBRANCH   9  11
ENDBRANCH   6   7
ENDBRANCH   5   6
ENDBRANCH   4   5
TORSDOF 4
ENDMDL
MODEL      118
REMARK 921   NORMALIZED FREE ENERGY PREDICTED BY IDOCK:   -3.56 KCAL/MOL
REMARK 922        TOTAL FREE ENERGY PREDICTED BY IDOCK:   -4.71 KCAL/MOL
REMARK 923 INTER-LIGAND FREE ENERGY PREDICTED BY IDOCK:   -4.50 KCAL/MOL
REMARK 924 INTRA-LIGAND FREE ENERGY PREDICTED BY IDOCK:   -0.20 KCAL/MOL
REMARK 927      BINDING AFFINITY PREDICTED BY RF-SCORE:    0.00 PKD
ROOT
HETATM    1  O   UNL     1     -10.843   8.762  67.359  1.00  0.00    -0.213 OA 
HETATM    2  C   UNL     1     -10.012   9.294  66.429  1.00  0.00    -0.286 C  
HETATM    3  O   UNL     1      -9.157   8.620  65.870  1.00  0.00    -0.189 OA 
HETATM    4  C   UNL     1     -10.282  10.748  66.097  1.00  0.00    -0.250 C  
ENDROOT
BRANCH   4   5
HETATM    5  S   UNL     1     -11.069  11.623  67.510  1.00  0.00    -0.296 SA 
BRANCH   5   6
HETATM    6  C   UNL     1     -11.633  13.124  66.647  1.00  0.00    -0.356 C  
BRANCH   6   7
HETATM    7  C   UNL     1     -10.597  14.222  66.767  1.00  0.00    -0.278 C  
HETATM    8  O   UNL     1      -9.410  14.021  66.521  1.00  0.00    -0.278 OA 
HETATM    9  N   UNL     1     -11.102  15.459  67.122  1.00  0.00    -0.318 N  
HETATM   10  H   UNL     1     -12.088  15.548  67.366  1.00  0.00     0.000 HD 
BRANCH   9  11
HETATM   11  C   UNL     1     -10.244  16.641  67.153  1.00  0.00    -0.290 C  
HETATM   12  C   UNL     1     -10.394  17.576  65.956  1.00  0.00    -0.309 C  
HETATM   13  C   UNL     1      -9.834  18.932  66.345  1.00  0.00    -0.375 C  
HETATM   14  S   UNL     1     -10.334  19.190  68.068  1.00  0.00    -0.375 SA 
HETATM   15  C   UNL     1     -10.458  17.471  68.415  1.00  0.00    -0.372 C  
HETATM   16  O   UNL     1     -10.627  17.020  69.539  1.00  0.00    -0.316 OA 
ENDBRANCH   9  11
ENDBRANCH   6   7
ENDBRANCH   5   6
ENDBRANCH   4   5
TORSDOF 4
ENDMDL
MODEL      119
REMARK 921   NORMALIZED FREE ENERGY PREDICTED BY IDOCK:   -3.54 KCAL/MOL
REMARK 922        TOTAL FREE ENERGY PREDICTED BY IDOCK:   -4.68 KCAL/MOL
REMARK 923 INTER-LIGAND FREE ENERGY PREDICTED BY IDOCK:   -4.43 KCAL/MOL
REMARK 924 INTRA-LIGAND FREE ENERGY PREDICTED BY IDOCK:   -0.25 KCAL/MOL
REMARK 927      BINDING AFFINITY PREDICTED BY RF-SCORE:    0.00 PKD
ROOT
HETATM    1  O   UNL     1      -9.791  16.462  65.274  1.00  0.00    -0.482 OA 
HETATM    2  C   UNL     1     -10.802  15.816  64.643  1.00  0.00    -0.227 C  
HETATM    3  O   UNL     1     -11.537  16.390  63.850  1.00  0.00    -1.100 OA 
HETATM    4  C   UNL     1     -10.889  14.333  64.942  1.00  0.00    -0.416 C  
ENDROOT
BRANCH   4   5
HETATM    5  S   UNL     1     -10.184  13.939  66.594  1.00  0.00    -0.281 SA 
BRANCH   5   6
HETATM    6  C   UNL     1     -11.459  12.785  67.189  1.00  0.00    -0.337 C  
BRANCH   6   7
HETATM    7  C   UNL     1     -10.847  11.436  67.502  1.00  0.00    -0.244 C  
HETATM    8  O   UNL     1     -11.141  10.429  66.863  1.00  0.00    -0.170 OA 
HETATM    9  N   UNL     1      -9.908  11.447  68.517  1.00  0.00    -0.195 N  
HETATM   10  H   UNL     1      -9.748  12.305  69.045  1.00  0.00     0.000 HD 
BRANCH   9  11
HETATM   11  C   UNL     1      -9.140  10.247  68.845  1.00  0.00    -0.168 C  
HETATM   12  C   UNL     1      -7.625  10.425  68.808  1.00  0.00    -0.097 C  
HETATM   13  C   UNL     1      -7.000   9.295  69.606  1.00  0.00    -0.056 C  
HETATM   14  S   UNL     1      -8.089   9.047  71.034  1.00  0.00    -0.130 SA 
HETATM   15  C   UNL     1      -9.506   9.691  70.217  1.00  0.00    -0.248 C  
HETATM   16  O   UNL     1     -10.637   9.629  70.678  1.00  0.00    -0.278 OA 
ENDBRANCH   9  11
ENDBRANCH   6   7
ENDBRANCH   5   6
ENDBRANCH   4   5
TORSDOF 4
ENDMDL
MODEL      120
REMARK 921   NORMALIZED FREE ENERGY PREDICTED BY IDOCK:   -3.52 KCAL/MOL
REMARK 922        TOTAL FREE ENERGY PREDICTED BY IDOCK:   -4.66 KCAL/MOL
REMARK 923 INTER-LIGAND FREE ENERGY PREDICTED BY IDOCK:   -4.41 KCAL/MOL
REMARK 924 INTRA-LIGAND FREE ENERGY PREDICTED BY IDOCK:   -0.25 KCAL/MOL
REMARK 927      BINDING AFFINITY PREDICTED BY RF-SCORE:    0.00 PKD
ROOT
HETATM    1  O   UNL     1      -8.157   8.285  65.996  1.00  0.00    -0.100 OA 
HETATM    2  C   UNL     1      -7.935   7.692  67.196  1.00  0.00    -0.117 C  
HETATM    3  O   UNL     1      -7.083   6.825  67.336  1.00  0.00    -0.079 OA 
HETATM    4  C   UNL     1      -8.764   8.244  68.337  1.00  0.00    -0.133 C  
ENDROOT
BRANCH   4   5
HETATM    5  S   UNL     1     -10.346   8.960  67.732  1.00  0.00    -0.238 SA 
BRANCH   5   6
HETATM    6  C   UNL     1     -10.908   9.766  69.264  1.00  0.00    -0.216 C  
BRANCH   6   7
HETATM    7  C   UNL     1     -11.548  11.103  68.952  1.00  0.00    -0.317 C  
HETATM    8  O   UNL     1     -12.135  11.308  67.893  1.00  0.00    -0.634 OA 
HETATM    9  N   UNL     1     -11.458  12.039  69.966  1.00  0.00    -0.522 N  
HETATM   10  H   UNL     1     -10.910  11.827  70.799  1.00  0.00     0.000 HD 
BRANCH   9  11
HETATM   11  C   UNL     1     -12.136  13.330  69.861  1.00  0.00    -0.308 C  
HETATM   12  C   UNL     1     -12.821  13.800  71.141  1.00  0.00    -0.409 C  
HETATM   13  C   UNL     1     -13.048  15.297  71.029  1.00  0.00    -0.482 C  
HETATM   14  S   UNL     1     -11.569  15.955  70.216  1.00  0.00    -0.343 SA 
HETATM   15  C   UNL     1     -11.191  14.439  69.410  1.00  0.00    -0.281 C  
HETATM   16  O   UNL     1     -10.325  14.327  68.554  1.00  0.00    -0.232 OA 
ENDBRANCH   9  11
ENDBRANCH   6   7
ENDBRANCH   5   6
ENDBRANCH   4   5
TORSDOF 4
ENDMDL
MODEL      121
REMARK 921   NORMALIZED FREE ENERGY PREDICTED BY IDOCK:   -3.51 KCAL/MOL
REMARK 922        TOTAL FREE ENERGY PREDICTED BY IDOCK:   -4.65 KCAL/MOL
REMARK 923 INTER-LIGAND FREE ENERGY PREDICTED BY IDOCK:   -4.79 KCAL/MOL
REMARK 924 INTRA-LIGAND FREE ENERGY PREDICTED BY IDOCK:    0.14 KCAL/MOL
REMARK 927      BINDING AFFINITY PREDICTED BY RF-SCORE:    0.00 PKD
ROOT
HETATM    1  O   UNL     1     -10.629  18.711  65.773  1.00  0.00    -0.567 OA 
HETATM    2  C   UNL     1     -10.673  17.406  65.404  1.00  0.00    -0.035 C  
HETATM    3  O   UNL     1     -11.189  17.052  64.352  1.00  0.00    -1.167 OA 
HETATM    4  C   UNL     1      -9.972  16.456  66.354  1.00  0.00    -0.303 C  
ENDROOT
BRANCH   4   5
HETATM    5  S   UNL     1      -9.943  17.123  68.068  1.00  0.00    -0.312 SA 
BRANCH   5   6
HETATM    6  C   UNL     1     -11.520  16.443  68.673  1.00  0.00    -0.224 C  
BRANCH   6   7
HETATM    7  C   UNL     1     -11.561  14.943  68.471  1.00  0.00    -0.323 C  
HETATM    8  O   UNL     1     -12.365  14.415  67.706  1.00  0.00    -0.236 OA 
HETATM    9  N   UNL     1     -10.599  14.237  69.170  1.00  0.00    -0.340 N  
HETATM   10  H   UNL     1      -9.997  14.728  69.830  1.00  0.00     0.000 HD 
BRANCH   9  11
HETATM   11  C   UNL     1     -10.434  12.798  68.978  1.00  0.00     0.014 C  
HETATM   12  C   UNL     1     -11.599  11.946  69.473  1.00  0.00    -0.394 C  
HETATM   13  C   UNL     1     -11.510  10.590  68.798  1.00  0.00    -0.224 C  
HETATM   14  S   UNL     1     -10.979  10.925  67.098  1.00  0.00    -0.238 SA 
HETATM   15  C   UNL     1     -10.189  12.439  67.516  1.00  0.00    -0.209 C  
HETATM   16  O   UNL     1      -9.486  13.070  66.740  1.00  0.00    -0.238 OA 
ENDBRANCH   9  11
ENDBRANCH   6   7
ENDBRANCH   5   6
ENDBRANCH   4   5
TORSDOF 4
ENDMDL
MODEL      122
REMARK 921   NORMALIZED FREE ENERGY PREDICTED BY IDOCK:   -3.50 KCAL/MOL
REMARK 922        TOTAL FREE ENERGY PREDICTED BY IDOCK:   -4.64 KCAL/MOL
REMARK 923 INTER-LIGAND FREE ENERGY PREDICTED BY IDOCK:   -4.42 KCAL/MOL
REMARK 924 INTRA-LIGAND FREE ENERGY PREDICTED BY IDOCK:   -0.22 KCAL/MOL
REMARK 927      BINDING AFFINITY PREDICTED BY RF-SCORE:    0.00 PKD
ROOT
HETATM    1  O   UNL     1     -13.996  13.300  72.599  1.00  0.00    -0.741 OA 
HETATM    2  C   UNL     1     -13.391  13.749  71.471  1.00  0.00    -0.318 C  
HETATM    3  O   UNL     1     -13.573  14.884  71.052  1.00  0.00    -0.389 OA 
HETATM    4  C   UNL     1     -12.429  12.766  70.836  1.00  0.00    -0.283 C  
ENDROOT
BRANCH   4   5
HETATM    5  S   UNL     1     -12.886  11.029  71.231  1.00  0.00    -0.392 SA 
BRANCH   5   6
HETATM    6  C   UNL     1     -11.310  10.212  70.829  1.00  0.00    -0.354 C  
BRANCH   6   7
HETATM    7  C   UNL     1     -11.222   8.867  71.519  1.00  0.00    -0.326 C  
HETATM    8  O   UNL     1     -11.971   8.565  72.445  1.00  0.00    -0.376 OA 
HETATM    9  N   UNL     1     -10.276   8.006  70.992  1.00  0.00    -0.190 N  
HETATM   10  H   UNL     1      -9.649   8.337  70.259  1.00  0.00     0.000 HD 
BRANCH   9  11
HETATM   11  C   UNL     1     -10.162   6.630  71.470  1.00  0.00    -0.197 C  
HETATM   12  C   UNL     1     -10.534   5.562  70.446  1.00  0.00    -0.356 C  
HETATM   13  C   UNL     1      -9.928   4.246  70.898  1.00  0.00    -0.155 C  
HETATM   14  S   UNL     1      -8.299   4.666  71.573  1.00  0.00    -0.105 SA 
HETATM   15  C   UNL     1      -8.758   6.314  71.977  1.00  0.00    -0.134 C  
HETATM   16  O   UNL     1      -8.056   7.068  72.636  1.00  0.00    -0.106 OA 
ENDBRANCH   9  11
ENDBRANCH   6   7
ENDBRANCH   5   6
ENDBRANCH   4   5
TORSDOF 4
ENDMDL
MODEL      123
REMARK 921   NORMALIZED FREE ENERGY PREDICTED BY IDOCK:   -3.49 KCAL/MOL
REMARK 922        TOTAL FREE ENERGY PREDICTED BY IDOCK:   -4.63 KCAL/MOL
REMARK 923 INTER-LIGAND FREE ENERGY PREDICTED BY IDOCK:   -4.21 KCAL/MOL
REMARK 924 INTRA-LIGAND FREE ENERGY PREDICTED BY IDOCK:   -0.41 KCAL/MOL
REMARK 927      BINDING AFFINITY PREDICTED BY RF-SCORE:    0.00 PKD
ROOT
HETATM    1  O   UNL     1     -10.858  12.756  63.600  1.00  0.00    -0.412 OA 
HETATM    2  C   UNL     1     -12.163  12.494  63.864  1.00  0.00    -0.503 C  
HETATM    3  O   UNL     1     -12.857  11.844  63.094  1.00  0.00    -0.636 OA 
HETATM    4  C   UNL     1     -12.650  13.000  65.207  1.00  0.00    -0.457 C  
ENDROOT
BRANCH   4   5
HETATM    5  S   UNL     1     -11.677  14.456  65.767  1.00  0.00    -0.351 SA 
BRANCH   5   6
HETATM    6  C   UNL     1     -11.683  14.141  67.560  1.00  0.00    -0.386 C  
BRANCH   6   7
HETATM    7  C   UNL     1     -10.656  13.085  67.914  1.00  0.00    -0.229 C  
HETATM    8  O   UNL     1     -10.765  12.388  68.919  1.00  0.00    -0.222 OA 
HETATM    9  N   UNL     1      -9.631  12.943  66.997  1.00  0.00    -0.224 N  
HETATM   10  H   UNL     1      -9.567  13.589  66.211  1.00  0.00     0.000 HD 
BRANCH   9  11
HETATM   11  C   UNL     1      -8.637  11.881  67.138  1.00  0.00    -0.172 C  
HETATM   12  C   UNL     1      -8.548  10.924  65.952  1.00  0.00    -0.179 C  
HETATM   13  C   UNL     1      -7.209  10.212  66.023  1.00  0.00    -0.118 C  
HETATM   14  S   UNL     1      -6.020  11.464  66.574  1.00  0.00    -0.087 SA 
HETATM   15  C   UNL     1      -7.238  12.435  67.389  1.00  0.00    -0.148 C  
HETATM   16  O   UNL     1      -6.972  13.386  68.110  1.00  0.00    -0.089 OA 
ENDBRANCH   9  11
ENDBRANCH   6   7
ENDBRANCH   5   6
ENDBRANCH   4   5
TORSDOF 4
ENDMDL
MODEL      124
REMARK 921   NORMALIZED FREE ENERGY PREDICTED BY IDOCK:   -3.49 KCAL/MOL
REMARK 922        TOTAL FREE ENERGY PREDICTED BY IDOCK:   -4.62 KCAL/MOL
REMARK 923 INTER-LIGAND FREE ENERGY PREDICTED BY IDOCK:   -4.34 KCAL/MOL
REMARK 924 INTRA-LIGAND FREE ENERGY PREDICTED BY IDOCK:   -0.28 KCAL/MOL
REMARK 927      BINDING AFFINITY PREDICTED BY RF-SCORE:    0.00 PKD
ROOT
HETATM    1  O   UNL     1     -10.919  16.744  64.805  1.00  0.00    -0.732 OA 
HETATM    2  C   UNL     1     -10.254  16.821  65.985  1.00  0.00    -0.346 C  
HETATM    3  O   UNL     1      -9.323  17.599  66.149  1.00  0.00    -0.445 OA 
HETATM    4  C   UNL     1     -10.805  15.932  67.080  1.00  0.00    -0.267 C  
ENDROOT
BRANCH   4   5
HETATM    5  S   UNL     1     -11.658  14.459  66.384  1.00  0.00    -0.375 SA 
BRANCH   5   6
HETATM    6  C   UNL     1     -11.383  13.288  67.749  1.00  0.00    -0.295 C  
BRANCH   6   7
HETATM    7  C   UNL     1     -11.100  11.902  67.208  1.00  0.00    -0.288 C  
HETATM    8  O   UNL     1     -11.882  10.970  67.377  1.00  0.00    -0.523 OA 
HETATM    9  N   UNL     1      -9.932  11.793  66.477  1.00  0.00    -0.200 N  
HETATM   10  H   UNL     1      -9.299  12.590  66.419  1.00  0.00     0.000 HD 
BRANCH   9  11
HETATM   11  C   UNL     1      -9.589  10.551  65.786  1.00  0.00    -0.210 C  
HETATM   12  C   UNL     1     -10.041  10.481  64.330  1.00  0.00    -0.395 C  
HETATM   13  C   UNL     1      -9.229   9.401  63.638  1.00  0.00     0.116 C  
HETATM   14  S   UNL     1      -7.552   9.545  64.310  1.00  0.00    -0.129 SA 
HETATM   15  C   UNL     1      -8.090  10.272  65.818  1.00  0.00    -0.149 C  
HETATM   16  O   UNL     1      -7.355  10.460  66.777  1.00  0.00    -0.102 OA 
ENDBRANCH   9  11
ENDBRANCH   6   7
ENDBRANCH   5   6
ENDBRANCH   4   5
TORSDOF 4
ENDMDL
MODEL      125
REMARK 921   NORMALIZED FREE ENERGY PREDICTED BY IDOCK:   -3.48 KCAL/MOL
REMARK 922        TOTAL FREE ENERGY PREDICTED BY IDOCK:   -4.62 KCAL/MOL
REMARK 923 INTER-LIGAND FREE ENERGY PREDICTED BY IDOCK:   -5.12 KCAL/MOL
REMARK 924 INTRA-LIGAND FREE ENERGY PREDICTED BY IDOCK:    0.50 KCAL/MOL
REMARK 927      BINDING AFFINITY PREDICTED BY RF-SCORE:    0.00 PKD
ROOT
HETATM    1  O   UNL     1     -14.304  13.360  72.616  1.00  0.00    -0.709 OA 
HETATM    2  C   UNL     1     -13.679  14.303  71.869  1.00  0.00    -0.436 C  
HETATM    3  O   UNL     1     -14.088  15.455  71.813  1.00  0.00    -0.493 OA 
HETATM    4  C   UNL     1     -12.410  13.832  71.188  1.00  0.00    -0.345 C  
ENDROOT
BRANCH   4   5
HETATM    5  S   UNL     1     -12.449  12.020  70.877  1.00  0.00    -0.190 SA 
BRANCH   5   6
HETATM    6  C   UNL     1     -12.134  12.024  69.084  1.00  0.00    -0.183 C  
BRANCH   6   7
HETATM    7  C   UNL     1     -11.385  13.277  68.683  1.00  0.00    -0.288 C  
HETATM    8  O   UNL     1     -10.160  13.343  68.736  1.00  0.00    -0.192 OA 
HETATM    9  N   UNL     1     -12.183  14.304  68.212  1.00  0.00    -0.591 N  
HETATM   10  H   UNL     1     -13.197  14.207  68.243  1.00  0.00     0.000 HD 
BRANCH   9  11
HETATM   11  C   UNL     1     -11.594  15.526  67.669  1.00  0.00    -0.142 C  
HETATM   12  C   UNL     1     -10.593  16.220  68.590  1.00  0.00    -0.297 C  
HETATM   13  C   UNL     1      -9.743  17.150  67.744  1.00  0.00    -0.271 C  
HETATM   14  S   UNL     1      -9.445  16.262  66.192  1.00  0.00    -0.346 SA 
HETATM   15  C   UNL     1     -10.899  15.284  66.333  1.00  0.00    -0.317 C  
HETATM   16  O   UNL     1     -11.317  14.562  65.438  1.00  0.00    -0.322 OA 
ENDBRANCH   9  11
ENDBRANCH   6   7
ENDBRANCH   5   6
ENDBRANCH   4   5
TORSDOF 4
ENDMDL
MODEL      126
REMARK 921   NORMALIZED FREE ENERGY PREDICTED BY IDOCK:   -3.47 KCAL/MOL
REMARK 922        TOTAL FREE ENERGY PREDICTED BY IDOCK:   -4.60 KCAL/MOL
REMARK 923 INTER-LIGAND FREE ENERGY PREDICTED BY IDOCK:   -3.98 KCAL/MOL
REMARK 924 INTRA-LIGAND FREE ENERGY PREDICTED BY IDOCK:   -0.62 KCAL/MOL
REMARK 927      BINDING AFFINITY PREDICTED BY RF-SCORE:    0.00 PKD
ROOT
HETATM    1  O   UNL     1     -11.510   8.404  70.795  1.00  0.00    -0.273 OA 
HETATM    2  C   UNL     1     -12.041   7.166  70.957  1.00  0.00    -0.350 C  
HETATM    3  O   UNL     1     -13.086   6.989  71.567  1.00  0.00    -0.380 OA 
HETATM    4  C   UNL     1     -11.279   6.056  70.260  1.00  0.00    -0.322 C  
ENDROOT
BRANCH   4   5
HETATM    5  S   UNL     1      -9.501   6.482  70.066  1.00  0.00    -0.156 SA 
BRANCH   5   6
HETATM    6  C   UNL     1      -9.350   6.293  68.262  1.00  0.00    -0.112 C  
BRANCH   6   7
HETATM    7  C   UNL     1     -10.243   7.288  67.550  1.00  0.00    -0.221 C  
HETATM    8  O   UNL     1     -11.195   6.926  66.863  1.00  0.00    -0.353 OA 
HETATM    9  N   UNL     1      -9.930   8.615  67.778  1.00  0.00    -0.179 N  
HETATM   10  H   UNL     1      -9.095   8.849  68.314  1.00  0.00     0.000 HD 
BRANCH   9  11
HETATM   11  C   UNL     1     -10.778   9.688  67.262  1.00  0.00    -0.214 C  
HETATM   12  C   UNL     1     -11.095  10.794  68.264  1.00  0.00    -0.327 C  
HETATM   13  C   UNL     1     -11.548  12.016  67.487  1.00  0.00    -0.330 C  
HETATM   14  S   UNL     1     -10.495  12.076  66.014  1.00  0.00    -0.260 SA 
HETATM   15  C   UNL     1     -10.178  10.347  66.023  1.00  0.00    -0.228 C  
HETATM   16  O   UNL     1      -9.609   9.759  65.114  1.00  0.00    -0.273 OA 
ENDBRANCH   9  11
ENDBRANCH   6   7
ENDBRANCH   5   6
ENDBRANCH   4   5
TORSDOF 4
ENDMDL
MODEL      127
REMARK 921   NORMALIZED FREE ENERGY PREDICTED BY IDOCK:   -3.45 KCAL/MOL
REMARK 922        TOTAL FREE ENERGY PREDICTED BY IDOCK:   -4.57 KCAL/MOL
REMARK 923 INTER-LIGAND FREE ENERGY PREDICTED BY IDOCK:   -4.34 KCAL/MOL
REMARK 924 INTRA-LIGAND FREE ENERGY PREDICTED BY IDOCK:   -0.24 KCAL/MOL
REMARK 927      BINDING AFFINITY PREDICTED BY RF-SCORE:    0.00 PKD
ROOT
HETATM    1  O   UNL     1      -9.432   9.366  70.611  1.00  0.00    -0.251 OA 
HETATM    2  C   UNL     1      -9.154   8.660  69.487  1.00  0.00    -0.146 C  
HETATM    3  O   UNL     1      -8.223   7.868  69.439  1.00  0.00    -0.126 OA 
HETATM    4  C   UNL     1     -10.126   8.880  68.346  1.00  0.00    -0.189 C  
ENDROOT
BRANCH   4   5
HETATM    5  S   UNL     1     -10.914  10.539  68.446  1.00  0.00    -0.276 SA 
BRANCH   5   6
HETATM    6  C   UNL     1     -10.835  11.007  66.688  1.00  0.00    -0.225 C  
BRANCH   6   7
HETATM    7  C   UNL     1     -11.352  12.417  66.494  1.00  0.00    -0.340 C  
HETATM    8  O   UNL     1     -12.373  12.648  65.851  1.00  0.00    -0.593 OA 
HETATM    9  N   UNL     1     -10.616  13.398  67.133  1.00  0.00    -0.258 N  
HETATM   10  H   UNL     1      -9.748  13.147  67.605  1.00  0.00     0.000 HD 
BRANCH   9  11
HETATM   11  C   UNL     1     -11.063  14.789  67.142  1.00  0.00    -0.333 C  
HETATM   12  C   UNL     1     -10.806  15.538  68.446  1.00  0.00    -0.273 C  
HETATM   13  C   UNL     1     -10.871  17.026  68.154  1.00  0.00    -0.338 C  
HETATM   14  S   UNL     1     -10.081  17.240  66.537  1.00  0.00    -0.317 SA 
HETATM   15  C   UNL     1     -10.435  15.600  66.013  1.00  0.00    -0.331 C  
HETATM   16  O   UNL     1     -10.255  15.202  64.870  1.00  0.00    -0.341 OA 
ENDBRANCH   9  11
ENDBRANCH   6   7
ENDBRANCH   5   6
ENDBRANCH   4   5
TORSDOF 4
ENDMDL
MODEL      128
REMARK 921   NORMALIZED FREE ENERGY PREDICTED BY IDOCK:   -3.45 KCAL/MOL
REMARK 922        TOTAL FREE ENERGY PREDICTED BY IDOCK:   -4.57 KCAL/MOL
REMARK 923 INTER-LIGAND FREE ENERGY PREDICTED BY IDOCK:   -4.75 KCAL/MOL
REMARK 924 INTRA-LIGAND FREE ENERGY PREDICTED BY IDOCK:    0.18 KCAL/MOL
REMARK 927      BINDING AFFINITY PREDICTED BY RF-SCORE:    0.00 PKD
ROOT
HETATM    1  O   UNL     1     -10.695  16.457  67.383  1.00  0.00    -0.322 OA 
HETATM    2  C   UNL     1      -9.967  16.068  66.306  1.00  0.00    -0.310 C  
HETATM    3  O   UNL     1      -9.103  16.786  65.821  1.00  0.00    -0.515 OA 
HETATM    4  C   UNL     1     -10.261  14.664  65.819  1.00  0.00    -0.340 C  
ENDROOT
BRANCH   4   5
HETATM    5  S   UNL     1     -11.977  14.153  66.239  1.00  0.00    -0.433 SA 
BRANCH   5   6
HETATM    6  C   UNL     1     -11.874  12.391  65.797  1.00  0.00    -0.406 C  
BRANCH   6   7
HETATM    7  C   UNL     1     -11.340  11.584  66.962  1.00  0.00    -0.269 C  
HETATM    8  O   UNL     1     -12.009  11.390  67.974  1.00  0.00    -0.613 OA 
HETATM    9  N   UNL     1     -10.078  11.053  66.770  1.00  0.00    -0.213 N  
HETATM   10  H   UNL     1      -9.553  11.296  65.930  1.00  0.00     0.000 HD 
BRANCH   9  11
HETATM   11  C   UNL     1      -9.484  10.149  67.753  1.00  0.00    -0.144 C  
HETATM   12  C   UNL     1      -9.402  10.708  69.171  1.00  0.00    -0.174 C  
HETATM   13  C   UNL     1      -9.228   9.541  70.126  1.00  0.00    -0.244 C  
HETATM   14  S   UNL     1     -10.283   8.218  69.477  1.00  0.00    -0.213 SA 
HETATM   15  C   UNL     1     -10.222   8.816  67.825  1.00  0.00    -0.228 C  
HETATM   16  O   UNL     1     -10.661   8.197  66.866  1.00  0.00    -0.329 OA 
ENDBRANCH   9  11
ENDBRANCH   6   7
ENDBRANCH   5   6
ENDBRANCH   4   5
TORSDOF 4
ENDMDL
MODEL      129
REMARK 921   NORMALIZED FREE ENERGY PREDICTED BY IDOCK:   -3.44 KCAL/MOL
REMARK 922        TOTAL FREE ENERGY PREDICTED BY IDOCK:   -4.57 KCAL/MOL
REMARK 923 INTER-LIGAND FREE ENERGY PREDICTED BY IDOCK:   -4.47 KCAL/MOL
REMARK 924 INTRA-LIGAND FREE ENERGY PREDICTED BY IDOCK:   -0.10 KCAL/MOL
REMARK 927      BINDING AFFINITY PREDICTED BY RF-SCORE:    0.00 PKD
ROOT
HETATM    1  O   UNL     1     -10.946  17.194  65.449  1.00  0.00    -0.363 OA 
HETATM    2  C   UNL     1     -11.298  16.116  64.705  1.00  0.00    -0.282 C  
HETATM    3  O   UNL     1     -11.971  16.229  63.689  1.00  0.00    -0.840 OA 
HETATM    4  C   UNL     1     -10.731  14.799  65.192  1.00  0.00    -0.415 C  
ENDROOT
BRANCH   4   5
HETATM    5  S   UNL     1     -10.405  14.836  67.001  1.00  0.00    -0.258 SA 
BRANCH   5   6
HETATM    6  C   UNL     1      -8.769  15.634  66.988  1.00  0.00    -0.230 C  
BRANCH   6   7
HETATM    7  C   UNL     1      -8.609  16.528  68.199  1.00  0.00    -0.193 C  
HETATM    8  O   UNL     1      -9.537  16.737  68.977  1.00  0.00    -0.259 OA 
HETATM    9  N   UNL     1      -7.337  17.040  68.378  1.00  0.00    -0.202 N  
HETATM   10  H   UNL     1      -6.625  16.874  67.668  1.00  0.00     0.000 HD 
BRANCH   9  11
HETATM   11  C   UNL     1      -6.998  17.816  69.569  1.00  0.00     0.020 C  
HETATM   12  C   UNL     1      -5.619  17.524  70.154  1.00  0.00    -0.249 C  
HETATM   13  C   UNL     1      -5.230  18.691  71.044  1.00  0.00    -0.282 C  
HETATM   14  S   UNL     1      -5.819  20.175  70.187  1.00  0.00    -0.350 SA 
HETATM   15  C   UNL     1      -7.084  19.318  69.319  1.00  0.00    -0.297 C  
HETATM   16  O   UNL     1      -7.950  19.878  68.661  1.00  0.00    -0.267 OA 
ENDBRANCH   9  11
ENDBRANCH   6   7
ENDBRANCH   5   6
ENDBRANCH   4   5
TORSDOF 4
ENDMDL
MODEL      130
REMARK 921   NORMALIZED FREE ENERGY PREDICTED BY IDOCK:   -3.44 KCAL/MOL
REMARK 922        TOTAL FREE ENERGY PREDICTED BY IDOCK:   -4.56 KCAL/MOL
REMARK 923 INTER-LIGAND FREE ENERGY PREDICTED BY IDOCK:   -4.24 KCAL/MOL
REMARK 924 INTRA-LIGAND FREE ENERGY PREDICTED BY IDOCK:   -0.32 KCAL/MOL
REMARK 927      BINDING AFFINITY PREDICTED BY RF-SCORE:    0.00 PKD
ROOT
HETATM    1  O   UNL     1     -13.570   9.166  72.618  1.00  0.00    -0.465 OA 
HETATM    2  C   UNL     1     -12.754   9.552  71.606  1.00  0.00    -0.388 C  
HETATM    3  O   UNL     1     -13.181  10.155  70.630  1.00  0.00    -0.336 OA 
HETATM    4  C   UNL     1     -11.286   9.246  71.825  1.00  0.00    -0.367 C  
ENDROOT
BRANCH   4   5
HETATM    5  S   UNL     1     -11.062   7.799  72.937  1.00  0.00    -0.341 SA 
BRANCH   5   6
HETATM    6  C   UNL     1     -11.544   6.470  71.790  1.00  0.00    -0.312 C  
BRANCH   6   7
HETATM    7  C   UNL     1     -10.485   6.283  70.724  1.00  0.00    -0.222 C  
HETATM    8  O   UNL     1      -9.288   6.395  70.976  1.00  0.00    -0.163 OA 
HETATM    9  N   UNL     1     -10.972   5.932  69.479  1.00  0.00    -0.372 N  
HETATM   10  H   UNL     1     -11.979   5.909  69.321  1.00  0.00     0.000 HD 
BRANCH   9  11
HETATM   11  C   UNL     1     -10.065   5.595  68.384  1.00  0.00    -0.173 C  
HETATM   12  C   UNL     1      -9.575   4.150  68.378  1.00  0.00    -0.190 C  
HETATM   13  C   UNL     1      -9.064   3.833  66.984  1.00  0.00    -0.162 C  
HETATM   14  S   UNL     1     -10.207   4.657  65.846  1.00  0.00    -0.253 SA 
HETATM   15  C   UNL     1     -10.684   5.877  67.018  1.00  0.00    -0.318 C  
HETATM   16  O   UNL     1     -11.368   6.852  66.739  1.00  0.00    -0.181 OA 
ENDBRANCH   9  11
ENDBRANCH   6   7
ENDBRANCH   5   6
ENDBRANCH   4   5
TORSDOF 4
ENDMDL
MODEL      131
REMARK 921   NORMALIZED FREE ENERGY PREDICTED BY IDOCK:   -3.42 KCAL/MOL
REMARK 922        TOTAL FREE ENERGY PREDICTED BY IDOCK:   -4.54 KCAL/MOL
REMARK 923 INTER-LIGAND FREE ENERGY PREDICTED BY IDOCK:   -4.17 KCAL/MOL
REMARK 924 INTRA-LIGAND FREE ENERGY PREDICTED BY IDOCK:   -0.37 KCAL/MOL
REMARK 927      BINDING AFFINITY PREDICTED BY RF-SCORE:    0.00 PKD
ROOT
HETATM    1  O   UNL     1     -10.843  15.413  65.679  1.00  0.00    -0.331 OA 
HETATM    2  C   UNL     1     -11.517  15.526  64.507  1.00  0.00    -0.308 C  
HETATM    3  O   UNL     1     -11.639  16.602  63.937  1.00  0.00    -1.204 OA 
HETATM    4  C   UNL     1     -12.025  14.215  63.941  1.00  0.00    -0.243 C  
ENDROOT
BRANCH   4   5
HETATM    5  S   UNL     1     -12.315  12.978  65.271  1.00  0.00    -0.491 SA 
BRANCH   5   6
HETATM    6  C   UNL     1     -11.597  11.511  64.467  1.00  0.00    -0.073 C  
BRANCH   6   7
HETATM    7  C   UNL     1     -10.181  11.283  64.952  1.00  0.00    -0.286 C  
HETATM    8  O   UNL     1      -9.309  10.834  64.212  1.00  0.00    -0.215 OA 
HETATM    9  N   UNL     1      -9.948  11.664  66.261  1.00  0.00    -0.211 N  
HETATM   10  H   UNL     1     -10.727  11.978  66.839  1.00  0.00     0.000 HD 
BRANCH   9  11
HETATM   11  C   UNL     1      -8.602  11.621  66.828  1.00  0.00    -0.180 C  
HETATM   12  C   UNL     1      -8.238  12.815  67.707  1.00  0.00    -0.176 C  
HETATM   13  C   UNL     1      -7.060  12.416  68.576  1.00  0.00    -0.100 C  
HETATM   14  S   UNL     1      -7.366  10.695  69.054  1.00  0.00    -0.119 SA 
HETATM   15  C   UNL     1      -8.364  10.357  67.647  1.00  0.00    -0.114 C  
HETATM   16  O   UNL     1      -8.751   9.236  67.347  1.00  0.00    -0.118 OA 
ENDBRANCH   9  11
ENDBRANCH   6   7
ENDBRANCH   5   6
ENDBRANCH   4   5
TORSDOF 4
ENDMDL
MODEL      132
REMARK 921   NORMALIZED FREE ENERGY PREDICTED BY IDOCK:   -3.42 KCAL/MOL
REMARK 922        TOTAL FREE ENERGY PREDICTED BY IDOCK:   -4.53 KCAL/MOL
REMARK 923 INTER-LIGAND FREE ENERGY PREDICTED BY IDOCK:   -3.86 KCAL/MOL
REMARK 924 INTRA-LIGAND FREE ENERGY PREDICTED BY IDOCK:   -0.67 KCAL/MOL
REMARK 927      BINDING AFFINITY PREDICTED BY RF-SCORE:    0.00 PKD
ROOT
HETATM    1  O   UNL     1     -11.856   9.995  71.548  1.00  0.00    -0.377 OA 
HETATM    2  C   UNL     1     -12.041   8.651  71.554  1.00  0.00    -0.316 C  
HETATM    3  O   UNL     1     -13.147   8.155  71.718  1.00  0.00    -0.332 OA 
HETATM    4  C   UNL     1     -10.793   7.841  71.269  1.00  0.00    -0.231 C  
ENDROOT
BRANCH   4   5
HETATM    5  S   UNL     1      -9.274   8.753  71.761  1.00  0.00    -0.217 SA 
BRANCH   5   6
HETATM    6  C   UNL     1      -8.390   8.732  70.170  1.00  0.00    -0.131 C  
BRANCH   6   7
HETATM    7  C   UNL     1      -9.205   9.434  69.104  1.00  0.00    -0.155 C  
HETATM    8  O   UNL     1      -9.584   8.851  68.091  1.00  0.00    -0.142 OA 
HETATM    9  N   UNL     1      -9.523  10.749  69.389  1.00  0.00    -0.413 N  
HETATM   10  H   UNL     1      -9.133  11.191  70.221  1.00  0.00     0.000 HD 
BRANCH   9  11
HETATM   11  C   UNL     1     -10.409  11.516  68.516  1.00  0.00    -0.210 C  
HETATM   12  C   UNL     1     -11.414  12.405  69.243  1.00  0.00    -0.349 C  
HETATM   13  C   UNL     1     -11.907  13.454  68.264  1.00  0.00    -0.358 C  
HETATM   14  S   UNL     1     -10.457  13.930  67.287  1.00  0.00    -0.273 SA 
HETATM   15  C   UNL     1      -9.633  12.398  67.543  1.00  0.00    -0.185 C  
HETATM   16  O   UNL     1      -8.609  12.075  66.957  1.00  0.00    -0.174 OA 
ENDBRANCH   9  11
ENDBRANCH   6   7
ENDBRANCH   5   6
ENDBRANCH   4   5
TORSDOF 4
ENDMDL
MODEL      133
REMARK 921   NORMALIZED FREE ENERGY PREDICTED BY IDOCK:   -3.40 KCAL/MOL
REMARK 922        TOTAL FREE ENERGY PREDICTED BY IDOCK:   -4.51 KCAL/MOL
REMARK 923 INTER-LIGAND FREE ENERGY PREDICTED BY IDOCK:   -4.26 KCAL/MOL
REMARK 924 INTRA-LIGAND FREE ENERGY PREDICTED BY IDOCK:   -0.26 KCAL/MOL
REMARK 927      BINDING AFFINITY PREDICTED BY RF-SCORE:    0.00 PKD
ROOT
HETATM    1  O   UNL     1      -8.951   8.550  65.346  1.00  0.00    -0.178 OA 
HETATM    2  C   UNL     1      -8.467   9.307  64.330  1.00  0.00    -0.188 C  
HETATM    3  O   UNL     1      -7.655   8.865  63.528  1.00  0.00    -0.109 OA 
HETATM    4  C   UNL     1      -9.070  10.694  64.233  1.00  0.00    -0.220 C  
ENDROOT
BRANCH   4   5
HETATM    5  S   UNL     1      -9.659  11.285  65.872  1.00  0.00    -0.229 SA 
BRANCH   5   6
HETATM    6  C   UNL     1     -11.401  11.614  65.456  1.00  0.00    -0.160 C  
BRANCH   6   7
HETATM    7  C   UNL     1     -11.925  12.782  66.265  1.00  0.00    -0.395 C  
HETATM    8  O   UNL     1     -12.754  13.565  65.808  1.00  0.00    -0.451 OA 
HETATM    9  N   UNL     1     -11.436  12.859  67.556  1.00  0.00    -0.314 N  
HETATM   10  H   UNL     1     -10.708  12.211  67.857  1.00  0.00     0.000 HD 
BRANCH   9  11
HETATM   11  C   UNL     1     -11.945  13.856  68.496  1.00  0.00    -0.359 C  
HETATM   12  C   UNL     1     -12.052  13.379  69.942  1.00  0.00    -0.389 C  
HETATM   13  C   UNL     1     -12.122  14.604  70.836  1.00  0.00    -0.328 C  
HETATM   14  S   UNL     1     -10.976  15.805  70.109  1.00  0.00    -0.376 SA 
HETATM   15  C   UNL     1     -11.105  15.129  68.491  1.00  0.00    -0.276 C  
HETATM   16  O   UNL     1     -10.633  15.663  67.497  1.00  0.00    -0.283 OA 
ENDBRANCH   9  11
ENDBRANCH   6   7
ENDBRANCH   5   6
ENDBRANCH   4   5
TORSDOF 4
ENDMDL
MODEL      134
REMARK 921   NORMALIZED FREE ENERGY PREDICTED BY IDOCK:   -3.40 KCAL/MOL
REMARK 922        TOTAL FREE ENERGY PREDICTED BY IDOCK:   -4.51 KCAL/MOL
REMARK 923 INTER-LIGAND FREE ENERGY PREDICTED BY IDOCK:   -3.83 KCAL/MOL
REMARK 924 INTRA-LIGAND FREE ENERGY PREDICTED BY IDOCK:   -0.68 KCAL/MOL
REMARK 927      BINDING AFFINITY PREDICTED BY RF-SCORE:    0.00 PKD
ROOT
HETATM    1  O   UNL     1      -7.554  12.917  68.389  1.00  0.00    -0.122 OA 
HETATM    2  C   UNL     1      -6.407  13.046  67.677  1.00  0.00    -0.161 C  
HETATM    3  O   UNL     1      -5.972  14.142  67.351  1.00  0.00    -0.348 OA 
HETATM    4  C   UNL     1      -5.687  11.742  67.397  1.00  0.00    -0.102 C  
ENDROOT
BRANCH   4   5
HETATM    5  S   UNL     1      -6.857  10.324  67.365  1.00  0.00    -0.078 SA 
BRANCH   5   6
HETATM    6  C   UNL     1      -7.445  10.468  65.648  1.00  0.00    -0.129 C  
BRANCH   6   7
HETATM    7  C   UNL     1      -8.929  10.769  65.622  1.00  0.00    -0.189 C  
HETATM    8  O   UNL     1      -9.763   9.891  65.414  1.00  0.00    -0.269 OA 
HETATM    9  N   UNL     1      -9.259  12.083  65.898  1.00  0.00    -0.392 N  
HETATM   10  H   UNL     1      -8.518  12.774  66.008  1.00  0.00     0.000 HD 
BRANCH   9  11
HETATM   11  C   UNL     1     -10.655  12.495  66.032  1.00  0.00    -0.263 C  
HETATM   12  C   UNL     1     -10.931  13.457  67.185  1.00  0.00    -0.292 C  
HETATM   13  C   UNL     1     -12.256  14.147  66.914  1.00  0.00    -0.365 C  
HETATM   14  S   UNL     1     -12.286  14.461  65.129  1.00  0.00    -0.367 SA 
HETATM   15  C   UNL     1     -11.188  13.139  64.757  1.00  0.00    -0.324 C  
HETATM   16  O   UNL     1     -10.949  12.760  63.619  1.00  0.00    -0.425 OA 
ENDBRANCH   9  11
ENDBRANCH   6   7
ENDBRANCH   5   6
ENDBRANCH   4   5
TORSDOF 4
ENDMDL
MODEL      135
REMARK 921   NORMALIZED FREE ENERGY PREDICTED BY IDOCK:   -3.40 KCAL/MOL
REMARK 922        TOTAL FREE ENERGY PREDICTED BY IDOCK:   -4.51 KCAL/MOL
REMARK 923 INTER-LIGAND FREE ENERGY PREDICTED BY IDOCK:   -4.16 KCAL/MOL
REMARK 924 INTRA-LIGAND FREE ENERGY PREDICTED BY IDOCK:   -0.35 KCAL/MOL
REMARK 927      BINDING AFFINITY PREDICTED BY RF-SCORE:    0.00 PKD
ROOT
HETATM    1  O   UNL     1     -11.105   7.294  72.360  1.00  0.00    -0.247 OA 
HETATM    2  C   UNL     1     -12.240   7.818  71.833  1.00  0.00    -0.306 C  
HETATM    3  O   UNL     1     -13.287   7.185  71.804  1.00  0.00    -0.353 OA 
HETATM    4  C   UNL     1     -12.115   9.254  71.367  1.00  0.00    -0.348 C  
ENDROOT
BRANCH   4   5
HETATM    5  S   UNL     1     -10.385   9.658  70.893  1.00  0.00    -0.184 SA 
BRANCH   5   6
HETATM    6  C   UNL     1     -10.490   9.340  69.104  1.00  0.00    -0.217 C  
BRANCH   6   7
HETATM    7  C   UNL     1     -10.946  10.584  68.372  1.00  0.00    -0.261 C  
HETATM    8  O   UNL     1     -11.666  10.523  67.379  1.00  0.00    -0.291 OA 
HETATM    9  N   UNL     1     -10.529  11.775  68.938  1.00  0.00    -0.329 N  
HETATM   10  H   UNL     1      -9.887  11.758  69.730  1.00  0.00     0.000 HD 
BRANCH   9  11
HETATM   11  C   UNL     1     -10.994  13.059  68.417  1.00  0.00    -0.262 C  
HETATM   12  C   UNL     1     -11.451  14.055  69.480  1.00  0.00    -0.331 C  
HETATM   13  C   UNL     1     -11.441  15.440  68.860  1.00  0.00    -0.342 C  
HETATM   14  S   UNL     1      -9.970  15.491  67.802  1.00  0.00    -0.223 SA 
HETATM   15  C   UNL     1      -9.935  13.749  67.564  1.00  0.00    -0.233 C  
HETATM   16  O   UNL     1      -9.196  13.192  66.764  1.00  0.00    -0.233 OA 
ENDBRANCH   9  11
ENDBRANCH   6   7
ENDBRANCH   5   6
ENDBRANCH   4   5
TORSDOF 4
ENDMDL
MODEL      136
REMARK 921   NORMALIZED FREE ENERGY PREDICTED BY IDOCK:   -3.38 KCAL/MOL
REMARK 922        TOTAL FREE ENERGY PREDICTED BY IDOCK:   -4.49 KCAL/MOL
REMARK 923 INTER-LIGAND FREE ENERGY PREDICTED BY IDOCK:   -4.34 KCAL/MOL
REMARK 924 INTRA-LIGAND FREE ENERGY PREDICTED BY IDOCK:   -0.15 KCAL/MOL
REMARK 927      BINDING AFFINITY PREDICTED BY RF-SCORE:    0.00 PKD
ROOT
HETATM    1  O   UNL     1      -9.118   8.592  65.960  1.00  0.00    -0.179 OA 
HETATM    2  C   UNL     1      -9.118   8.815  67.298  1.00  0.00    -0.132 C  
HETATM    3  O   UNL     1      -9.197   7.897  68.103  1.00  0.00    -0.137 OA 
HETATM    4  C   UNL     1      -8.937  10.266  67.697  1.00  0.00    -0.134 C  
ENDROOT
BRANCH   4   5
HETATM    5  S   UNL     1      -9.542  11.403  66.385  1.00  0.00    -0.212 SA 
BRANCH   5   6
HETATM    6  C   UNL     1     -11.159  11.840  67.098  1.00  0.00    -0.296 C  
BRANCH   6   7
HETATM    7  C   UNL     1     -10.976  12.687  68.340  1.00  0.00    -0.257 C  
HETATM    8  O   UNL     1      -9.991  13.404  68.494  1.00  0.00    -0.233 OA 
HETATM    9  N   UNL     1     -12.020  12.622  69.245  1.00  0.00    -0.278 N  
HETATM   10  H   UNL     1     -12.784  11.966  69.084  1.00  0.00     0.000 HD 
BRANCH   9  11
HETATM   11  C   UNL     1     -12.044  13.479  70.428  1.00  0.00    -0.345 C  
HETATM   12  C   UNL     1     -12.334  14.951  70.149  1.00  0.00    -0.376 C  
HETATM   13  C   UNL     1     -12.791  15.594  71.446  1.00  0.00    -0.482 C  
HETATM   14  S   UNL     1     -13.836  14.357  72.261  1.00  0.00    -0.516 SA 
HETATM   15  C   UNL     1     -13.057  12.998  71.463  1.00  0.00    -0.310 C  
HETATM   16  O   UNL     1     -13.265  11.831  71.761  1.00  0.00    -0.457 OA 
ENDBRANCH   9  11
ENDBRANCH   6   7
ENDBRANCH   5   6
ENDBRANCH   4   5
TORSDOF 4
ENDMDL
MODEL      137
REMARK 921   NORMALIZED FREE ENERGY PREDICTED BY IDOCK:   -3.36 KCAL/MOL
REMARK 922        TOTAL FREE ENERGY PREDICTED BY IDOCK:   -4.47 KCAL/MOL
REMARK 923 INTER-LIGAND FREE ENERGY PREDICTED BY IDOCK:   -4.33 KCAL/MOL
REMARK 924 INTRA-LIGAND FREE ENERGY PREDICTED BY IDOCK:   -0.14 KCAL/MOL
REMARK 927      BINDING AFFINITY PREDICTED BY RF-SCORE:    0.00 PKD
ROOT
HETATM    1  O   UNL     1     -13.877  12.819  72.469  1.00  0.00    -0.518 OA 
HETATM    2  C   UNL     1     -13.150  13.458  71.518  1.00  0.00    -0.342 C  
HETATM    3  O   UNL     1     -13.194  14.673  71.384  1.00  0.00    -0.323 OA 
HETATM    4  C   UNL     1     -12.242  12.557  70.707  1.00  0.00    -0.240 C  
ENDROOT
BRANCH   4   5
HETATM    5  S   UNL     1     -12.889  10.837  70.637  1.00  0.00    -0.236 SA 
BRANCH   5   6
HETATM    6  C   UNL     1     -11.362   9.933  71.042  1.00  0.00    -0.386 C  
BRANCH   6   7
HETATM    7  C   UNL     1     -10.346  10.089  69.931  1.00  0.00    -0.272 C  
HETATM    8  O   UNL     1      -9.149   9.880  70.115  1.00  0.00    -0.223 OA 
HETATM    9  N   UNL     1     -10.878  10.433  68.702  1.00  0.00    -0.217 N  
HETATM   10  H   UNL     1     -11.872  10.646  68.627  1.00  0.00     0.000 HD 
BRANCH   9  11
HETATM   11  C   UNL     1     -10.037  10.496  67.509  1.00  0.00    -0.189 C  
HETATM   12  C   UNL     1     -10.101   9.263  66.612  1.00  0.00    -0.341 C  
HETATM   13  C   UNL     1      -9.587   9.653  65.238  1.00  0.00    -0.277 C  
HETATM   14  S   UNL     1     -10.224  11.323  64.935  1.00  0.00    -0.305 SA 
HETATM   15  C   UNL     1     -10.358  11.711  66.645  1.00  0.00    -0.222 C  
HETATM   16  O   UNL     1     -10.611  12.832  67.064  1.00  0.00    -0.239 OA 
ENDBRANCH   9  11
ENDBRANCH   6   7
ENDBRANCH   5   6
ENDBRANCH   4   5
TORSDOF 4
ENDMDL
MODEL      138
REMARK 921   NORMALIZED FREE ENERGY PREDICTED BY IDOCK:   -3.36 KCAL/MOL
REMARK 922        TOTAL FREE ENERGY PREDICTED BY IDOCK:   -4.47 KCAL/MOL
REMARK 923 INTER-LIGAND FREE ENERGY PREDICTED BY IDOCK:   -4.12 KCAL/MOL
REMARK 924 INTRA-LIGAND FREE ENERGY PREDICTED BY IDOCK:   -0.35 KCAL/MOL
REMARK 927      BINDING AFFINITY PREDICTED BY RF-SCORE:    0.00 PKD
ROOT
HETATM    1  O   UNL     1     -13.528  12.420  72.255  1.00  0.00    -0.541 OA 
HETATM    2  C   UNL     1     -12.683  12.461  71.195  1.00  0.00    -0.240 C  
HETATM    3  O   UNL     1     -12.424  13.510  70.619  1.00  0.00    -0.346 OA 
HETATM    4  C   UNL     1     -12.043  11.133  70.845  1.00  0.00    -0.322 C  
ENDROOT
BRANCH   4   5
HETATM    5  S   UNL     1     -13.101   9.722  71.364  1.00  0.00    -0.407 SA 
BRANCH   5   6
HETATM    6  C   UNL     1     -11.843   8.705  72.199  1.00  0.00    -0.377 C  
BRANCH   6   7
HETATM    7  C   UNL     1     -10.760   8.297  71.222  1.00  0.00    -0.227 C  
HETATM    8  O   UNL     1      -9.571   8.316  71.529  1.00  0.00    -0.161 OA 
HETATM    9  N   UNL     1     -11.222   7.862  69.993  1.00  0.00    -0.429 N  
HETATM   10  H   UNL     1     -12.217   7.921  69.781  1.00  0.00     0.000 HD 
BRANCH   9  11
HETATM   11  C   UNL     1     -10.305   7.317  68.994  1.00  0.00    -0.205 C  
HETATM   12  C   UNL     1     -10.799   6.058  68.288  1.00  0.00    -0.366 C  
HETATM   13  C   UNL     1     -10.007   5.899  67.003  1.00  0.00    -0.166 C  
HETATM   14  S   UNL     1      -9.805   7.575  66.344  1.00  0.00    -0.006 SA 
HETATM   15  C   UNL     1      -9.955   8.341  67.919  1.00  0.00    -0.183 C  
HETATM   16  O   UNL     1      -9.737   9.528  68.116  1.00  0.00    -0.143 OA 
ENDBRANCH   9  11
ENDBRANCH   6   7
ENDBRANCH   5   6
ENDBRANCH   4   5
TORSDOF 4
ENDMDL
MODEL      139
REMARK 921   NORMALIZED FREE ENERGY PREDICTED BY IDOCK:   -3.36 KCAL/MOL
REMARK 922        TOTAL FREE ENERGY PREDICTED BY IDOCK:   -4.46 KCAL/MOL
REMARK 923 INTER-LIGAND FREE ENERGY PREDICTED BY IDOCK:   -4.12 KCAL/MOL
REMARK 924 INTRA-LIGAND FREE ENERGY PREDICTED BY IDOCK:   -0.35 KCAL/MOL
REMARK 927      BINDING AFFINITY PREDICTED BY RF-SCORE:    0.00 PKD
ROOT
HETATM    1  O   UNL     1      -8.530   8.247  66.060  1.00  0.00    -0.123 OA 
HETATM    2  C   UNL     1      -9.751   8.613  66.522  1.00  0.00    -0.255 C  
HETATM    3  O   UNL     1     -10.132   9.775  66.483  1.00  0.00    -0.222 OA 
HETATM    4  C   UNL     1     -10.613   7.465  67.007  1.00  0.00    -0.344 C  
ENDROOT
BRANCH   4   5
HETATM    5  S   UNL     1      -9.586   6.055  67.588  1.00  0.00    -0.115 SA 
BRANCH   5   6
HETATM    6  C   UNL     1     -10.171   5.955  69.308  1.00  0.00    -0.213 C  
BRANCH   6   7
HETATM    7  C   UNL     1     -10.061   7.306  69.983  1.00  0.00    -0.190 C  
HETATM    8  O   UNL     1      -8.973   7.801  70.266  1.00  0.00    -0.146 OA 
HETATM    9  N   UNL     1     -11.268   7.945  70.201  1.00  0.00    -0.408 N  
HETATM   10  H   UNL     1     -12.139   7.458  69.993  1.00  0.00     0.000 HD 
BRANCH   9  11
HETATM   11  C   UNL     1     -11.313   9.308  70.727  1.00  0.00    -0.287 C  
HETATM   12  C   UNL     1     -11.482  10.398  69.672  1.00  0.00    -0.326 C  
HETATM   13  C   UNL     1     -11.981  11.651  70.367  1.00  0.00    -0.358 C  
HETATM   14  S   UNL     1     -13.160  11.079  71.618  1.00  0.00    -0.365 SA 
HETATM   15  C   UNL     1     -12.424   9.488  71.757  1.00  0.00    -0.401 C  
HETATM   16  O   UNL     1     -12.732   8.674  72.616  1.00  0.00    -0.365 OA 
ENDBRANCH   9  11
ENDBRANCH   6   7
ENDBRANCH   5   6
ENDBRANCH   4   5
TORSDOF 4
ENDMDL
MODEL      140
REMARK 921   NORMALIZED FREE ENERGY PREDICTED BY IDOCK:   -3.36 KCAL/MOL
REMARK 922        TOTAL FREE ENERGY PREDICTED BY IDOCK:   -4.46 KCAL/MOL
REMARK 923 INTER-LIGAND FREE ENERGY PREDICTED BY IDOCK:   -4.08 KCAL/MOL
REMARK 924 INTRA-LIGAND FREE ENERGY PREDICTED BY IDOCK:   -0.38 KCAL/MOL
REMARK 927      BINDING AFFINITY PREDICTED BY RF-SCORE:    0.00 PKD
ROOT
HETATM    1  O   UNL     1      -8.548   8.473  73.663  1.00  0.00    -0.325 OA 
HETATM    2  C   UNL     1      -8.432   7.308  72.977  1.00  0.00    -0.122 C  
HETATM    3  O   UNL     1      -7.342   6.864  72.645  1.00  0.00    -0.081 OA 
HETATM    4  C   UNL     1      -9.741   6.585  72.734  1.00  0.00    -0.157 C  
ENDROOT
BRANCH   4   5
HETATM    5  S   UNL     1     -11.158   7.757  72.695  1.00  0.00    -0.399 SA 
BRANCH   5   6
HETATM    6  C   UNL     1     -11.392   7.875  70.894  1.00  0.00    -0.277 C  
BRANCH   6   7
HETATM    7  C   UNL     1     -10.761   9.144  70.361  1.00  0.00    -0.238 C  
HETATM    8  O   UNL     1      -9.640   9.505  70.712  1.00  0.00    -0.259 OA 
HETATM    9  N   UNL     1     -11.521   9.822  69.426  1.00  0.00    -0.446 N  
HETATM   10  H   UNL     1     -12.466   9.500  69.219  1.00  0.00     0.000 HD 
BRANCH   9  11
HETATM   11  C   UNL     1     -10.990  10.993  68.731  1.00  0.00    -0.221 C  
HETATM   12  C   UNL     1     -11.169  10.975  67.216  1.00  0.00    -0.330 C  
HETATM   13  C   UNL     1     -11.023  12.398  66.709  1.00  0.00    -0.263 C  
HETATM   14  S   UNL     1     -11.839  13.443  67.944  1.00  0.00    -0.337 SA 
HETATM   15  C   UNL     1     -11.597  12.292  69.252  1.00  0.00    -0.324 C  
HETATM   16  O   UNL     1     -11.830  12.545  70.425  1.00  0.00    -0.299 OA 
ENDBRANCH   9  11
ENDBRANCH   6   7
ENDBRANCH   5   6
ENDBRANCH   4   5
TORSDOF 4
ENDMDL
MODEL      141
REMARK 921   NORMALIZED FREE ENERGY PREDICTED BY IDOCK:   -3.35 KCAL/MOL
REMARK 922        TOTAL FREE ENERGY PREDICTED BY IDOCK:   -4.46 KCAL/MOL
REMARK 923 INTER-LIGAND FREE ENERGY PREDICTED BY IDOCK:   -4.06 KCAL/MOL
REMARK 924 INTRA-LIGAND FREE ENERGY PREDICTED BY IDOCK:   -0.40 KCAL/MOL
REMARK 927      BINDING AFFINITY PREDICTED BY RF-SCORE:    0.00 PKD
ROOT
HETATM    1  O   UNL     1      -9.608   7.592  73.250  1.00  0.00    -0.219 OA 
HETATM    2  C   UNL     1      -9.825   6.255  73.318  1.00  0.00    -0.168 C  
HETATM    3  O   UNL     1      -8.963   5.483  73.716  1.00  0.00    -0.124 OA 
HETATM    4  C   UNL     1     -11.227   5.822  72.941  1.00  0.00    -0.276 C  
ENDROOT
BRANCH   4   5
HETATM    5  S   UNL     1     -12.005   7.012  71.775  1.00  0.00    -0.343 SA 
BRANCH   5   6
HETATM    6  C   UNL     1     -11.190   6.488  70.234  1.00  0.00    -0.374 C  
BRANCH   6   7
HETATM    7  C   UNL     1     -10.362   7.621  69.664  1.00  0.00    -0.213 C  
HETATM    8  O   UNL     1      -9.188   7.788  69.984  1.00  0.00    -0.153 OA 
HETATM    9  N   UNL     1     -11.015   8.404  68.730  1.00  0.00    -0.428 N  
HETATM   10  H   UNL     1     -12.006   8.247  68.548  1.00  0.00     0.000 HD 
BRANCH   9  11
HETATM   11  C   UNL     1     -10.307   9.454  68.001  1.00  0.00    -0.220 C  
HETATM   12  C   UNL     1      -9.742   9.028  66.649  1.00  0.00    -0.295 C  
HETATM   13  C   UNL     1      -9.479  10.281  65.834  1.00  0.00    -0.190 C  
HETATM   14  S   UNL     1     -10.860  11.397  66.195  1.00  0.00    -0.219 SA 
HETATM   15  C   UNL     1     -11.184  10.681  67.768  1.00  0.00    -0.313 C  
HETATM   16  O   UNL     1     -11.965  11.158  68.579  1.00  0.00    -0.526 OA 
ENDBRANCH   9  11
ENDBRANCH   6   7
ENDBRANCH   5   6
ENDBRANCH   4   5
TORSDOF 4
ENDMDL
MODEL      142
REMARK 921   NORMALIZED FREE ENERGY PREDICTED BY IDOCK:   -3.34 KCAL/MOL
REMARK 922        TOTAL FREE ENERGY PREDICTED BY IDOCK:   -4.44 KCAL/MOL
REMARK 923 INTER-LIGAND FREE ENERGY PREDICTED BY IDOCK:   -4.66 KCAL/MOL
REMARK 924 INTRA-LIGAND FREE ENERGY PREDICTED BY IDOCK:    0.21 KCAL/MOL
REMARK 927      BINDING AFFINITY PREDICTED BY RF-SCORE:    0.00 PKD
ROOT
HETATM    1  O   UNL     1     -12.071  12.110  68.806  1.00  0.00    -0.274 OA 
HETATM    2  C   UNL     1     -11.500  10.883  68.706  1.00  0.00    -0.308 C  
HETATM    3  O   UNL     1     -11.078  10.455  67.640  1.00  0.00    -0.310 OA 
HETATM    4  C   UNL     1     -11.364  10.141  70.020  1.00  0.00    -0.287 C  
ENDROOT
BRANCH   4   5
HETATM    5  S   UNL     1     -12.648  10.670  71.225  1.00  0.00    -0.443 SA 
BRANCH   5   6
HETATM    6  C   UNL     1     -13.483   9.073  71.484  1.00  0.00    -0.342 C  
BRANCH   6   7
HETATM    7  C   UNL     1     -12.465   7.979  71.728  1.00  0.00    -0.324 C  
HETATM    8  O   UNL     1     -12.210   7.131  70.876  1.00  0.00    -0.344 OA 
HETATM    9  N   UNL     1     -11.824   8.045  72.952  1.00  0.00    -0.587 N  
HETATM   10  H   UNL     1     -12.121   8.740  73.637  1.00  0.00     0.000 HD 
BRANCH   9  11
HETATM   11  C   UNL     1     -10.730   7.134  73.279  1.00  0.00    -0.361 C  
HETATM   12  C   UNL     1     -11.013   5.662  72.995  1.00  0.00    -0.325 C  
HETATM   13  C   UNL     1      -9.684   4.932  72.924  1.00  0.00    -0.145 C  
HETATM   14  S   UNL     1      -8.552   6.064  72.074  1.00  0.00    -0.136 SA 
HETATM   15  C   UNL     1      -9.440   7.503  72.552  1.00  0.00    -0.159 C  
HETATM   16  O   UNL     1      -9.028   8.641  72.374  1.00  0.00    -0.310 OA 
ENDBRANCH   9  11
ENDBRANCH   6   7
ENDBRANCH   5   6
ENDBRANCH   4   5
TORSDOF 4
ENDMDL
MODEL      143
REMARK 921   NORMALIZED FREE ENERGY PREDICTED BY IDOCK:   -3.34 KCAL/MOL
REMARK 922        TOTAL FREE ENERGY PREDICTED BY IDOCK:   -4.44 KCAL/MOL
REMARK 923 INTER-LIGAND FREE ENERGY PREDICTED BY IDOCK:   -3.84 KCAL/MOL
REMARK 924 INTRA-LIGAND FREE ENERGY PREDICTED BY IDOCK:   -0.60 KCAL/MOL
REMARK 927      BINDING AFFINITY PREDICTED BY RF-SCORE:    0.00 PKD
ROOT
HETATM    1  O   UNL     1     -12.496  14.014  69.484  1.00  0.00    -0.299 OA 
HETATM    2  C   UNL     1     -12.262  13.393  70.667  1.00  0.00    -0.350 C  
HETATM    3  O   UNL     1     -12.082  14.024  71.700  1.00  0.00    -0.239 OA 
HETATM    4  C   UNL     1     -12.322  11.880  70.609  1.00  0.00    -0.313 C  
ENDROOT
BRANCH   4   5
HETATM    5  S   UNL     1     -11.906  11.256  68.930  1.00  0.00    -0.315 SA 
BRANCH   5   6
HETATM    6  C   UNL     1     -10.092  11.389  69.009  1.00  0.00    -0.090 C  
BRANCH   6   7
HETATM    7  C   UNL     1      -9.600  12.466  68.065  1.00  0.00    -0.211 C  
HETATM    8  O   UNL     1      -9.356  12.229  66.885  1.00  0.00    -0.197 OA 
HETATM    9  N   UNL     1      -9.501  13.726  68.625  1.00  0.00    -0.365 N  
HETATM   10  H   UNL     1      -9.666  13.847  69.624  1.00  0.00     0.000 HD 
BRANCH   9  11
HETATM   11  C   UNL     1      -9.161  14.889  67.807  1.00  0.00    -0.186 C  
HETATM   12  C   UNL     1     -10.335  15.508  67.054  1.00  0.00    -0.279 C  
HETATM   13  C   UNL     1      -9.948  16.922  66.661  1.00  0.00    -0.296 C  
HETATM   14  S   UNL     1      -9.016  17.582  68.068  1.00  0.00    -0.265 SA 
HETATM   15  C   UNL     1      -8.505  15.995  68.627  1.00  0.00    -0.208 C  
HETATM   16  O   UNL     1      -7.679  15.825  69.513  1.00  0.00    -0.229 OA 
ENDBRANCH   9  11
ENDBRANCH   6   7
ENDBRANCH   5   6
ENDBRANCH   4   5
TORSDOF 4
ENDMDL
MODEL      144
REMARK 921   NORMALIZED FREE ENERGY PREDICTED BY IDOCK:   -3.34 KCAL/MOL
REMARK 922        TOTAL FREE ENERGY PREDICTED BY IDOCK:   -4.44 KCAL/MOL
REMARK 923 INTER-LIGAND FREE ENERGY PREDICTED BY IDOCK:   -4.58 KCAL/MOL
REMARK 924 INTRA-LIGAND FREE ENERGY PREDICTED BY IDOCK:    0.14 KCAL/MOL
REMARK 927      BINDING AFFINITY PREDICTED BY RF-SCORE:    0.00 PKD
ROOT
HETATM    1  O   UNL     1     -11.006  12.794  64.001  1.00  0.00    -0.363 OA 
HETATM    2  C   UNL     1     -12.025  13.596  64.399  1.00  0.00    -0.437 C  
HETATM    3  O   UNL     1     -12.568  14.376  63.629  1.00  0.00    -0.817 OA 
HETATM    4  C   UNL     1     -12.472  13.385  65.831  1.00  0.00    -0.408 C  
ENDROOT
BRANCH   4   5
HETATM    5  S   UNL     1     -11.103  12.735  66.872  1.00  0.00    -0.283 SA 
BRANCH   5   6
HETATM    6  C   UNL     1     -11.369  13.738  68.367  1.00  0.00    -0.293 C  
BRANCH   6   7
HETATM    7  C   UNL     1     -10.636  15.058  68.255  1.00  0.00    -0.247 C  
HETATM    8  O   UNL     1     -10.857  15.988  69.026  1.00  0.00    -0.245 OA 
HETATM    9  N   UNL     1      -9.677  15.106  67.260  1.00  0.00    -0.209 N  
HETATM   10  H   UNL     1      -9.580  14.319  66.618  1.00  0.00     0.000 HD 
BRANCH   9  11
HETATM   11  C   UNL     1      -8.802  16.267  67.112  1.00  0.00    -0.193 C  
HETATM   12  C   UNL     1      -9.523  17.611  67.052  1.00  0.00    -0.266 C  
HETATM   13  C   UNL     1      -8.517  18.699  67.378  1.00  0.00    -0.265 C  
HETATM   14  S   UNL     1      -7.472  18.019  68.694  1.00  0.00    -0.276 SA 
HETATM   15  C   UNL     1      -7.767  16.350  68.229  1.00  0.00    -0.162 C  
HETATM   16  O   UNL     1      -7.161  15.400  68.705  1.00  0.00    -0.115 OA 
ENDBRANCH   9  11
ENDBRANCH   6   7
ENDBRANCH   5   6
ENDBRANCH   4   5
TORSDOF 4
ENDMDL
MODEL      145
REMARK 921   NORMALIZED FREE ENERGY PREDICTED BY IDOCK:   -3.33 KCAL/MOL
REMARK 922        TOTAL FREE ENERGY PREDICTED BY IDOCK:   -4.43 KCAL/MOL
REMARK 923 INTER-LIGAND FREE ENERGY PREDICTED BY IDOCK:   -4.15 KCAL/MOL
REMARK 924 INTRA-LIGAND FREE ENERGY PREDICTED BY IDOCK:   -0.28 KCAL/MOL
REMARK 927      BINDING AFFINITY PREDICTED BY RF-SCORE:    0.00 PKD
ROOT
HETATM    1  O   UNL     1     -10.455  19.768  66.026  1.00  0.00    -0.485 OA 
HETATM    2  C   UNL     1      -9.181  19.360  66.252  1.00  0.00    -0.348 C  
HETATM    3  O   UNL     1      -8.253  19.728  65.544  1.00  0.00    -0.333 OA 
HETATM    4  C   UNL     1      -9.004  18.490  67.479  1.00  0.00    -0.276 C  
ENDROOT
BRANCH   4   5
HETATM    5  S   UNL     1     -10.548  17.575  67.881  1.00  0.00    -0.352 SA 
BRANCH   5   6
HETATM    6  C   UNL     1     -10.240  16.052  66.933  1.00  0.00    -0.280 C  
BRANCH   6   7
HETATM    7  C   UNL     1      -9.952  14.897  67.869  1.00  0.00    -0.219 C  
HETATM    8  O   UNL     1      -9.371  15.061  68.939  1.00  0.00    -0.195 OA 
HETATM    9  N   UNL     1     -10.436  13.672  67.445  1.00  0.00    -0.251 N  
HETATM   10  H   UNL     1     -10.861  13.593  66.522  1.00  0.00     0.000 HD 
BRANCH   9  11
HETATM   11  C   UNL     1     -10.345  12.491  68.300  1.00  0.00    -0.236 C  
HETATM   12  C   UNL     1     -11.686  11.942  68.780  1.00  0.00    -0.379 C  
HETATM   13  C   UNL     1     -11.473  10.507  69.226  1.00  0.00    -0.256 C  
HETATM   14  S   UNL     1     -10.305   9.794  68.038  1.00  0.00    -0.221 SA 
HETATM   15  C   UNL     1      -9.596  11.348  67.622  1.00  0.00    -0.169 C  
HETATM   16  O   UNL     1      -8.593  11.470  66.932  1.00  0.00    -0.151 OA 
ENDBRANCH   9  11
ENDBRANCH   6   7
ENDBRANCH   5   6
ENDBRANCH   4   5
TORSDOF 4
ENDMDL
MODEL      146
REMARK 921   NORMALIZED FREE ENERGY PREDICTED BY IDOCK:   -3.32 KCAL/MOL
REMARK 922        TOTAL FREE ENERGY PREDICTED BY IDOCK:   -4.42 KCAL/MOL
REMARK 923 INTER-LIGAND FREE ENERGY PREDICTED BY IDOCK:   -4.09 KCAL/MOL
REMARK 924 INTRA-LIGAND FREE ENERGY PREDICTED BY IDOCK:   -0.33 KCAL/MOL
REMARK 927      BINDING AFFINITY PREDICTED BY RF-SCORE:    0.00 PKD
ROOT
HETATM    1  O   UNL     1     -10.934  11.299  63.284  1.00  0.00    -0.301 OA 
HETATM    2  C   UNL     1     -11.994  11.915  63.865  1.00  0.00    -0.402 C  
HETATM    3  O   UNL     1     -13.065  12.036  63.285  1.00  0.00    -0.701 OA 
HETATM    4  C   UNL     1     -11.762  12.358  65.295  1.00  0.00    -0.390 C  
ENDROOT
BRANCH   4   5
HETATM    5  S   UNL     1      -9.980  12.682  65.615  1.00  0.00    -0.204 SA 
BRANCH   5   6
HETATM    6  C   UNL     1      -9.888  14.405  65.035  1.00  0.00    -0.024 C  
BRANCH   6   7
HETATM    7  C   UNL     1     -10.448  15.345  66.082  1.00  0.00    -0.316 C  
HETATM    8  O   UNL     1     -11.004  16.397  65.776  1.00  0.00    -0.181 OA 
HETATM    9  N   UNL     1     -10.324  14.902  67.386  1.00  0.00    -0.242 N  
HETATM   10  H   UNL     1      -9.803  14.047  67.578  1.00  0.00     0.000 HD 
BRANCH   9  11
HETATM   11  C   UNL     1     -10.928  15.640  68.493  1.00  0.00    -0.303 C  
HETATM   12  C   UNL     1     -12.356  15.226  68.837  1.00  0.00    -0.007 C  
HETATM   13  C   UNL     1     -12.659  15.709  70.243  1.00  0.00    -0.280 C  
HETATM   14  S   UNL     1     -11.134  15.448  71.188  1.00  0.00    -0.223 SA 
HETATM   15  C   UNL     1     -10.099  15.539  69.770  1.00  0.00    -0.285 C  
HETATM   16  O   UNL     1      -8.878  15.581  69.827  1.00  0.00    -0.233 OA 
ENDBRANCH   9  11
ENDBRANCH   6   7
ENDBRANCH   5   6
ENDBRANCH   4   5
TORSDOF 4
ENDMDL
MODEL      147
REMARK 921   NORMALIZED FREE ENERGY PREDICTED BY IDOCK:   -3.32 KCAL/MOL
REMARK 922        TOTAL FREE ENERGY PREDICTED BY IDOCK:   -4.42 KCAL/MOL
REMARK 923 INTER-LIGAND FREE ENERGY PREDICTED BY IDOCK:   -4.45 KCAL/MOL
REMARK 924 INTRA-LIGAND FREE ENERGY PREDICTED BY IDOCK:    0.03 KCAL/MOL
REMARK 927      BINDING AFFINITY PREDICTED BY RF-SCORE:    0.00 PKD
ROOT
HETATM    1  O   UNL     1      -9.814  19.780  68.486  1.00  0.00    -0.389 OA 
HETATM    2  C   UNL     1     -10.064  19.448  67.194  1.00  0.00    -0.384 C  
HETATM    3  O   UNL     1     -10.294  20.298  66.345  1.00  0.00    -0.409 OA 
HETATM    4  C   UNL     1      -9.958  17.968  66.890  1.00  0.00    -0.340 C  
ENDROOT
BRANCH   4   5
HETATM    5  S   UNL     1     -10.304  16.950  68.382  1.00  0.00    -0.361 SA 
BRANCH   5   6
HETATM    6  C   UNL     1     -11.069  15.506  67.581  1.00  0.00    -0.311 C  
BRANCH   6   7
HETATM    7  C   UNL     1     -10.038  14.740  66.778  1.00  0.00    -0.256 C  
HETATM    8  O   UNL     1      -8.872  15.118  66.695  1.00  0.00    -0.258 OA 
HETATM    9  N   UNL     1     -10.503  13.574  66.200  1.00  0.00    -0.291 N  
HETATM   10  H   UNL     1     -11.494  13.343  66.260  1.00  0.00     0.000 HD 
BRANCH   9  11
HETATM   11  C   UNL     1      -9.595  12.666  65.502  1.00  0.00    -0.013 C  
HETATM   12  C   UNL     1      -9.006  11.556  66.368  1.00  0.00    -0.200 C  
HETATM   13  C   UNL     1      -8.500  10.460  65.448  1.00  0.00    -0.168 C  
HETATM   14  S   UNL     1      -9.719  10.343  64.112  1.00  0.00    -0.305 SA 
HETATM   15  C   UNL     1     -10.258  12.006  64.296  1.00  0.00    -0.318 C  
HETATM   16  O   UNL     1     -11.014  12.562  63.512  1.00  0.00    -0.445 OA 
ENDBRANCH   9  11
ENDBRANCH   6   7
ENDBRANCH   5   6
ENDBRANCH   4   5
TORSDOF 4
ENDMDL
MODEL      148
REMARK 921   NORMALIZED FREE ENERGY PREDICTED BY IDOCK:   -3.32 KCAL/MOL
REMARK 922        TOTAL FREE ENERGY PREDICTED BY IDOCK:   -4.41 KCAL/MOL
REMARK 923 INTER-LIGAND FREE ENERGY PREDICTED BY IDOCK:   -3.87 KCAL/MOL
REMARK 924 INTRA-LIGAND FREE ENERGY PREDICTED BY IDOCK:   -0.54 KCAL/MOL
REMARK 927      BINDING AFFINITY PREDICTED BY RF-SCORE:    0.00 PKD
ROOT
HETATM    1  O   UNL     1      -9.218   7.571  66.103  1.00  0.00    -0.167 OA 
HETATM    2  C   UNL     1      -9.718   7.214  67.312  1.00  0.00    -0.155 C  
HETATM    3  O   UNL     1     -10.791   6.635  67.420  1.00  0.00    -0.286 OA 
HETATM    4  C   UNL     1      -8.811   7.520  68.487  1.00  0.00    -0.126 C  
ENDROOT
BRANCH   4   5
HETATM    5  S   UNL     1      -7.699   8.938  68.123  1.00  0.00    -0.101 SA 
BRANCH   5   6
HETATM    6  C   UNL     1      -8.617  10.257  68.979  1.00  0.00    -0.162 C  
BRANCH   6   7
HETATM    7  C   UNL     1      -9.053  11.321  67.994  1.00  0.00    -0.156 C  
HETATM    8  O   UNL     1      -8.869  12.517  68.212  1.00  0.00    -0.186 OA 
HETATM    9  N   UNL     1      -9.619  10.837  66.830  1.00  0.00    -0.169 N  
HETATM   10  H   UNL     1      -9.793   9.837  66.734  1.00  0.00     0.000 HD 
BRANCH   9  11
HETATM   11  C   UNL     1      -9.972  11.737  65.734  1.00  0.00    -0.238 C  
HETATM   12  C   UNL     1      -9.684  11.192  64.338  1.00  0.00    -0.312 C  
HETATM   13  C   UNL     1     -10.511  11.987  63.343  1.00  0.00    -0.433 C  
HETATM   14  S   UNL     1     -12.107  12.271  64.154  1.00  0.00    -0.442 SA 
HETATM   15  C   UNL     1     -11.442  12.143  65.776  1.00  0.00    -0.361 C  
HETATM   16  O   UNL     1     -12.073  12.413  66.788  1.00  0.00    -0.578 OA 
ENDBRANCH   9  11
ENDBRANCH   6   7
ENDBRANCH   5   6
ENDBRANCH   4   5
TORSDOF 4
ENDMDL
MODEL      149
REMARK 921   NORMALIZED FREE ENERGY PREDICTED BY IDOCK:   -3.32 KCAL/MOL
REMARK 922        TOTAL FREE ENERGY PREDICTED BY IDOCK:   -4.41 KCAL/MOL
REMARK 923 INTER-LIGAND FREE ENERGY PREDICTED BY IDOCK:   -4.64 KCAL/MOL
REMARK 924 INTRA-LIGAND FREE ENERGY PREDICTED BY IDOCK:    0.23 KCAL/MOL
REMARK 927      BINDING AFFINITY PREDICTED BY RF-SCORE:    0.00 PKD
ROOT
HETATM    1  O   UNL     1     -12.990  14.334  64.776  1.00  0.00    -0.653 OA 
HETATM    2  C   UNL     1     -12.633  13.045  65.000  1.00  0.00    -0.454 C  
HETATM    3  O   UNL     1     -13.188  12.116  64.428  1.00  0.00    -0.758 OA 
HETATM    4  C   UNL     1     -11.460  12.868  65.943  1.00  0.00    -0.346 C  
ENDROOT
BRANCH   4   5
HETATM    5  S   UNL     1     -11.329  14.274  67.121  1.00  0.00    -0.354 SA 
BRANCH   5   6
HETATM    6  C   UNL     1      -9.520  14.321  67.320  1.00  0.00    -0.220 C  
BRANCH   6   7
HETATM    7  C   UNL     1      -8.992  15.710  67.026  1.00  0.00    -0.222 C  
HETATM    8  O   UNL     1      -9.745  16.650  66.785  1.00  0.00    -0.241 OA 
HETATM    9  N   UNL     1      -7.617  15.836  67.101  1.00  0.00    -0.207 N  
HETATM   10  H   UNL     1      -7.044  15.006  67.252  1.00  0.00     0.000 HD 
BRANCH   9  11
HETATM   11  C   UNL     1      -6.973  17.140  66.968  1.00  0.00    -0.193 C  
HETATM   12  C   UNL     1      -7.235  17.853  65.644  1.00  0.00    -0.048 C  
HETATM   13  C   UNL     1      -6.926  19.327  65.835  1.00  0.00    -0.275 C  
HETATM   14  S   UNL     1      -7.524  19.740  67.496  1.00  0.00    -0.280 SA 
HETATM   15  C   UNL     1      -7.369  18.093  68.091  1.00  0.00    -0.251 C  
HETATM   16  O   UNL     1      -7.500  17.785  69.268  1.00  0.00    -0.141 OA 
ENDBRANCH   9  11
ENDBRANCH   6   7
ENDBRANCH   5   6
ENDBRANCH   4   5
TORSDOF 4
ENDMDL
MODEL      150
REMARK 921   NORMALIZED FREE ENERGY PREDICTED BY IDOCK:   -3.32 KCAL/MOL
REMARK 922        TOTAL FREE ENERGY PREDICTED BY IDOCK:   -4.41 KCAL/MOL
REMARK 923 INTER-LIGAND FREE ENERGY PREDICTED BY IDOCK:   -4.10 KCAL/MOL
REMARK 924 INTRA-LIGAND FREE ENERGY PREDICTED BY IDOCK:   -0.31 KCAL/MOL
REMARK 927      BINDING AFFINITY PREDICTED BY RF-SCORE:    0.00 PKD
ROOT
HETATM    1  O   UNL     1      -8.887   9.026  66.372  1.00  0.00    -0.134 OA 
HETATM    2  C   UNL     1      -9.444   9.947  65.546  1.00  0.00    -0.252 C  
HETATM    3  O   UNL     1      -9.237   9.937  64.340  1.00  0.00    -0.238 OA 
HETATM    4  C   UNL     1     -10.386  10.919  66.226  1.00  0.00    -0.250 C  
ENDROOT
BRANCH   4   5
HETATM    5  S   UNL     1      -9.956  11.140  68.001  1.00  0.00    -0.181 SA 
BRANCH   5   6
HETATM    6  C   UNL     1     -11.631  11.340  68.685  1.00  0.00    -0.318 C  
BRANCH   6   7
HETATM    7  C   UNL     1     -11.740  10.641  70.025  1.00  0.00    -0.324 C  
HETATM    8  O   UNL     1     -12.096  11.238  71.038  1.00  0.00    -0.319 OA 
HETATM    9  N   UNL     1     -11.458   9.288  69.998  1.00  0.00    -0.437 N  
HETATM   10  H   UNL     1     -11.115   8.863  69.137  1.00  0.00     0.000 HD 
BRANCH   9  11
HETATM   11  C   UNL     1     -11.643   8.457  71.186  1.00  0.00    -0.279 C  
HETATM   12  C   UNL     1     -12.289   7.099  70.924  1.00  0.00    -0.335 C  
HETATM   13  C   UNL     1     -11.983   6.198  72.107  1.00  0.00    -0.260 C  
HETATM   14  S   UNL     1     -10.276   6.580  72.583  1.00  0.00    -0.191 SA 
HETATM   15  C   UNL     1     -10.330   8.209  71.922  1.00  0.00    -0.235 C  
HETATM   16  O   UNL     1      -9.449   9.039  72.099  1.00  0.00    -0.340 OA 
ENDBRANCH   9  11
ENDBRANCH   6   7
ENDBRANCH   5   6
ENDBRANCH   4   5
TORSDOF 4
ENDMDL
MODEL      151
REMARK 921   NORMALIZED FREE ENERGY PREDICTED BY IDOCK:   -3.30 KCAL/MOL
REMARK 922        TOTAL FREE ENERGY PREDICTED BY IDOCK:   -4.39 KCAL/MOL
REMARK 923 INTER-LIGAND FREE ENERGY PREDICTED BY IDOCK:   -4.07 KCAL/MOL
REMARK 924 INTRA-LIGAND FREE ENERGY PREDICTED BY IDOCK:   -0.32 KCAL/MOL
REMARK 927      BINDING AFFINITY PREDICTED BY RF-SCORE:    0.00 PKD
ROOT
HETATM    1  O   UNL     1     -10.373  11.493  63.018  1.00  0.00    -0.322 OA 
HETATM    2  C   UNL     1     -10.209  10.880  64.217  1.00  0.00    -0.364 C  
HETATM    3  O   UNL     1      -9.576   9.838  64.325  1.00  0.00    -0.236 OA 
HETATM    4  C   UNL     1     -10.802  11.626  65.395  1.00  0.00    -0.280 C  
ENDROOT
BRANCH   4   5
HETATM    5  S   UNL     1     -12.213  12.685  64.877  1.00  0.00    -0.474 SA 
BRANCH   5   6
HETATM    6  C   UNL     1     -12.053  14.012  66.112  1.00  0.00    -0.446 C  
BRANCH   6   7
HETATM    7  C   UNL     1     -10.644  14.566  66.112  1.00  0.00    -0.306 C  
HETATM    8  O   UNL     1     -10.080  14.897  65.072  1.00  0.00    -0.360 OA 
HETATM    9  N   UNL     1     -10.077  14.711  67.364  1.00  0.00    -0.232 N  
HETATM   10  H   UNL     1     -10.576  14.367  68.184  1.00  0.00     0.000 HD 
BRANCH   9  11
HETATM   11  C   UNL     1      -8.773  15.351  67.531  1.00  0.00    -0.175 C  
HETATM   12  C   UNL     1      -8.806  16.695  68.252  1.00  0.00    -0.214 C  
HETATM   13  C   UNL     1      -7.406  16.989  68.762  1.00  0.00    -0.236 C  
HETATM   14  S   UNL     1      -6.753  15.398  69.335  1.00  0.00    -0.179 SA 
HETATM   15  C   UNL     1      -7.786  14.454  68.272  1.00  0.00    -0.129 C  
HETATM   16  O   UNL     1      -7.667  13.247  68.112  1.00  0.00    -0.120 OA 
ENDBRANCH   9  11
ENDBRANCH   6   7
ENDBRANCH   5   6
ENDBRANCH   4   5
TORSDOF 4
ENDMDL
MODEL      152
REMARK 921   NORMALIZED FREE ENERGY PREDICTED BY IDOCK:   -3.29 KCAL/MOL
REMARK 922        TOTAL FREE ENERGY PREDICTED BY IDOCK:   -4.38 KCAL/MOL
REMARK 923 INTER-LIGAND FREE ENERGY PREDICTED BY IDOCK:   -4.57 KCAL/MOL
REMARK 924 INTRA-LIGAND FREE ENERGY PREDICTED BY IDOCK:    0.19 KCAL/MOL
REMARK 927      BINDING AFFINITY PREDICTED BY RF-SCORE:    0.00 PKD
ROOT
HETATM    1  O   UNL     1      -8.921   6.186  67.261  1.00  0.00    -0.114 OA 
HETATM    2  C   UNL     1     -10.219   6.323  66.890  1.00  0.00    -0.209 C  
HETATM    3  O   UNL     1     -10.884   5.369  66.510  1.00  0.00    -0.287 OA 
HETATM    4  C   UNL     1     -10.780   7.721  67.060  1.00  0.00    -0.246 C  
ENDROOT
BRANCH   4   5
HETATM    5  S   UNL     1      -9.456   8.992  66.952  1.00  0.00    -0.181 SA 
BRANCH   5   6
HETATM    6  C   UNL     1      -9.671   9.492  65.215  1.00  0.00    -0.198 C  
BRANCH   6   7
HETATM    7  C   UNL     1      -9.993  10.969  65.127  1.00  0.00    -0.278 C  
HETATM    8  O   UNL     1      -9.742  11.627  64.120  1.00  0.00    -0.235 OA 
HETATM    9  N   UNL     1     -10.628  11.492  66.238  1.00  0.00    -0.255 N  
HETATM   10  H   UNL     1     -10.759  10.907  67.063  1.00  0.00     0.000 HD 
BRANCH   9  11
HETATM   11  C   UNL     1     -11.114  12.870  66.249  1.00  0.00    -0.288 C  
HETATM   12  C   UNL     1     -10.026  13.935  66.143  1.00  0.00    -0.322 C  
HETATM   13  C   UNL     1     -10.678  15.230  65.694  1.00  0.00    -0.365 C  
HETATM   14  S   UNL     1     -11.930  14.748  64.475  1.00  0.00    -0.383 SA 
HETATM   15  C   UNL     1     -12.124  13.131  65.137  1.00  0.00    -0.421 C  
HETATM   16  O   UNL     1     -13.003  12.357  64.782  1.00  0.00    -0.786 OA 
ENDBRANCH   9  11
ENDBRANCH   6   7
ENDBRANCH   5   6
ENDBRANCH   4   5
TORSDOF 4
ENDMDL
MODEL      153
REMARK 921   NORMALIZED FREE ENERGY PREDICTED BY IDOCK:   -3.28 KCAL/MOL
REMARK 922        TOTAL FREE ENERGY PREDICTED BY IDOCK:   -4.37 KCAL/MOL
REMARK 923 INTER-LIGAND FREE ENERGY PREDICTED BY IDOCK:   -4.09 KCAL/MOL
REMARK 924 INTRA-LIGAND FREE ENERGY PREDICTED BY IDOCK:   -0.28 KCAL/MOL
REMARK 927      BINDING AFFINITY PREDICTED BY RF-SCORE:    0.00 PKD
ROOT
HETATM    1  O   UNL     1     -10.986   4.574  65.502  1.00  0.00    -0.247 OA 
HETATM    2  C   UNL     1      -9.780   4.363  66.086  1.00  0.00    -0.214 C  
HETATM    3  O   UNL     1      -9.085   3.398  65.797  1.00  0.00    -0.141 OA 
HETATM    4  C   UNL     1      -9.346   5.448  67.050  1.00  0.00    -0.121 C  
ENDROOT
BRANCH   4   5
HETATM    5  S   UNL     1     -10.794   6.315  67.780  1.00  0.00    -0.338 SA 
BRANCH   5   6
HETATM    6  C   UNL     1     -10.507   7.982  67.109  1.00  0.00    -0.338 C  
BRANCH   6   7
HETATM    7  C   UNL     1     -10.301   8.976  68.233  1.00  0.00    -0.209 C  
HETATM    8  O   UNL     1      -9.275   8.984  68.909  1.00  0.00    -0.139 OA 
HETATM    9  N   UNL     1     -11.328   9.888  68.396  1.00  0.00    -0.525 N  
HETATM   10  H   UNL     1     -12.176   9.793  67.839  1.00  0.00     0.000 HD 
BRANCH   9  11
HETATM   11  C   UNL     1     -11.215  10.984  69.356  1.00  0.00    -0.268 C  
HETATM   12  C   UNL     1     -11.750  12.326  68.863  1.00  0.00    -0.380 C  
HETATM   13  C   UNL     1     -12.004  13.204  70.074  1.00  0.00    -0.321 C  
HETATM   14  S   UNL     1     -12.680  12.100  71.343  1.00  0.00    -0.165 SA 
HETATM   15  C   UNL     1     -11.913  10.666  70.674  1.00  0.00    -0.367 C  
HETATM   16  O   UNL     1     -11.898   9.582  71.241  1.00  0.00    -0.316 OA 
ENDBRANCH   9  11
ENDBRANCH   6   7
ENDBRANCH   5   6
ENDBRANCH   4   5
TORSDOF 4
ENDMDL
MODEL      154
REMARK 921   NORMALIZED FREE ENERGY PREDICTED BY IDOCK:   -3.27 KCAL/MOL
REMARK 922        TOTAL FREE ENERGY PREDICTED BY IDOCK:   -4.35 KCAL/MOL
REMARK 923 INTER-LIGAND FREE ENERGY PREDICTED BY IDOCK:   -3.96 KCAL/MOL
REMARK 924 INTRA-LIGAND FREE ENERGY PREDICTED BY IDOCK:   -0.40 KCAL/MOL
REMARK 927      BINDING AFFINITY PREDICTED BY RF-SCORE:    0.00 PKD
ROOT
HETATM    1  O   UNL     1     -12.132  13.300  67.740  1.00  0.00    -0.331 OA 
HETATM    2  C   UNL     1     -11.876  11.969  67.794  1.00  0.00    -0.238 C  
HETATM    3  O   UNL     1     -12.351  11.258  68.670  1.00  0.00    -0.534 OA 
HETATM    4  C   UNL     1     -11.032  11.440  66.652  1.00  0.00    -0.285 C  
ENDROOT
BRANCH   4   5
HETATM    5  S   UNL     1      -9.941  12.750  65.962  1.00  0.00    -0.261 SA 
BRANCH   5   6
HETATM    6  C   UNL     1      -8.562  12.635  67.144  1.00  0.00    -0.199 C  
BRANCH   6   7
HETATM    7  C   UNL     1      -8.092  14.018  67.543  1.00  0.00    -0.186 C  
HETATM    8  O   UNL     1      -6.998  14.202  68.071  1.00  0.00    -0.111 OA 
HETATM    9  N   UNL     1      -8.964  15.042  67.223  1.00  0.00    -0.189 N  
HETATM   10  H   UNL     1      -9.881  14.818  66.835  1.00  0.00     0.000 HD 
BRANCH   9  11
HETATM   11  C   UNL     1      -8.593  16.440  67.432  1.00  0.00    -0.178 C  
HETATM   12  C   UNL     1      -8.342  17.235  66.153  1.00  0.00    -0.238 C  
HETATM   13  C   UNL     1      -8.443  18.711  66.491  1.00  0.00    -0.291 C  
HETATM   14  S   UNL     1      -9.811  18.848  67.673  1.00  0.00    -0.348 SA 
HETATM   15  C   UNL     1      -9.639  17.195  68.246  1.00  0.00    -0.280 C  
HETATM   16  O   UNL     1     -10.240  16.750  69.213  1.00  0.00    -0.288 OA 
ENDBRANCH   9  11
ENDBRANCH   6   7
ENDBRANCH   5   6
ENDBRANCH   4   5
TORSDOF 4
ENDMDL
MODEL      155
REMARK 921   NORMALIZED FREE ENERGY PREDICTED BY IDOCK:   -3.26 KCAL/MOL
REMARK 922        TOTAL FREE ENERGY PREDICTED BY IDOCK:   -4.34 KCAL/MOL
REMARK 923 INTER-LIGAND FREE ENERGY PREDICTED BY IDOCK:   -4.11 KCAL/MOL
REMARK 924 INTRA-LIGAND FREE ENERGY PREDICTED BY IDOCK:   -0.23 KCAL/MOL
REMARK 927      BINDING AFFINITY PREDICTED BY RF-SCORE:    0.00 PKD
ROOT
HETATM    1  O   UNL     1      -8.707   7.921  66.818  1.00  0.00    -0.125 OA 
HETATM    2  C   UNL     1     -10.055   8.069  66.786  1.00  0.00    -0.287 C  
HETATM    3  O   UNL     1     -10.808   7.105  66.795  1.00  0.00    -0.320 OA 
HETATM    4  C   UNL     1     -10.533   9.507  66.815  1.00  0.00    -0.193 C  
ENDROOT
BRANCH   4   5
HETATM    5  S   UNL     1      -9.276  10.646  66.107  1.00  0.00    -0.179 SA 
BRANCH   5   6
HETATM    6  C   UNL     1     -10.325  12.110  65.839  1.00  0.00    -0.255 C  
BRANCH   6   7
HETATM    7  C   UNL     1      -9.901  13.238  66.755  1.00  0.00    -0.264 C  
HETATM    8  O   UNL     1     -10.104  13.199  67.966  1.00  0.00    -0.219 OA 
HETATM    9  N   UNL     1      -9.233  14.274  66.129  1.00  0.00    -0.510 N  
HETATM   10  H   UNL     1      -9.144  14.273  65.113  1.00  0.00     0.000 HD 
BRANCH   9  11
HETATM   11  C   UNL     1      -8.652  15.371  66.900  1.00  0.00    -0.259 C  
HETATM   12  C   UNL     1      -7.206  15.153  67.338  1.00  0.00    -0.231 C  
HETATM   13  C   UNL     1      -6.612  16.506  67.685  1.00  0.00    -0.148 C  
HETATM   14  S   UNL     1      -7.273  17.659  66.453  1.00  0.00    -0.312 SA 
HETATM   15  C   UNL     1      -8.711  16.696  66.147  1.00  0.00    -0.287 C  
HETATM   16  O   UNL     1      -9.652  17.084  65.469  1.00  0.00    -0.522 OA 
ENDBRANCH   9  11
ENDBRANCH   6   7
ENDBRANCH   5   6
ENDBRANCH   4   5
TORSDOF 4
ENDMDL
MODEL      156
REMARK 921   NORMALIZED FREE ENERGY PREDICTED BY IDOCK:   -3.25 KCAL/MOL
REMARK 922        TOTAL FREE ENERGY PREDICTED BY IDOCK:   -4.33 KCAL/MOL
REMARK 923 INTER-LIGAND FREE ENERGY PREDICTED BY IDOCK:   -4.59 KCAL/MOL
REMARK 924 INTRA-LIGAND FREE ENERGY PREDICTED BY IDOCK:    0.26 KCAL/MOL
REMARK 927      BINDING AFFINITY PREDICTED BY RF-SCORE:    0.00 PKD
ROOT
HETATM    1  O   UNL     1     -12.650  10.732  71.207  1.00  0.00    -0.368 OA 
HETATM    2  C   UNL     1     -11.718  11.187  70.333  1.00  0.00    -0.320 C  
HETATM    3  O   UNL     1     -10.871  10.447  69.852  1.00  0.00    -0.268 OA 
HETATM    4  C   UNL     1     -11.866  12.647  69.955  1.00  0.00    -0.294 C  
ENDROOT
BRANCH   4   5
HETATM    5  S   UNL     1     -12.697  13.604  71.287  1.00  0.00    -0.332 SA 
BRANCH   5   6
HETATM    6  C   UNL     1     -11.650  15.093  71.275  1.00  0.00    -0.358 C  
BRANCH   6   7
HETATM    7  C   UNL     1     -11.368  15.528  69.852  1.00  0.00    -0.314 C  
HETATM    8  O   UNL     1     -12.273  15.816  69.073  1.00  0.00    -0.280 OA 
HETATM    9  N   UNL     1     -10.027  15.620  69.528  1.00  0.00    -0.271 N  
HETATM   10  H   UNL     1      -9.326  15.314  70.202  1.00  0.00     0.000 HD 
BRANCH   9  11
HETATM   11  C   UNL     1      -9.599  16.147  68.234  1.00  0.00    -0.216 C  
HETATM   12  C   UNL     1     -10.253  15.486  67.024  1.00  0.00    -0.271 C  
HETATM   13  C   UNL     1     -10.093  16.417  65.836  1.00  0.00    -0.347 C  
HETATM   14  S   UNL     1     -10.330  18.090  66.493  1.00  0.00    -0.350 SA 
HETATM   15  C   UNL     1      -9.835  17.650  68.121  1.00  0.00    -0.318 C  
HETATM   16  O   UNL     1      -9.646  18.465  69.013  1.00  0.00    -0.281 OA 
ENDBRANCH   9  11
ENDBRANCH   6   7
ENDBRANCH   5   6
ENDBRANCH   4   5
TORSDOF 4
ENDMDL
MODEL      157
REMARK 921   NORMALIZED FREE ENERGY PREDICTED BY IDOCK:   -3.24 KCAL/MOL
REMARK 922        TOTAL FREE ENERGY PREDICTED BY IDOCK:   -4.31 KCAL/MOL
REMARK 923 INTER-LIGAND FREE ENERGY PREDICTED BY IDOCK:   -5.11 KCAL/MOL
REMARK 924 INTRA-LIGAND FREE ENERGY PREDICTED BY IDOCK:    0.80 KCAL/MOL
REMARK 927      BINDING AFFINITY PREDICTED BY RF-SCORE:    0.00 PKD
ROOT
HETATM    1  O   UNL     1     -14.151  13.638  72.654  1.00  0.00    -0.746 OA 
HETATM    2  C   UNL     1     -13.666  14.406  71.647  1.00  0.00    -0.404 C  
HETATM    3  O   UNL     1     -14.136  15.508  71.395  1.00  0.00    -0.523 OA 
HETATM    4  C   UNL     1     -12.465  13.824  70.930  1.00  0.00    -0.377 C  
ENDROOT
BRANCH   4   5
HETATM    5  S   UNL     1     -12.451  11.988  71.026  1.00  0.00    -0.170 SA 
BRANCH   5   6
HETATM    6  C   UNL     1     -12.101  11.605  69.282  1.00  0.00    -0.259 C  
BRANCH   6   7
HETATM    7  C   UNL     1     -11.412  12.776  68.613  1.00  0.00    -0.303 C  
HETATM    8  O   UNL     1     -12.027  13.571  67.907  1.00  0.00    -0.357 OA 
HETATM    9  N   UNL     1     -10.065  12.897  68.901  1.00  0.00    -0.431 N  
HETATM   10  H   UNL     1      -9.601  12.174  69.449  1.00  0.00     0.000 HD 
BRANCH   9  11
HETATM   11  C   UNL     1      -9.295  14.047  68.431  1.00  0.00    -0.210 C  
HETATM   12  C   UNL     1      -9.317  14.260  66.920  1.00  0.00    -0.268 C  
HETATM   13  C   UNL     1      -8.906  15.694  66.641  1.00  0.00    -0.292 C  
HETATM   14  S   UNL     1      -9.679  16.685  67.947  1.00  0.00    -0.248 SA 
HETATM   15  C   UNL     1      -9.750  15.348  69.086  1.00  0.00    -0.252 C  
HETATM   16  O   UNL     1     -10.061  15.478  70.261  1.00  0.00    -0.270 OA 
ENDBRANCH   9  11
ENDBRANCH   6   7
ENDBRANCH   5   6
ENDBRANCH   4   5
TORSDOF 4
ENDMDL
MODEL      158
REMARK 921   NORMALIZED FREE ENERGY PREDICTED BY IDOCK:   -3.22 KCAL/MOL
REMARK 922        TOTAL FREE ENERGY PREDICTED BY IDOCK:   -4.29 KCAL/MOL
REMARK 923 INTER-LIGAND FREE ENERGY PREDICTED BY IDOCK:   -4.07 KCAL/MOL
REMARK 924 INTRA-LIGAND FREE ENERGY PREDICTED BY IDOCK:   -0.23 KCAL/MOL
REMARK 927      BINDING AFFINITY PREDICTED BY RF-SCORE:    0.00 PKD
ROOT
HETATM    1  O   UNL     1     -11.009   6.892  66.860  1.00  0.00    -0.377 OA 
HETATM    2  C   UNL     1     -10.490   5.660  67.090  1.00  0.00    -0.270 C  
HETATM    3  O   UNL     1     -10.297   4.863  66.182  1.00  0.00    -0.254 OA 
HETATM    4  C   UNL     1     -10.107   5.395  68.532  1.00  0.00    -0.177 C  
ENDROOT
BRANCH   4   5
HETATM    5  S   UNL     1     -11.114   6.407  69.691  1.00  0.00    -0.423 SA 
BRANCH   5   6
HETATM    6  C   UNL     1      -9.823   7.544  70.286  1.00  0.00    -0.183 C  
BRANCH   6   7
HETATM    7  C   UNL     1     -10.080   8.947  69.779  1.00  0.00    -0.199 C  
HETATM    8  O   UNL     1      -9.461   9.915  70.214  1.00  0.00    -0.232 OA 
HETATM    9  N   UNL     1     -11.019   9.036  68.768  1.00  0.00    -0.438 N  
HETATM   10  H   UNL     1     -11.537   8.203  68.490  1.00  0.00     0.000 HD 
BRANCH   9  11
HETATM   11  C   UNL     1     -11.280  10.305  68.092  1.00  0.00    -0.229 C  
HETATM   12  C   UNL     1     -11.710  11.445  69.012  1.00  0.00    -0.409 C  
HETATM   13  C   UNL     1     -11.480  12.753  68.277  1.00  0.00    -0.314 C  
HETATM   14  S   UNL     1      -9.925  12.537  67.373  1.00  0.00    -0.209 SA 
HETATM   15  C   UNL     1     -10.074  10.788  67.293  1.00  0.00    -0.196 C  
HETATM   16  O   UNL     1      -9.337  10.077  66.624  1.00  0.00    -0.158 OA 
ENDBRANCH   9  11
ENDBRANCH   6   7
ENDBRANCH   5   6
ENDBRANCH   4   5
TORSDOF 4
ENDMDL
MODEL      159
REMARK 921   NORMALIZED FREE ENERGY PREDICTED BY IDOCK:   -3.22 KCAL/MOL
REMARK 922        TOTAL FREE ENERGY PREDICTED BY IDOCK:   -4.29 KCAL/MOL
REMARK 923 INTER-LIGAND FREE ENERGY PREDICTED BY IDOCK:   -4.06 KCAL/MOL
REMARK 924 INTRA-LIGAND FREE ENERGY PREDICTED BY IDOCK:   -0.23 KCAL/MOL
REMARK 927      BINDING AFFINITY PREDICTED BY RF-SCORE:    0.00 PKD
ROOT
HETATM    1  O   UNL     1      -9.184   8.506  72.780  1.00  0.00    -0.250 OA 
HETATM    2  C   UNL     1     -10.346   7.844  73.009  1.00  0.00    -0.334 C  
HETATM    3  O   UNL     1     -10.535   7.214  74.041  1.00  0.00    -0.353 OA 
HETATM    4  C   UNL     1     -11.394   8.015  71.928  1.00  0.00    -0.283 C  
ENDROOT
BRANCH   4   5
HETATM    5  S   UNL     1     -10.623   8.370  70.297  1.00  0.00    -0.229 SA 
BRANCH   5   6
HETATM    6  C   UNL     1     -10.811  10.180  70.271  1.00  0.00    -0.310 C  
BRANCH   6   7
HETATM    7  C   UNL     1     -11.454  10.626  68.974  1.00  0.00    -0.274 C  
HETATM    8  O   UNL     1     -12.674  10.674  68.840  1.00  0.00    -0.070 OA 
HETATM    9  N   UNL     1     -10.564  11.015  67.990  1.00  0.00    -0.192 N  
HETATM   10  H   UNL     1      -9.562  10.900  68.144  1.00  0.00     0.000 HD 
BRANCH   9  11
HETATM   11  C   UNL     1     -11.037  11.588  66.732  1.00  0.00    -0.302 C  
HETATM   12  C   UNL     1     -10.921  13.107  66.634  1.00  0.00    -0.301 C  
HETATM   13  C   UNL     1     -10.986  13.490  65.167  1.00  0.00    -0.320 C  
HETATM   14  S   UNL     1     -10.048  12.213  64.288  1.00  0.00    -0.266 SA 
HETATM   15  C   UNL     1     -10.318  10.993  65.525  1.00  0.00    -0.260 C  
HETATM   16  O   UNL     1     -10.021   9.815  65.388  1.00  0.00    -0.320 OA 
ENDBRANCH   9  11
ENDBRANCH   6   7
ENDBRANCH   5   6
ENDBRANCH   4   5
TORSDOF 4
ENDMDL
MODEL      160
REMARK 921   NORMALIZED FREE ENERGY PREDICTED BY IDOCK:   -3.22 KCAL/MOL
REMARK 922        TOTAL FREE ENERGY PREDICTED BY IDOCK:   -4.29 KCAL/MOL
REMARK 923 INTER-LIGAND FREE ENERGY PREDICTED BY IDOCK:   -3.97 KCAL/MOL
REMARK 924 INTRA-LIGAND FREE ENERGY PREDICTED BY IDOCK:   -0.31 KCAL/MOL
REMARK 927      BINDING AFFINITY PREDICTED BY RF-SCORE:    0.00 PKD
ROOT
HETATM    1  O   UNL     1      -6.497  16.421  67.232  1.00  0.00    -0.157 OA 
HETATM    2  C   UNL     1      -6.240  15.987  68.491  1.00  0.00    -0.111 C  
HETATM    3  O   UNL     1      -5.212  16.292  69.080  1.00  0.00    -0.108 OA 
HETATM    4  C   UNL     1      -7.354  15.172  69.118  1.00  0.00    -0.167 C  
ENDROOT
BRANCH   4   5
HETATM    5  S   UNL     1      -8.366  14.324  67.839  1.00  0.00    -0.177 SA 
BRANCH   5   6
HETATM    6  C   UNL     1      -9.784  15.464  67.785  1.00  0.00    -0.211 C  
BRANCH   6   7
HETATM    7  C   UNL     1     -11.061  14.736  68.152  1.00  0.00    -0.278 C  
HETATM    8  O   UNL     1     -11.945  14.524  67.326  1.00  0.00    -0.405 OA 
HETATM    9  N   UNL     1     -11.121  14.296  69.461  1.00  0.00    -0.346 N  
HETATM   10  H   UNL     1     -10.378  14.552  70.112  1.00  0.00     0.000 HD 
BRANCH   9  11
HETATM   11  C   UNL     1     -12.232  13.470  69.927  1.00  0.00    -0.292 C  
HETATM   12  C   UNL     1     -11.827  12.125  70.524  1.00  0.00    -0.185 C  
HETATM   13  C   UNL     1     -12.982  11.618  71.368  1.00  0.00    -0.324 C  
HETATM   14  S   UNL     1     -13.658  13.080  72.198  1.00  0.00    -0.438 SA 
HETATM   15  C   UNL     1     -13.089  14.193  70.962  1.00  0.00    -0.302 C  
HETATM   16  O   UNL     1     -13.406  15.374  70.919  1.00  0.00    -0.471 OA 
ENDBRANCH   9  11
ENDBRANCH   6   7
ENDBRANCH   5   6
ENDBRANCH   4   5
TORSDOF 4
ENDMDL
MODEL      161
REMARK 921   NORMALIZED FREE ENERGY PREDICTED BY IDOCK:   -3.21 KCAL/MOL
REMARK 922        TOTAL FREE ENERGY PREDICTED BY IDOCK:   -4.28 KCAL/MOL
REMARK 923 INTER-LIGAND FREE ENERGY PREDICTED BY IDOCK:   -3.94 KCAL/MOL
REMARK 924 INTRA-LIGAND FREE ENERGY PREDICTED BY IDOCK:   -0.34 KCAL/MOL
REMARK 927      BINDING AFFINITY PREDICTED BY RF-SCORE:    0.00 PKD
ROOT
HETATM    1  O   UNL     1      -8.590   4.976  65.662  1.00  0.00    -0.125 OA 
HETATM    2  C   UNL     1      -9.272   4.169  66.513  1.00  0.00    -0.156 C  
HETATM    3  O   UNL     1      -9.190   2.950  66.446  1.00  0.00    -0.151 OA 
HETATM    4  C   UNL     1     -10.063   4.899  67.578  1.00  0.00    -0.132 C  
ENDROOT
BRANCH   4   5
HETATM    5  S   UNL     1     -10.551   6.581  67.018  1.00  0.00    -0.351 SA 
BRANCH   5   6
HETATM    6  C   UNL     1      -9.285   7.558  67.887  1.00  0.00    -0.136 C  
BRANCH   6   7
HETATM    7  C   UNL     1      -9.719   7.838  69.310  1.00  0.00    -0.165 C  
HETATM    8  O   UNL     1      -8.953   7.692  70.260  1.00  0.00    -0.145 OA 
HETATM    9  N   UNL     1     -11.011   8.312  69.440  1.00  0.00    -0.431 N  
HETATM   10  H   UNL     1     -11.614   8.358  68.618  1.00  0.00     0.000 HD 
BRANCH   9  11
HETATM   11  C   UNL     1     -11.528   8.745  70.736  1.00  0.00    -0.270 C  
HETATM   12  C   UNL     1     -12.229  10.100  70.727  1.00  0.00    -0.434 C  
HETATM   13  C   UNL     1     -13.097  10.188  71.969  1.00  0.00    -0.437 C  
HETATM   14  S   UNL     1     -13.806   8.535  72.187  1.00  0.00    -0.375 SA 
HETATM   15  C   UNL     1     -12.495   7.730  71.337  1.00  0.00    -0.320 C  
HETATM   16  O   UNL     1     -12.358   6.515  71.302  1.00  0.00    -0.317 OA 
ENDBRANCH   9  11
ENDBRANCH   6   7
ENDBRANCH   5   6
ENDBRANCH   4   5
TORSDOF 4
ENDMDL
MODEL      162
REMARK 921   NORMALIZED FREE ENERGY PREDICTED BY IDOCK:   -3.20 KCAL/MOL
REMARK 922        TOTAL FREE ENERGY PREDICTED BY IDOCK:   -4.27 KCAL/MOL
REMARK 923 INTER-LIGAND FREE ENERGY PREDICTED BY IDOCK:   -4.48 KCAL/MOL
REMARK 924 INTRA-LIGAND FREE ENERGY PREDICTED BY IDOCK:    0.21 KCAL/MOL
REMARK 927      BINDING AFFINITY PREDICTED BY RF-SCORE:    0.00 PKD
ROOT
HETATM    1  O   UNL     1     -13.148  14.093  65.086  1.00  0.00    -0.757 OA 
HETATM    2  C   UNL     1     -12.595  12.956  64.594  1.00  0.00    -0.391 C  
HETATM    3  O   UNL     1     -13.248  12.152  63.944  1.00  0.00    -0.748 OA 
HETATM    4  C   UNL     1     -11.108  12.815  64.850  1.00  0.00    -0.292 C  
ENDROOT
BRANCH   4   5
HETATM    5  S   UNL     1     -10.598  13.732  66.360  1.00  0.00    -0.287 SA 
BRANCH   5   6
HETATM    6  C   UNL     1     -11.527  12.784  67.606  1.00  0.00    -0.334 C  
BRANCH   6   7
HETATM    7  C   UNL     1     -10.731  11.576  68.053  1.00  0.00    -0.202 C  
HETATM    8  O   UNL     1     -11.089  10.432  67.785  1.00  0.00    -0.295 OA 
HETATM    9  N   UNL     1      -9.563  11.870  68.732  1.00  0.00    -0.393 N  
HETATM   10  H   UNL     1      -9.351  12.838  68.970  1.00  0.00     0.000 HD 
BRANCH   9  11
HETATM   11  C   UNL     1      -8.629  10.813  69.114  1.00  0.00    -0.088 C  
HETATM   12  C   UNL     1      -9.255   9.646  69.872  1.00  0.00    -0.255 C  
HETATM   13  C   UNL     1      -8.310   8.462  69.775  1.00  0.00    -0.125 C  
HETATM   14  S   UNL     1      -7.645   8.506  68.089  1.00  0.00    -0.099 SA 
HETATM   15  C   UNL     1      -7.891  10.238  67.910  1.00  0.00    -0.101 C  
HETATM   16  O   UNL     1      -7.460  10.887  66.967  1.00  0.00    -0.109 OA 
ENDBRANCH   9  11
ENDBRANCH   6   7
ENDBRANCH   5   6
ENDBRANCH   4   5
TORSDOF 4
ENDMDL
MODEL      163
REMARK 921   NORMALIZED FREE ENERGY PREDICTED BY IDOCK:   -3.20 KCAL/MOL
REMARK 922        TOTAL FREE ENERGY PREDICTED BY IDOCK:   -4.26 KCAL/MOL
REMARK 923 INTER-LIGAND FREE ENERGY PREDICTED BY IDOCK:   -3.98 KCAL/MOL
REMARK 924 INTRA-LIGAND FREE ENERGY PREDICTED BY IDOCK:   -0.28 KCAL/MOL
REMARK 927      BINDING AFFINITY PREDICTED BY RF-SCORE:    0.00 PKD
ROOT
HETATM    1  O   UNL     1     -10.791   5.955  71.894  1.00  0.00    -0.236 OA 
HETATM    2  C   UNL     1     -10.642   5.988  70.546  1.00  0.00    -0.266 C  
HETATM    3  O   UNL     1     -10.297   4.999  69.913  1.00  0.00    -0.279 OA 
HETATM    4  C   UNL     1     -11.010   7.309  69.902  1.00  0.00    -0.243 C  
ENDROOT
BRANCH   4   5
HETATM    5  S   UNL     1     -10.797   8.709  71.074  1.00  0.00    -0.265 SA 
BRANCH   5   6
HETATM    6  C   UNL     1      -9.201   9.351  70.477  1.00  0.00    -0.259 C  
BRANCH   6   7
HETATM    7  C   UNL     1      -9.387  10.096  69.172  1.00  0.00    -0.197 C  
HETATM    8  O   UNL     1      -9.111   9.584  68.090  1.00  0.00    -0.127 OA 
HETATM    9  N   UNL     1      -9.932  11.360  69.298  1.00  0.00    -0.424 N  
HETATM   10  H   UNL     1     -10.088  11.749  70.228  1.00  0.00     0.000 HD 
BRANCH   9  11
HETATM   11  C   UNL     1     -10.286  12.149  68.120  1.00  0.00    -0.207 C  
HETATM   12  C   UNL     1     -11.784  12.269  67.855  1.00  0.00    -0.410 C  
HETATM   13  C   UNL     1     -12.005  13.458  66.937  1.00  0.00    -0.385 C  
HETATM   14  S   UNL     1     -10.836  14.727  67.493  1.00  0.00    -0.295 SA 
HETATM   15  C   UNL     1      -9.714  13.561  68.182  1.00  0.00    -0.233 C  
HETATM   16  O   UNL     1      -8.600  13.857  68.590  1.00  0.00    -0.155 OA 
ENDBRANCH   9  11
ENDBRANCH   6   7
ENDBRANCH   5   6
ENDBRANCH   4   5
TORSDOF 4
ENDMDL
MODEL      164
REMARK 921   NORMALIZED FREE ENERGY PREDICTED BY IDOCK:   -3.18 KCAL/MOL
REMARK 922        TOTAL FREE ENERGY PREDICTED BY IDOCK:   -4.25 KCAL/MOL
REMARK 923 INTER-LIGAND FREE ENERGY PREDICTED BY IDOCK:   -4.63 KCAL/MOL
REMARK 924 INTRA-LIGAND FREE ENERGY PREDICTED BY IDOCK:    0.38 KCAL/MOL
REMARK 927      BINDING AFFINITY PREDICTED BY RF-SCORE:    0.00 PKD
ROOT
HETATM    1  O   UNL     1     -10.074  13.565  64.387  1.00  0.00    -0.339 OA 
HETATM    2  C   UNL     1     -11.025  14.392  64.888  1.00  0.00    -0.406 C  
HETATM    3  O   UNL     1     -11.828  14.963  64.162  1.00  0.00    -0.329 OA 
HETATM    4  C   UNL     1     -11.052  14.481  66.400  1.00  0.00    -0.331 C  
ENDROOT
BRANCH   4   5
HETATM    5  S   UNL     1      -9.398  14.129  67.123  1.00  0.00    -0.247 SA 
BRANCH   5   6
HETATM    6  C   UNL     1      -9.512  15.150  68.626  1.00  0.00    -0.206 C  
BRANCH   6   7
HETATM    7  C   UNL     1      -9.485  16.621  68.268  1.00  0.00    -0.230 C  
HETATM    8  O   UNL     1      -8.436  17.260  68.238  1.00  0.00    -0.227 OA 
HETATM    9  N   UNL     1     -10.714  17.160  67.936  1.00  0.00    -0.372 N  
HETATM   10  H   UNL     1     -11.555  16.591  68.034  1.00  0.00     0.000 HD 
BRANCH   9  11
HETATM   11  C   UNL     1     -10.827  18.533  67.448  1.00  0.00    -0.294 C  
HETATM   12  C   UNL     1     -10.077  19.572  68.276  1.00  0.00    -0.542 C  
HETATM   13  C   UNL     1      -9.888  20.810  67.418  1.00  0.00    -0.294 C  
HETATM   14  S   UNL     1      -9.527  20.197  65.751  1.00  0.00     0.156 SA 
HETATM   15  C   UNL     1     -10.357  18.668  66.003  1.00  0.00    -0.399 C  
HETATM   16  O   UNL     1     -10.577  17.863  65.109  1.00  0.00    -0.573 OA 
ENDBRANCH   9  11
ENDBRANCH   6   7
ENDBRANCH   5   6
ENDBRANCH   4   5
TORSDOF 4
ENDMDL
MODEL      165
REMARK 921   NORMALIZED FREE ENERGY PREDICTED BY IDOCK:   -3.17 KCAL/MOL
REMARK 922        TOTAL FREE ENERGY PREDICTED BY IDOCK:   -4.24 KCAL/MOL
REMARK 923 INTER-LIGAND FREE ENERGY PREDICTED BY IDOCK:   -3.96 KCAL/MOL
REMARK 924 INTRA-LIGAND FREE ENERGY PREDICTED BY IDOCK:   -0.28 KCAL/MOL
REMARK 927      BINDING AFFINITY PREDICTED BY RF-SCORE:    0.00 PKD
ROOT
HETATM    1  O   UNL     1      -9.185  19.023  66.259  1.00  0.00    -0.332 OA 
HETATM    2  C   UNL     1     -10.161  18.892  67.191  1.00  0.00    -0.383 C  
HETATM    3  O   UNL     1     -10.921  19.813  67.462  1.00  0.00    -0.373 OA 
HETATM    4  C   UNL     1     -10.274  17.508  67.798  1.00  0.00    -0.349 C  
ENDROOT
BRANCH   4   5
HETATM    5  S   UNL     1      -8.665  16.620  67.747  1.00  0.00    -0.203 SA 
BRANCH   5   6
HETATM    6  C   UNL     1      -9.068  15.353  66.504  1.00  0.00    -0.300 C  
BRANCH   6   7
HETATM    7  C   UNL     1      -8.903  13.967  67.091  1.00  0.00    -0.226 C  
HETATM    8  O   UNL     1      -8.684  13.793  68.287  1.00  0.00    -0.172 OA 
HETATM    9  N   UNL     1      -9.068  12.932  66.189  1.00  0.00    -0.449 N  
HETATM   10  H   UNL     1      -9.194  13.143  65.199  1.00  0.00     0.000 HD 
BRANCH   9  11
HETATM   11  C   UNL     1      -9.064  11.539  66.632  1.00  0.00    -0.190 C  
HETATM   12  C   UNL     1     -10.176  10.675  66.045  1.00  0.00    -0.309 C  
HETATM   13  C   UNL     1      -9.773   9.220  66.200  1.00  0.00    -0.279 C  
HETATM   14  S   UNL     1      -7.991   9.171  65.871  1.00  0.00    -0.108 SA 
HETATM   15  C   UNL     1      -7.737  10.847  66.335  1.00  0.00    -0.154 C  
HETATM   16  O   UNL     1      -6.631  11.353  66.462  1.00  0.00    -0.129 OA 
ENDBRANCH   9  11
ENDBRANCH   6   7
ENDBRANCH   5   6
ENDBRANCH   4   5
TORSDOF 4
ENDMDL
MODEL      166
REMARK 921   NORMALIZED FREE ENERGY PREDICTED BY IDOCK:   -3.17 KCAL/MOL
REMARK 922        TOTAL FREE ENERGY PREDICTED BY IDOCK:   -4.23 KCAL/MOL
REMARK 923 INTER-LIGAND FREE ENERGY PREDICTED BY IDOCK:   -4.02 KCAL/MOL
REMARK 924 INTRA-LIGAND FREE ENERGY PREDICTED BY IDOCK:   -0.22 KCAL/MOL
REMARK 927      BINDING AFFINITY PREDICTED BY RF-SCORE:    0.00 PKD
ROOT
HETATM    1  O   UNL     1      -8.608   6.179  67.687  1.00  0.00    -0.108 OA 
HETATM    2  C   UNL     1      -9.819   6.127  67.078  1.00  0.00    -0.149 C  
HETATM    3  O   UNL     1     -10.306   5.069  66.703  1.00  0.00    -0.244 OA 
HETATM    4  C   UNL     1     -10.533   7.460  66.978  1.00  0.00    -0.333 C  
ENDROOT
BRANCH   4   5
HETATM    5  S   UNL     1      -9.341   8.860  66.956  1.00  0.00    -0.161 SA 
BRANCH   5   6
HETATM    6  C   UNL     1      -9.222   9.114  65.157  1.00  0.00    -0.153 C  
BRANCH   6   7
HETATM    7  C   UNL     1      -9.840  10.441  64.770  1.00  0.00    -0.340 C  
HETATM    8  O   UNL     1     -10.387  10.606  63.682  1.00  0.00    -0.268 OA 
HETATM    9  N   UNL     1      -9.782  11.416  65.748  1.00  0.00    -0.224 N  
HETATM   10  H   UNL     1      -9.266  11.234  66.608  1.00  0.00     0.000 HD 
BRANCH   9  11
HETATM   11  C   UNL     1     -10.447  12.705  65.567  1.00  0.00    -0.281 C  
HETATM   12  C   UNL     1     -11.957  12.684  65.785  1.00  0.00    -0.503 C  
HETATM   13  C   UNL     1     -12.415  14.109  66.034  1.00  0.00    -0.425 C  
HETATM   14  S   UNL     1     -11.123  14.866  67.054  1.00  0.00    -0.341 SA 
HETATM   15  C   UNL     1      -9.865  13.783  66.475  1.00  0.00    -0.290 C  
HETATM   16  O   UNL     1      -8.677  13.932  66.727  1.00  0.00    -0.196 OA 
ENDBRANCH   9  11
ENDBRANCH   6   7
ENDBRANCH   5   6
ENDBRANCH   4   5
TORSDOF 4
ENDMDL
MODEL      167
REMARK 921   NORMALIZED FREE ENERGY PREDICTED BY IDOCK:   -3.17 KCAL/MOL
REMARK 922        TOTAL FREE ENERGY PREDICTED BY IDOCK:   -4.23 KCAL/MOL
REMARK 923 INTER-LIGAND FREE ENERGY PREDICTED BY IDOCK:   -4.46 KCAL/MOL
REMARK 924 INTRA-LIGAND FREE ENERGY PREDICTED BY IDOCK:    0.23 KCAL/MOL
REMARK 927      BINDING AFFINITY PREDICTED BY RF-SCORE:    0.00 PKD
ROOT
HETATM    1  O   UNL     1     -13.331  12.326  72.175  1.00  0.00    -0.526 OA 
HETATM    2  C   UNL     1     -12.659  12.034  71.033  1.00  0.00    -0.273 C  
HETATM    3  O   UNL     1     -12.360  12.902  70.223  1.00  0.00    -0.299 OA 
HETATM    4  C   UNL     1     -12.252  10.582  70.893  1.00  0.00    -0.388 C  
ENDROOT
BRANCH   4   5
HETATM    5  S   UNL     1     -13.387   9.474  71.823  1.00  0.00    -0.429 SA 
BRANCH   5   6
HETATM    6  C   UNL     1     -12.164   8.319  72.518  1.00  0.00    -0.307 C  
BRANCH   6   7
HETATM    7  C   UNL     1     -11.315   7.722  71.416  1.00  0.00    -0.251 C  
HETATM    8  O   UNL     1     -10.102   7.908  71.361  1.00  0.00    -0.174 OA 
HETATM    9  N   UNL     1     -12.003   6.923  70.521  1.00  0.00    -0.543 N  
HETATM   10  H   UNL     1     -13.018   6.852  70.589  1.00  0.00     0.000 HD 
BRANCH   9  11
HETATM   11  C   UNL     1     -11.298   6.178  69.480  1.00  0.00    -0.356 C  
HETATM   12  C   UNL     1     -10.638   7.042  68.409  1.00  0.00    -0.240 C  
HETATM   13  C   UNL     1      -9.587   6.200  67.709  1.00  0.00    -0.114 C  
HETATM   14  S   UNL     1      -8.815   5.203  69.011  1.00  0.00    -0.093 SA 
HETATM   15  C   UNL     1     -10.226   5.260  70.058  1.00  0.00    -0.288 C  
HETATM   16  O   UNL     1     -10.338   4.593  71.076  1.00  0.00    -0.176 OA 
ENDBRANCH   9  11
ENDBRANCH   6   7
ENDBRANCH   5   6
ENDBRANCH   4   5
TORSDOF 4
ENDMDL
MODEL      168
REMARK 921   NORMALIZED FREE ENERGY PREDICTED BY IDOCK:   -3.16 KCAL/MOL
REMARK 922        TOTAL FREE ENERGY PREDICTED BY IDOCK:   -4.22 KCAL/MOL
REMARK 923 INTER-LIGAND FREE ENERGY PREDICTED BY IDOCK:   -3.86 KCAL/MOL
REMARK 924 INTRA-LIGAND FREE ENERGY PREDICTED BY IDOCK:   -0.37 KCAL/MOL
REMARK 927      BINDING AFFINITY PREDICTED BY RF-SCORE:    0.00 PKD
ROOT
HETATM    1  O   UNL     1     -11.891   8.290  72.943  1.00  0.00    -0.337 OA 
HETATM    2  C   UNL     1     -12.615   8.665  71.859  1.00  0.00    -0.359 C  
HETATM    3  O   UNL     1     -13.803   8.391  71.752  1.00  0.00    -0.374 OA 
HETATM    4  C   UNL     1     -11.856   9.503  70.851  1.00  0.00    -0.309 C  
ENDROOT
BRANCH   4   5
HETATM    5  S   UNL     1     -10.052   9.152  70.910  1.00  0.00    -0.308 SA 
BRANCH   5   6
HETATM    6  C   UNL     1     -10.021   7.612  69.941  1.00  0.00    -0.190 C  
BRANCH   6   7
HETATM    7  C   UNL     1     -10.404   7.887  68.502  1.00  0.00    -0.200 C  
HETATM    8  O   UNL     1     -11.148   7.135  67.876  1.00  0.00    -0.118 OA 
HETATM    9  N   UNL     1      -9.894   9.061  67.979  1.00  0.00    -0.160 N  
HETATM   10  H   UNL     1      -9.238   9.613  68.532  1.00  0.00     0.000 HD 
BRANCH   9  11
HETATM   11  C   UNL     1     -10.279   9.522  66.647  1.00  0.00    -0.240 C  
HETATM   12  C   UNL     1     -10.549  11.020  66.540  1.00  0.00    -0.310 C  
HETATM   13  C   UNL     1     -10.462  11.410  65.076  1.00  0.00    -0.303 C  
HETATM   14  S   UNL     1      -9.087  10.444  64.395  1.00  0.00    -0.255 SA 
HETATM   15  C   UNL     1      -9.236   9.165  65.593  1.00  0.00    -0.234 C  
HETATM   16  O   UNL     1      -8.622   8.109  65.533  1.00  0.00    -0.158 OA 
ENDBRANCH   9  11
ENDBRANCH   6   7
ENDBRANCH   5   6
ENDBRANCH   4   5
TORSDOF 4
ENDMDL
MODEL      169
REMARK 921   NORMALIZED FREE ENERGY PREDICTED BY IDOCK:   -3.16 KCAL/MOL
REMARK 922        TOTAL FREE ENERGY PREDICTED BY IDOCK:   -4.22 KCAL/MOL
REMARK 923 INTER-LIGAND FREE ENERGY PREDICTED BY IDOCK:   -4.09 KCAL/MOL
REMARK 924 INTRA-LIGAND FREE ENERGY PREDICTED BY IDOCK:   -0.13 KCAL/MOL
REMARK 927      BINDING AFFINITY PREDICTED BY RF-SCORE:    0.00 PKD
ROOT
HETATM    1  O   UNL     1      -9.149   9.034  64.772  1.00  0.00    -0.165 OA 
HETATM    2  C   UNL     1      -8.559   9.817  65.709  1.00  0.00    -0.135 C  
HETATM    3  O   UNL     1      -7.720   9.374  66.482  1.00  0.00    -0.093 OA 
HETATM    4  C   UNL     1      -8.968  11.275  65.662  1.00  0.00    -0.163 C  
ENDROOT
BRANCH   4   5
HETATM    5  S   UNL     1     -10.651  11.478  64.949  1.00  0.00    -0.306 SA 
BRANCH   5   6
HETATM    6  C   UNL     1     -10.479  13.155  64.264  1.00  0.00    -0.389 C  
BRANCH   6   7
HETATM    7  C   UNL     1     -10.516  14.185  65.374  1.00  0.00    -0.357 C  
HETATM    8  O   UNL     1     -11.572  14.676  65.765  1.00  0.00    -0.351 OA 
HETATM    9  N   UNL     1      -9.286  14.482  65.932  1.00  0.00    -0.527 N  
HETATM   10  H   UNL     1      -8.441  14.081  65.525  1.00  0.00     0.000 HD 
BRANCH   9  11
HETATM   11  C   UNL     1      -9.179  15.361  67.094  1.00  0.00    -0.213 C  
HETATM   12  C   UNL     1      -8.564  14.715  68.333  1.00  0.00    -0.169 C  
HETATM   13  C   UNL     1      -8.090  15.823  69.254  1.00  0.00    -0.241 C  
HETATM   14  S   UNL     1      -7.399  17.099  68.167  1.00  0.00    -0.210 SA 
HETATM   15  C   UNL     1      -8.379  16.622  66.787  1.00  0.00    -0.235 C  
HETATM   16  O   UNL     1      -8.446  17.269  65.751  1.00  0.00    -0.532 OA 
ENDBRANCH   9  11
ENDBRANCH   6   7
ENDBRANCH   5   6
ENDBRANCH   4   5
TORSDOF 4
ENDMDL
MODEL      170
REMARK 921   NORMALIZED FREE ENERGY PREDICTED BY IDOCK:   -3.15 KCAL/MOL
REMARK 922        TOTAL FREE ENERGY PREDICTED BY IDOCK:   -4.21 KCAL/MOL
REMARK 923 INTER-LIGAND FREE ENERGY PREDICTED BY IDOCK:   -4.30 KCAL/MOL
REMARK 924 INTRA-LIGAND FREE ENERGY PREDICTED BY IDOCK:    0.09 KCAL/MOL
REMARK 927      BINDING AFFINITY PREDICTED BY RF-SCORE:    0.00 PKD
ROOT
HETATM    1  O   UNL     1      -9.662   6.736  68.847  1.00  0.00    -0.137 OA 
HETATM    2  C   UNL     1      -9.371   7.898  69.483  1.00  0.00    -0.156 C  
HETATM    3  O   UNL     1      -9.167   7.938  70.689  1.00  0.00    -0.155 OA 
HETATM    4  C   UNL     1      -9.248   9.103  68.572  1.00  0.00    -0.136 C  
ENDROOT
BRANCH   4   5
HETATM    5  S   UNL     1     -10.254   8.896  67.047  1.00  0.00    -0.278 SA 
BRANCH   5   6
HETATM    6  C   UNL     1     -10.223  10.612  66.441  1.00  0.00    -0.234 C  
BRANCH   6   7
HETATM    7  C   UNL     1     -11.195  11.467  67.227  1.00  0.00    -0.301 C  
HETATM    8  O   UNL     1     -12.133  10.975  67.848  1.00  0.00    -0.600 OA 
HETATM    9  N   UNL     1     -10.909  12.820  67.225  1.00  0.00    -0.247 N  
HETATM   10  H   UNL     1     -10.147  13.172  66.646  1.00  0.00     0.000 HD 
BRANCH   9  11
HETATM   11  C   UNL     1     -11.682  13.754  68.042  1.00  0.00    -0.355 C  
HETATM   12  C   UNL     1     -11.747  13.406  69.526  1.00  0.00    -0.385 C  
HETATM   13  C   UNL     1     -12.145  14.659  70.285  1.00  0.00    -0.319 C  
HETATM   14  S   UNL     1     -11.275  16.022  69.467  1.00  0.00    -0.353 SA 
HETATM   15  C   UNL     1     -11.162  15.183  67.926  1.00  0.00    -0.329 C  
HETATM   16  O   UNL     1     -10.777  15.715  66.894  1.00  0.00    -0.311 OA 
ENDBRANCH   9  11
ENDBRANCH   6   7
ENDBRANCH   5   6
ENDBRANCH   4   5
TORSDOF 4
ENDMDL
MODEL      171
REMARK 921   NORMALIZED FREE ENERGY PREDICTED BY IDOCK:   -3.14 KCAL/MOL
REMARK 922        TOTAL FREE ENERGY PREDICTED BY IDOCK:   -4.19 KCAL/MOL
REMARK 923 INTER-LIGAND FREE ENERGY PREDICTED BY IDOCK:   -4.34 KCAL/MOL
REMARK 924 INTRA-LIGAND FREE ENERGY PREDICTED BY IDOCK:    0.15 KCAL/MOL
REMARK 927      BINDING AFFINITY PREDICTED BY RF-SCORE:    0.00 PKD
ROOT
HETATM    1  O   UNL     1     -11.572  13.584  67.048  1.00  0.00    -0.323 OA 
HETATM    2  C   UNL     1     -10.439  13.754  66.322  1.00  0.00    -0.291 C  
HETATM    3  O   UNL     1      -9.810  12.802  65.879  1.00  0.00    -0.263 OA 
HETATM    4  C   UNL     1     -10.074  15.199  66.050  1.00  0.00    -0.302 C  
ENDROOT
BRANCH   4   5
HETATM    5  S   UNL     1     -10.730  16.314  67.356  1.00  0.00    -0.244 SA 
BRANCH   5   6
HETATM    6  C   UNL     1      -9.410  16.124  68.595  1.00  0.00    -0.222 C  
BRANCH   6   7
HETATM    7  C   UNL     1      -8.391  17.235  68.455  1.00  0.00    -0.267 C  
HETATM    8  O   UNL     1      -7.206  17.001  68.228  1.00  0.00    -0.182 OA 
HETATM    9  N   UNL     1      -8.909  18.513  68.554  1.00  0.00    -0.327 N  
HETATM   10  H   UNL     1      -9.891  18.640  68.798  1.00  0.00     0.000 HD 
BRANCH   9  11
HETATM   11  C   UNL     1      -8.070  19.686  68.314  1.00  0.00    -0.321 C  
HETATM   12  C   UNL     1      -6.860  19.809  69.236  1.00  0.00    -0.370 C  
HETATM   13  C   UNL     1      -5.867  20.753  68.585  1.00  0.00    -0.356 C  
HETATM   14  S   UNL     1      -5.921  20.372  66.814  1.00  0.00    -0.187 SA 
HETATM   15  C   UNL     1      -7.562  19.743  66.877  1.00  0.00    -0.260 C  
HETATM   16  O   UNL     1      -8.215  19.459  65.883  1.00  0.00    -0.425 OA 
ENDBRANCH   9  11
ENDBRANCH   6   7
ENDBRANCH   5   6
ENDBRANCH   4   5
TORSDOF 4
ENDMDL
MODEL      172
REMARK 921   NORMALIZED FREE ENERGY PREDICTED BY IDOCK:   -3.14 KCAL/MOL
REMARK 922        TOTAL FREE ENERGY PREDICTED BY IDOCK:   -4.19 KCAL/MOL
REMARK 923 INTER-LIGAND FREE ENERGY PREDICTED BY IDOCK:   -4.35 KCAL/MOL
REMARK 924 INTRA-LIGAND FREE ENERGY PREDICTED BY IDOCK:    0.16 KCAL/MOL
REMARK 927      BINDING AFFINITY PREDICTED BY RF-SCORE:    0.00 PKD
ROOT
HETATM    1  O   UNL     1     -10.412   8.386  70.709  1.00  0.00    -0.192 OA 
HETATM    2  C   UNL     1     -11.365   9.259  71.120  1.00  0.00    -0.342 C  
HETATM    3  O   UNL     1     -12.023   9.063  72.133  1.00  0.00    -0.357 OA 
HETATM    4  C   UNL     1     -11.482  10.511  70.274  1.00  0.00    -0.333 C  
ENDROOT
BRANCH   4   5
HETATM    5  S   UNL     1     -10.930  10.207  68.547  1.00  0.00    -0.210 SA 
BRANCH   5   6
HETATM    6  C   UNL     1      -9.293  11.001  68.619  1.00  0.00    -0.194 C  
BRANCH   6   7
HETATM    7  C   UNL     1      -9.290  12.279  67.808  1.00  0.00    -0.194 C  
HETATM    8  O   UNL     1      -9.101  12.274  66.594  1.00  0.00    -0.204 OA 
HETATM    9  N   UNL     1      -9.563  13.426  68.531  1.00  0.00    -0.356 N  
HETATM   10  H   UNL     1      -9.656  13.370  69.545  1.00  0.00     0.000 HD 
BRANCH   9  11
HETATM   11  C   UNL     1      -9.719  14.717  67.865  1.00  0.00    -0.216 C  
HETATM   12  C   UNL     1      -8.503  15.178  67.066  1.00  0.00    -0.259 C  
HETATM   13  C   UNL     1      -8.961  16.238  66.082  1.00  0.00    -0.339 C  
HETATM   14  S   UNL     1     -10.578  15.680  65.483  1.00  0.00    -0.423 SA 
HETATM   15  C   UNL     1     -10.921  14.736  66.925  1.00  0.00    -0.328 C  
HETATM   16  O   UNL     1     -12.008  14.225  67.156  1.00  0.00    -0.405 OA 
ENDBRANCH   9  11
ENDBRANCH   6   7
ENDBRANCH   5   6
ENDBRANCH   4   5
TORSDOF 4
ENDMDL
MODEL      173
REMARK 921   NORMALIZED FREE ENERGY PREDICTED BY IDOCK:   -3.12 KCAL/MOL
REMARK 922        TOTAL FREE ENERGY PREDICTED BY IDOCK:   -4.17 KCAL/MOL
REMARK 923 INTER-LIGAND FREE ENERGY PREDICTED BY IDOCK:   -3.64 KCAL/MOL
REMARK 924 INTRA-LIGAND FREE ENERGY PREDICTED BY IDOCK:   -0.53 KCAL/MOL
REMARK 927      BINDING AFFINITY PREDICTED BY RF-SCORE:    0.00 PKD
ROOT
HETATM    1  O   UNL     1      -7.970   6.371  69.089  1.00  0.00    -0.107 OA 
HETATM    2  C   UNL     1      -8.426   6.587  67.830  1.00  0.00    -0.118 C  
HETATM    3  O   UNL     1      -8.817   5.670  67.121  1.00  0.00    -0.109 OA 
HETATM    4  C   UNL     1      -8.480   8.045  67.418  1.00  0.00    -0.126 C  
ENDROOT
BRANCH   4   5
HETATM    5  S   UNL     1      -7.239   9.046  68.334  1.00  0.00    -0.078 SA 
BRANCH   5   6
HETATM    6  C   UNL     1      -8.357  10.240  69.132  1.00  0.00    -0.154 C  
BRANCH   6   7
HETATM    7  C   UNL     1      -9.081   9.591  70.292  1.00  0.00    -0.253 C  
HETATM    8  O   UNL     1      -8.481   9.192  71.287  1.00  0.00    -0.286 OA 
HETATM    9  N   UNL     1     -10.456   9.534  70.159  1.00  0.00    -0.234 N  
HETATM   10  H   UNL     1     -10.889   9.833  69.285  1.00  0.00     0.000 HD 
BRANCH   9  11
HETATM   11  C   UNL     1     -11.299   9.052  71.251  1.00  0.00    -0.319 C  
HETATM   12  C   UNL     1     -12.505   9.932  71.568  1.00  0.00    -0.506 C  
HETATM   13  C   UNL     1     -13.504   9.096  72.347  1.00  0.00    -0.476 C  
HETATM   14  S   UNL     1     -13.457   7.449  71.592  1.00  0.00    -0.311 SA 
HETATM   15  C   UNL     1     -11.815   7.639  70.995  1.00  0.00    -0.285 C  
HETATM   16  O   UNL     1     -11.165   6.726  70.504  1.00  0.00    -0.277 OA 
ENDBRANCH   9  11
ENDBRANCH   6   7
ENDBRANCH   5   6
ENDBRANCH   4   5
TORSDOF 4
ENDMDL
MODEL      174
REMARK 921   NORMALIZED FREE ENERGY PREDICTED BY IDOCK:   -3.12 KCAL/MOL
REMARK 922        TOTAL FREE ENERGY PREDICTED BY IDOCK:   -4.16 KCAL/MOL
REMARK 923 INTER-LIGAND FREE ENERGY PREDICTED BY IDOCK:   -3.90 KCAL/MOL
REMARK 924 INTRA-LIGAND FREE ENERGY PREDICTED BY IDOCK:   -0.26 KCAL/MOL
REMARK 927      BINDING AFFINITY PREDICTED BY RF-SCORE:    0.00 PKD
ROOT
HETATM    1  O   UNL     1      -9.052  14.463  68.530  1.00  0.00    -0.188 OA 
HETATM    2  C   UNL     1      -8.002  14.010  67.802  1.00  0.00    -0.171 C  
HETATM    3  O   UNL     1      -7.096  14.753  67.447  1.00  0.00    -0.189 OA 
HETATM    4  C   UNL     1      -8.011  12.518  67.540  1.00  0.00    -0.175 C  
ENDROOT
BRANCH   4   5
HETATM    5  S   UNL     1      -9.723  11.846  67.552  1.00  0.00    -0.184 SA 
BRANCH   5   6
HETATM    6  C   UNL     1      -9.345  10.086  67.822  1.00  0.00    -0.140 C  
BRANCH   6   7
HETATM    7  C   UNL     1      -9.723   9.675  69.230  1.00  0.00    -0.185 C  
HETATM    8  O   UNL     1      -8.920   9.736  70.158  1.00  0.00    -0.226 OA 
HETATM    9  N   UNL     1     -11.039   9.280  69.386  1.00  0.00    -0.425 N  
HETATM   10  H   UNL     1     -11.639   9.199  68.566  1.00  0.00     0.000 HD 
BRANCH   9  11
HETATM   11  C   UNL     1     -11.582   8.977  70.708  1.00  0.00    -0.265 C  
HETATM   12  C   UNL     1     -12.705   9.903  71.168  1.00  0.00    -0.462 C  
HETATM   13  C   UNL     1     -13.463   9.204  72.282  1.00  0.00    -0.486 C  
HETATM   14  S   UNL     1     -13.545   7.460  71.796  1.00  0.00    -0.259 SA 
HETATM   15  C   UNL     1     -12.099   7.545  70.801  1.00  0.00    -0.161 C  
HETATM   16  O   UNL     1     -11.557   6.563  70.312  1.00  0.00    -0.386 OA 
ENDBRANCH   9  11
ENDBRANCH   6   7
ENDBRANCH   5   6
ENDBRANCH   4   5
TORSDOF 4
ENDMDL
MODEL      175
REMARK 921   NORMALIZED FREE ENERGY PREDICTED BY IDOCK:   -3.11 KCAL/MOL
REMARK 922        TOTAL FREE ENERGY PREDICTED BY IDOCK:   -4.16 KCAL/MOL
REMARK 923 INTER-LIGAND FREE ENERGY PREDICTED BY IDOCK:   -4.14 KCAL/MOL
REMARK 924 INTRA-LIGAND FREE ENERGY PREDICTED BY IDOCK:   -0.01 KCAL/MOL
REMARK 927      BINDING AFFINITY PREDICTED BY RF-SCORE:    0.00 PKD
ROOT
HETATM    1  O   UNL     1     -11.592  11.999  70.318  1.00  0.00    -0.225 OA 
HETATM    2  C   UNL     1     -11.951  10.730  70.633  1.00  0.00    -0.367 C  
HETATM    3  O   UNL     1     -12.780  10.492  71.502  1.00  0.00    -0.387 OA 
HETATM    4  C   UNL     1     -11.306   9.660  69.775  1.00  0.00    -0.120 C  
ENDROOT
BRANCH   4   5
HETATM    5  S   UNL     1      -9.686  10.220  69.110  1.00  0.00    -0.225 SA 
BRANCH   5   6
HETATM    6  C   UNL     1     -10.155  10.468  67.369  1.00  0.00    -0.197 C  
BRANCH   6   7
HETATM    7  C   UNL     1     -10.823  11.815  67.189  1.00  0.00    -0.258 C  
HETATM    8  O   UNL     1     -12.046  11.927  67.133  1.00  0.00    -0.590 OA 
HETATM    9  N   UNL     1      -9.957  12.891  67.143  1.00  0.00    -0.236 N  
HETATM   10  H   UNL     1      -8.951  12.726  67.139  1.00  0.00     0.000 HD 
BRANCH   9  11
HETATM   11  C   UNL     1     -10.461  14.262  67.099  1.00  0.00    -0.266 C  
HETATM   12  C   UNL     1     -11.350  14.656  68.276  1.00  0.00    -0.317 C  
HETATM   13  C   UNL     1     -11.393  16.172  68.344  1.00  0.00    -0.345 C  
HETATM   14  S   UNL     1      -9.714  16.726  67.943  1.00  0.00    -0.251 SA 
HETATM   15  C   UNL     1      -9.333  15.285  67.011  1.00  0.00    -0.224 C  
HETATM   16  O   UNL     1      -8.321  15.166  66.335  1.00  0.00    -0.136 OA 
ENDBRANCH   9  11
ENDBRANCH   6   7
ENDBRANCH   5   6
ENDBRANCH   4   5
TORSDOF 4
ENDMDL
MODEL      176
REMARK 921   NORMALIZED FREE ENERGY PREDICTED BY IDOCK:   -3.10 KCAL/MOL
REMARK 922        TOTAL FREE ENERGY PREDICTED BY IDOCK:   -4.14 KCAL/MOL
REMARK 923 INTER-LIGAND FREE ENERGY PREDICTED BY IDOCK:   -3.83 KCAL/MOL
REMARK 924 INTRA-LIGAND FREE ENERGY PREDICTED BY IDOCK:   -0.31 KCAL/MOL
REMARK 927      BINDING AFFINITY PREDICTED BY RF-SCORE:    0.00 PKD
ROOT
HETATM    1  O   UNL     1      -8.355   9.218  70.926  1.00  0.00    -0.193 OA 
HETATM    2  C   UNL     1      -8.393   8.388  69.854  1.00  0.00    -0.124 C  
HETATM    3  O   UNL     1      -7.906   7.266  69.891  1.00  0.00    -0.107 OA 
HETATM    4  C   UNL     1      -9.147   8.934  68.658  1.00  0.00    -0.137 C  
ENDROOT
BRANCH   4   5
HETATM    5  S   UNL     1      -9.127  10.773  68.636  1.00  0.00    -0.178 SA 
BRANCH   5   6
HETATM    6  C   UNL     1     -10.847  11.092  69.136  1.00  0.00    -0.237 C  
BRANCH   6   7
HETATM    7  C   UNL     1     -11.274  12.479  68.706  1.00  0.00    -0.273 C  
HETATM    8  O   UNL     1     -12.074  13.142  69.362  1.00  0.00    -0.292 OA 
HETATM    9  N   UNL     1     -10.658  12.946  67.560  1.00  0.00    -0.225 N  
HETATM   10  H   UNL     1     -10.045  12.326  67.031  1.00  0.00     0.000 HD 
BRANCH   9  11
HETATM   11  C   UNL     1     -10.873  14.314  67.093  1.00  0.00    -0.296 C  
HETATM   12  C   UNL     1      -9.599  15.093  66.778  1.00  0.00    -0.260 C  
HETATM   13  C   UNL     1      -9.972  16.262  65.885  1.00  0.00    -0.339 C  
HETATM   14  S   UNL     1     -11.234  15.626  64.750  1.00  0.00    -0.308 SA 
HETATM   15  C   UNL     1     -11.762  14.364  65.854  1.00  0.00    -0.369 C  
HETATM   16  O   UNL     1     -12.754  13.674  65.666  1.00  0.00    -0.495 OA 
ENDBRANCH   9  11
ENDBRANCH   6   7
ENDBRANCH   5   6
ENDBRANCH   4   5
TORSDOF 4
ENDMDL
MODEL      177
REMARK 921   NORMALIZED FREE ENERGY PREDICTED BY IDOCK:   -3.09 KCAL/MOL
REMARK 922        TOTAL FREE ENERGY PREDICTED BY IDOCK:   -4.13 KCAL/MOL
REMARK 923 INTER-LIGAND FREE ENERGY PREDICTED BY IDOCK:   -3.47 KCAL/MOL
REMARK 924 INTRA-LIGAND FREE ENERGY PREDICTED BY IDOCK:   -0.66 KCAL/MOL
REMARK 927      BINDING AFFINITY PREDICTED BY RF-SCORE:    0.00 PKD
ROOT
HETATM    1  O   UNL     1      -8.686   7.042  66.533  1.00  0.00    -0.122 OA 
HETATM    2  C   UNL     1      -8.669   5.734  66.889  1.00  0.00    -0.110 C  
HETATM    3  O   UNL     1      -7.993   4.912  66.285  1.00  0.00    -0.105 OA 
HETATM    4  C   UNL     1      -9.483   5.404  68.124  1.00  0.00    -0.118 C  
ENDROOT
BRANCH   4   5
HETATM    5  S   UNL     1     -10.864   6.597  68.355  1.00  0.00    -0.239 SA 
BRANCH   5   6
HETATM    6  C   UNL     1     -10.145   7.625  69.674  1.00  0.00    -0.194 C  
BRANCH   6   7
HETATM    7  C   UNL     1     -10.057   9.069  69.229  1.00  0.00    -0.195 C  
HETATM    8  O   UNL     1      -9.738   9.967  70.005  1.00  0.00    -0.236 OA 
HETATM    9  N   UNL     1     -10.314   9.279  67.887  1.00  0.00    -0.215 N  
HETATM   10  H   UNL     1     -10.627   8.501  67.307  1.00  0.00     0.000 HD 
BRANCH   9  11
HETATM   11  C   UNL     1     -10.144  10.601  67.285  1.00  0.00    -0.199 C  
HETATM   12  C   UNL     1      -9.596  10.592  65.861  1.00  0.00    -0.254 C  
HETATM   13  C   UNL     1      -9.921  11.931  65.225  1.00  0.00    -0.251 C  
HETATM   14  S   UNL     1     -11.582  12.358  65.808  1.00  0.00    -0.404 SA 
HETATM   15  C   UNL     1     -11.445  11.397  67.274  1.00  0.00    -0.224 C  
HETATM   16  O   UNL     1     -12.265  11.428  68.181  1.00  0.00    -0.602 OA 
ENDBRANCH   9  11
ENDBRANCH   6   7
ENDBRANCH   5   6
ENDBRANCH   4   5
TORSDOF 4
ENDMDL
MODEL      178
REMARK 921   NORMALIZED FREE ENERGY PREDICTED BY IDOCK:   -3.09 KCAL/MOL
REMARK 922        TOTAL FREE ENERGY PREDICTED BY IDOCK:   -4.13 KCAL/MOL
REMARK 923 INTER-LIGAND FREE ENERGY PREDICTED BY IDOCK:   -3.84 KCAL/MOL
REMARK 924 INTRA-LIGAND FREE ENERGY PREDICTED BY IDOCK:   -0.29 KCAL/MOL
REMARK 927      BINDING AFFINITY PREDICTED BY RF-SCORE:    0.00 PKD
ROOT
HETATM    1  O   UNL     1      -7.377  15.938  68.079  1.00  0.00    -0.122 OA 
HETATM    2  C   UNL     1      -8.023  16.280  66.937  1.00  0.00    -0.243 C  
HETATM    3  O   UNL     1      -7.827  17.353  66.383  1.00  0.00    -0.254 OA 
HETATM    4  C   UNL     1      -8.932  15.203  66.379  1.00  0.00    -0.279 C  
ENDROOT
BRANCH   4   5
HETATM    5  S   UNL     1      -9.543  14.087  67.707  1.00  0.00    -0.223 SA 
BRANCH   5   6
HETATM    6  C   UNL     1      -8.569  12.601  67.311  1.00  0.00    -0.196 C  
BRANCH   6   7
HETATM    7  C   UNL     1      -9.331  11.351  67.700  1.00  0.00    -0.159 C  
HETATM    8  O   UNL     1      -9.558  10.454  66.891  1.00  0.00    -0.165 OA 
HETATM    9  N   UNL     1      -9.700  11.287  69.031  1.00  0.00    -0.391 N  
HETATM   10  H   UNL     1      -9.531  12.088  69.638  1.00  0.00     0.000 HD 
BRANCH   9  11
HETATM   11  C   UNL     1     -10.329  10.088  69.580  1.00  0.00    -0.247 C  
HETATM   12  C   UNL     1      -9.572   9.438  70.736  1.00  0.00    -0.322 C  
HETATM   13  C   UNL     1     -10.540   8.541  71.486  1.00  0.00    -0.263 C  
HETATM   14  S   UNL     1     -12.116   9.436  71.509  1.00  0.00    -0.403 SA 
HETATM   15  C   UNL     1     -11.754  10.354  70.054  1.00  0.00    -0.286 C  
HETATM   16  O   UNL     1     -12.573  11.055  69.477  1.00  0.00    -0.289 OA 
ENDBRANCH   9  11
ENDBRANCH   6   7
ENDBRANCH   5   6
ENDBRANCH   4   5
TORSDOF 4
ENDMDL
MODEL      179
REMARK 921   NORMALIZED FREE ENERGY PREDICTED BY IDOCK:   -3.08 KCAL/MOL
REMARK 922        TOTAL FREE ENERGY PREDICTED BY IDOCK:   -4.12 KCAL/MOL
REMARK 923 INTER-LIGAND FREE ENERGY PREDICTED BY IDOCK:   -3.80 KCAL/MOL
REMARK 924 INTRA-LIGAND FREE ENERGY PREDICTED BY IDOCK:   -0.32 KCAL/MOL
REMARK 927      BINDING AFFINITY PREDICTED BY RF-SCORE:    0.00 PKD
ROOT
HETATM    1  O   UNL     1     -12.221  13.731  69.292  1.00  0.00    -0.337 OA 
HETATM    2  C   UNL     1     -12.275  13.997  70.620  1.00  0.00    -0.372 C  
HETATM    3  O   UNL     1     -11.883  15.062  71.079  1.00  0.00    -0.282 OA 
HETATM    4  C   UNL     1     -12.922  12.912  71.457  1.00  0.00    -0.294 C  
ENDROOT
BRANCH   4   5
HETATM    5  S   UNL     1     -12.749  11.262  70.665  1.00  0.00    -0.176 SA 
BRANCH   5   6
HETATM    6  C   UNL     1     -12.807  10.215  72.153  1.00  0.00    -0.287 C  
BRANCH   6   7
HETATM    7  C   UNL     1     -11.885   9.024  71.997  1.00  0.00    -0.356 C  
HETATM    8  O   UNL     1     -12.044   7.994  72.648  1.00  0.00    -0.328 OA 
HETATM    9  N   UNL     1     -10.898   9.176  71.041  1.00  0.00    -0.264 N  
HETATM   10  H   UNL     1     -10.785  10.075  70.574  1.00  0.00     0.000 HD 
BRANCH   9  11
HETATM   11  C   UNL     1     -10.013   8.067  70.690  1.00  0.00    -0.189 C  
HETATM   12  C   UNL     1     -10.004   7.697  69.209  1.00  0.00    -0.180 C  
HETATM   13  C   UNL     1      -8.742   6.902  68.932  1.00  0.00    -0.130 C  
HETATM   14  S   UNL     1      -7.443   7.687  69.922  1.00  0.00    -0.084 SA 
HETATM   15  C   UNL     1      -8.570   8.331  71.107  1.00  0.00    -0.142 C  
HETATM   16  O   UNL     1      -8.220   8.859  72.154  1.00  0.00    -0.373 OA 
ENDBRANCH   9  11
ENDBRANCH   6   7
ENDBRANCH   5   6
ENDBRANCH   4   5
TORSDOF 4
ENDMDL
MODEL      180
REMARK 921   NORMALIZED FREE ENERGY PREDICTED BY IDOCK:   -3.06 KCAL/MOL
REMARK 922        TOTAL FREE ENERGY PREDICTED BY IDOCK:   -4.10 KCAL/MOL
REMARK 923 INTER-LIGAND FREE ENERGY PREDICTED BY IDOCK:   -4.22 KCAL/MOL
REMARK 924 INTRA-LIGAND FREE ENERGY PREDICTED BY IDOCK:    0.12 KCAL/MOL
REMARK 927      BINDING AFFINITY PREDICTED BY RF-SCORE:    0.00 PKD
ROOT
HETATM    1  O   UNL     1     -12.013  12.717  67.546  1.00  0.00    -0.364 OA 
HETATM    2  C   UNL     1     -11.203  13.439  66.731  1.00  0.00    -0.310 C  
HETATM    3  O   UNL     1     -10.521  12.907  65.866  1.00  0.00    -0.270 OA 
HETATM    4  C   UNL     1     -11.279  14.939  66.933  1.00  0.00    -0.343 C  
ENDROOT
BRANCH   4   5
HETATM    5  S   UNL     1     -11.781  15.360  68.651  1.00  0.00    -0.317 SA 
BRANCH   5   6
HETATM    6  C   UNL     1     -10.141  15.705  69.360  1.00  0.00    -0.269 C  
BRANCH   6   7
HETATM    7  C   UNL     1      -9.495  16.877  68.651  1.00  0.00    -0.268 C  
HETATM    8  O   UNL     1     -10.040  17.976  68.590  1.00  0.00    -0.367 OA 
HETATM    9  N   UNL     1      -8.240  16.620  68.131  1.00  0.00    -0.186 N  
HETATM   10  H   UNL     1      -7.866  15.672  68.167  1.00  0.00     0.000 HD 
BRANCH   9  11
HETATM   11  C   UNL     1      -7.441  17.686  67.531  1.00  0.00    -0.194 C  
HETATM   12  C   UNL     1      -8.091  18.380  66.337  1.00  0.00    -0.285 C  
HETATM   13  C   UNL     1      -7.400  19.717  66.138  1.00  0.00    -0.295 C  
HETATM   14  S   UNL     1      -7.091  20.359  67.804  1.00  0.00    -0.299 SA 
HETATM   15  C   UNL     1      -7.070  18.764  68.544  1.00  0.00    -0.274 C  
HETATM   16  O   UNL     1      -6.734  18.562  69.703  1.00  0.00    -0.181 OA 
ENDBRANCH   9  11
ENDBRANCH   6   7
ENDBRANCH   5   6
ENDBRANCH   4   5
TORSDOF 4
ENDMDL
MODEL      181
REMARK 921   NORMALIZED FREE ENERGY PREDICTED BY IDOCK:   -3.06 KCAL/MOL
REMARK 922        TOTAL FREE ENERGY PREDICTED BY IDOCK:   -4.09 KCAL/MOL
REMARK 923 INTER-LIGAND FREE ENERGY PREDICTED BY IDOCK:   -3.68 KCAL/MOL
REMARK 924 INTRA-LIGAND FREE ENERGY PREDICTED BY IDOCK:   -0.41 KCAL/MOL
REMARK 927      BINDING AFFINITY PREDICTED BY RF-SCORE:    0.00 PKD
ROOT
HETATM    1  O   UNL     1      -9.409  12.637  68.039  1.00  0.00    -0.197 OA 
HETATM    2  C   UNL     1     -10.513  12.262  68.732  1.00  0.00    -0.162 C  
HETATM    3  O   UNL     1     -11.434  13.040  68.943  1.00  0.00    -0.260 OA 
HETATM    4  C   UNL     1     -10.537  10.804  69.143  1.00  0.00    -0.222 C  
ENDROOT
BRANCH   4   5
HETATM    5  S   UNL     1      -8.835  10.130  69.322  1.00  0.00    -0.184 SA 
BRANCH   5   6
HETATM    6  C   UNL     1      -9.063   8.531  68.482  1.00  0.00    -0.135 C  
BRANCH   6   7
HETATM    7  C   UNL     1      -9.792   8.724  67.168  1.00  0.00    -0.207 C  
HETATM    8  O   UNL     1     -10.765   8.039  66.862  1.00  0.00    -0.322 OA 
HETATM    9  N   UNL     1      -9.307   9.753  66.382  1.00  0.00    -0.162 N  
HETATM   10  H   UNL     1      -8.463  10.249  66.667  1.00  0.00     0.000 HD 
BRANCH   9  11
HETATM   11  C   UNL     1      -9.986  10.140  65.147  1.00  0.00    -0.309 C  
HETATM   12  C   UNL     1     -10.442  11.595  65.094  1.00  0.00    -0.329 C  
HETATM   13  C   UNL     1     -10.676  11.962  63.640  1.00  0.00    -0.442 C  
HETATM   14  S   UNL     1      -9.352  11.144  62.712  1.00  0.00    -0.308 SA 
HETATM   15  C   UNL     1      -9.125   9.882  63.914  1.00  0.00    -0.259 C  
HETATM   16  O   UNL     1      -8.416   8.901  63.738  1.00  0.00    -0.186 OA 
ENDBRANCH   9  11
ENDBRANCH   6   7
ENDBRANCH   5   6
ENDBRANCH   4   5
TORSDOF 4
ENDMDL
MODEL      182
REMARK 921   NORMALIZED FREE ENERGY PREDICTED BY IDOCK:   -3.05 KCAL/MOL
REMARK 922        TOTAL FREE ENERGY PREDICTED BY IDOCK:   -4.08 KCAL/MOL
REMARK 923 INTER-LIGAND FREE ENERGY PREDICTED BY IDOCK:   -3.76 KCAL/MOL
REMARK 924 INTRA-LIGAND FREE ENERGY PREDICTED BY IDOCK:   -0.31 KCAL/MOL
REMARK 927      BINDING AFFINITY PREDICTED BY RF-SCORE:    0.00 PKD
ROOT
HETATM    1  O   UNL     1     -11.371  15.544  68.348  1.00  0.00    -0.320 OA 
HETATM    2  C   UNL     1     -11.284  14.618  67.361  1.00  0.00    -0.342 C  
HETATM    3  O   UNL     1     -11.302  14.934  66.179  1.00  0.00    -0.344 OA 
HETATM    4  C   UNL     1     -11.089  13.195  67.844  1.00  0.00    -0.262 C  
ENDROOT
BRANCH   4   5
HETATM    5  S   UNL     1     -11.789  12.957  69.528  1.00  0.00    -0.289 SA 
BRANCH   5   6
HETATM    6  C   UNL     1     -12.402  11.253  69.352  1.00  0.00    -0.149 C  
BRANCH   6   7
HETATM    7  C   UNL     1     -11.247  10.273  69.352  1.00  0.00    -0.239 C  
HETATM    8  O   UNL     1     -10.610  10.024  70.373  1.00  0.00    -0.286 OA 
HETATM    9  N   UNL     1     -11.007   9.659  68.136  1.00  0.00    -0.469 N  
HETATM   10  H   UNL     1     -11.535   9.950  67.314  1.00  0.00     0.000 HD 
BRANCH   9  11
HETATM   11  C   UNL     1     -10.009   8.599  68.012  1.00  0.00    -0.182 C  
HETATM   12  C   UNL     1     -10.448   7.397  67.181  1.00  0.00    -0.403 C  
HETATM   13  C   UNL     1      -9.204   6.642  66.752  1.00  0.00    -0.149 C  
HETATM   14  S   UNL     1      -7.972   7.913  66.363  1.00  0.00    -0.105 SA 
HETATM   15  C   UNL     1      -8.699   9.113  67.423  1.00  0.00    -0.115 C  
HETATM   16  O   UNL     1      -8.173  10.184  67.692  1.00  0.00    -0.110 OA 
ENDBRANCH   9  11
ENDBRANCH   6   7
ENDBRANCH   5   6
ENDBRANCH   4   5
TORSDOF 4
ENDMDL
MODEL      183
REMARK 921   NORMALIZED FREE ENERGY PREDICTED BY IDOCK:   -3.04 KCAL/MOL
REMARK 922        TOTAL FREE ENERGY PREDICTED BY IDOCK:   -4.07 KCAL/MOL
REMARK 923 INTER-LIGAND FREE ENERGY PREDICTED BY IDOCK:   -3.77 KCAL/MOL
REMARK 924 INTRA-LIGAND FREE ENERGY PREDICTED BY IDOCK:   -0.30 KCAL/MOL
REMARK 927      BINDING AFFINITY PREDICTED BY RF-SCORE:    0.00 PKD
ROOT
HETATM    1  O   UNL     1     -13.179  13.513  64.967  1.00  0.00    -0.721 OA 
HETATM    2  C   UNL     1     -12.090  12.719  65.127  1.00  0.00    -0.450 C  
HETATM    3  O   UNL     1     -11.990  11.643  64.553  1.00  0.00    -0.166 OA 
HETATM    4  C   UNL     1     -11.000  13.309  65.998  1.00  0.00    -0.279 C  
ENDROOT
BRANCH   4   5
HETATM    5  S   UNL     1     -11.687  14.504  67.215  1.00  0.00    -0.389 SA 
BRANCH   5   6
HETATM    6  C   UNL     1     -11.209  13.660  68.756  1.00  0.00    -0.279 C  
BRANCH   6   7
HETATM    7  C   UNL     1     -10.289  14.540  69.576  1.00  0.00    -0.009 C  
HETATM    8  O   UNL     1     -10.647  15.031  70.644  1.00  0.00    -0.126 OA 
HETATM    9  N   UNL     1      -9.020  14.699  69.052  1.00  0.00    -0.338 N  
HETATM   10  H   UNL     1      -8.803  14.311  68.135  1.00  0.00     0.000 HD 
BRANCH   9  11
HETATM   11  C   UNL     1      -7.984  15.415  69.794  1.00  0.00    -0.041 C  
HETATM   12  C   UNL     1      -6.668  14.658  69.952  1.00  0.00    -0.157 C  
HETATM   13  C   UNL     1      -5.585  15.665  70.294  1.00  0.00    -0.158 C  
HETATM   14  S   UNL     1      -5.948  17.131  69.292  1.00  0.00    -0.220 SA 
HETATM   15  C   UNL     1      -7.664  16.769  69.168  1.00  0.00    -0.165 C  
HETATM   16  O   UNL     1      -8.485  17.545  68.699  1.00  0.00    -0.276 OA 
ENDBRANCH   9  11
ENDBRANCH   6   7
ENDBRANCH   5   6
ENDBRANCH   4   5
TORSDOF 4
ENDMDL
MODEL      184
REMARK 921   NORMALIZED FREE ENERGY PREDICTED BY IDOCK:   -3.04 KCAL/MOL
REMARK 922        TOTAL FREE ENERGY PREDICTED BY IDOCK:   -4.07 KCAL/MOL
REMARK 923 INTER-LIGAND FREE ENERGY PREDICTED BY IDOCK:   -4.22 KCAL/MOL
REMARK 924 INTRA-LIGAND FREE ENERGY PREDICTED BY IDOCK:    0.15 KCAL/MOL
REMARK 927      BINDING AFFINITY PREDICTED BY RF-SCORE:    0.00 PKD
ROOT
HETATM    1  O   UNL     1     -12.016  16.049  68.792  1.00  0.00    -0.340 OA 
HETATM    2  C   UNL     1     -11.542  14.961  68.136  1.00  0.00    -0.334 C  
HETATM    3  O   UNL     1     -11.390  14.958  66.921  1.00  0.00    -0.345 OA 
HETATM    4  C   UNL     1     -11.154  13.802  69.031  1.00  0.00    -0.259 C  
ENDROOT
BRANCH   4   5
HETATM    5  S   UNL     1     -12.109  13.819  70.602  1.00  0.00    -0.298 SA 
BRANCH   5   6
HETATM    6  C   UNL     1     -12.532  12.052  70.707  1.00  0.00    -0.279 C  
BRANCH   6   7
HETATM    7  C   UNL     1     -11.803  11.270  69.635  1.00  0.00    -0.360 C  
HETATM    8  O   UNL     1     -12.270  11.128  68.508  1.00  0.00    -0.600 OA 
HETATM    9  N   UNL     1     -10.566  10.782  70.013  1.00  0.00    -0.459 N  
HETATM   10  H   UNL     1     -10.259  10.886  70.980  1.00  0.00     0.000 HD 
BRANCH   9  11
HETATM   11  C   UNL     1      -9.692  10.117  69.049  1.00  0.00    -0.206 C  
HETATM   12  C   UNL     1      -8.262  10.650  69.005  1.00  0.00    -0.151 C  
HETATM   13  C   UNL     1      -7.388   9.596  68.348  1.00  0.00    -0.075 C  
HETATM   14  S   UNL     1      -7.998   8.004  68.964  1.00  0.00    -0.116 SA 
HETATM   15  C   UNL     1      -9.616   8.612  69.286  1.00  0.00    -0.166 C  
HETATM   16  O   UNL     1     -10.558   7.895  69.593  1.00  0.00    -0.234 OA 
ENDBRANCH   9  11
ENDBRANCH   6   7
ENDBRANCH   5   6
ENDBRANCH   4   5
TORSDOF 4
ENDMDL
MODEL      185
REMARK 921   NORMALIZED FREE ENERGY PREDICTED BY IDOCK:   -3.04 KCAL/MOL
REMARK 922        TOTAL FREE ENERGY PREDICTED BY IDOCK:   -4.06 KCAL/MOL
REMARK 923 INTER-LIGAND FREE ENERGY PREDICTED BY IDOCK:   -3.73 KCAL/MOL
REMARK 924 INTRA-LIGAND FREE ENERGY PREDICTED BY IDOCK:   -0.33 KCAL/MOL
REMARK 927      BINDING AFFINITY PREDICTED BY RF-SCORE:    0.00 PKD
ROOT
HETATM    1  O   UNL     1     -11.334  10.667  67.480  1.00  0.00    -0.408 OA 
HETATM    2  C   UNL     1     -10.780   9.470  67.797  1.00  0.00    -0.242 C  
HETATM    3  O   UNL     1     -10.481   8.652  66.937  1.00  0.00    -0.294 OA 
HETATM    4  C   UNL     1     -10.498   9.274  69.273  1.00  0.00    -0.218 C  
ENDROOT
BRANCH   4   5
HETATM    5  S   UNL     1     -11.637  10.277  70.311  1.00  0.00    -0.333 SA 
BRANCH   5   6
HETATM    6  C   UNL     1     -12.392   8.941  71.291  1.00  0.00    -0.291 C  
BRANCH   6   7
HETATM    7  C   UNL     1     -11.322   8.127  71.986  1.00  0.00    -0.316 C  
HETATM    8  O   UNL     1     -10.508   8.644  72.747  1.00  0.00    -0.165 OA 
HETATM    9  N   UNL     1     -11.371   6.768  71.735  1.00  0.00    -0.257 N  
HETATM   10  H   UNL     1     -12.037   6.408  71.051  1.00  0.00     0.000 HD 
BRANCH   9  11
HETATM   11  C   UNL     1     -10.484   5.840  72.433  1.00  0.00    -0.211 C  
HETATM   12  C   UNL     1     -11.191   4.826  73.327  1.00  0.00    -0.421 C  
HETATM   13  C   UNL     1     -10.232   3.679  73.587  1.00  0.00    -0.142 C  
HETATM   14  S   UNL     1      -9.359   3.410  72.021  1.00  0.00    -0.133 SA 
HETATM   15  C   UNL     1      -9.595   5.062  71.468  1.00  0.00    -0.158 C  
HETATM   16  O   UNL     1      -9.053   5.525  70.474  1.00  0.00    -0.142 OA 
ENDBRANCH   9  11
ENDBRANCH   6   7
ENDBRANCH   5   6
ENDBRANCH   4   5
TORSDOF 4
ENDMDL
MODEL      186
REMARK 921   NORMALIZED FREE ENERGY PREDICTED BY IDOCK:   -3.03 KCAL/MOL
REMARK 922        TOTAL FREE ENERGY PREDICTED BY IDOCK:   -4.06 KCAL/MOL
REMARK 923 INTER-LIGAND FREE ENERGY PREDICTED BY IDOCK:   -3.78 KCAL/MOL
REMARK 924 INTRA-LIGAND FREE ENERGY PREDICTED BY IDOCK:   -0.28 KCAL/MOL
REMARK 927      BINDING AFFINITY PREDICTED BY RF-SCORE:    0.00 PKD
ROOT
HETATM    1  O   UNL     1      -7.063   5.594  65.998  1.00  0.00    -0.065 OA 
HETATM    2  C   UNL     1      -8.388   5.548  65.713  1.00  0.00    -0.129 C  
HETATM    3  O   UNL     1      -8.844   4.757  64.898  1.00  0.00    -0.147 OA 
HETATM    4  C   UNL     1      -9.244   6.489  66.535  1.00  0.00    -0.157 C  
ENDROOT
BRANCH   4   5
HETATM    5  S   UNL     1      -8.283   7.953  67.097  1.00  0.00    -0.118 SA 
BRANCH   5   6
HETATM    6  C   UNL     1      -8.457   9.002  65.620  1.00  0.00    -0.150 C  
BRANCH   6   7
HETATM    7  C   UNL     1      -8.823  10.416  66.017  1.00  0.00    -0.160 C  
HETATM    8  O   UNL     1      -8.180  11.039  66.859  1.00  0.00    -0.129 OA 
HETATM    9  N   UNL     1      -9.895  10.954  65.327  1.00  0.00    -0.246 N  
HETATM   10  H   UNL     1     -10.421  10.367  64.680  1.00  0.00     0.000 HD 
BRANCH   9  11
HETATM   11  C   UNL     1     -10.285  12.350  65.512  1.00  0.00    -0.274 C  
HETATM   12  C   UNL     1     -10.425  13.153  64.221  1.00  0.00    -0.410 C  
HETATM   13  C   UNL     1     -11.267  14.380  64.521  1.00  0.00    -0.306 C  
HETATM   14  S   UNL     1     -12.556  13.819  65.665  1.00  0.00    -0.473 SA 
HETATM   15  C   UNL     1     -11.595  12.482  66.281  1.00  0.00    -0.394 C  
HETATM   16  O   UNL     1     -11.922  11.803  67.244  1.00  0.00    -0.618 OA 
ENDBRANCH   9  11
ENDBRANCH   6   7
ENDBRANCH   5   6
ENDBRANCH   4   5
TORSDOF 4
ENDMDL
MODEL      187
REMARK 921   NORMALIZED FREE ENERGY PREDICTED BY IDOCK:   -3.03 KCAL/MOL
REMARK 922        TOTAL FREE ENERGY PREDICTED BY IDOCK:   -4.06 KCAL/MOL
REMARK 923 INTER-LIGAND FREE ENERGY PREDICTED BY IDOCK:   -3.67 KCAL/MOL
REMARK 924 INTRA-LIGAND FREE ENERGY PREDICTED BY IDOCK:   -0.38 KCAL/MOL
REMARK 927      BINDING AFFINITY PREDICTED BY RF-SCORE:    0.00 PKD
ROOT
HETATM    1  O   UNL     1      -8.656   8.536  73.561  1.00  0.00    -0.341 OA 
HETATM    2  C   UNL     1      -8.409   7.419  72.831  1.00  0.00    -0.113 C  
HETATM    3  O   UNL     1      -7.287   7.153  72.423  1.00  0.00    -0.078 OA 
HETATM    4  C   UNL     1      -9.608   6.512  72.640  1.00  0.00    -0.150 C  
ENDROOT
BRANCH   4   5
HETATM    5  S   UNL     1     -11.183   7.456  72.721  1.00  0.00    -0.315 SA 
BRANCH   5   6
HETATM    6  C   UNL     1     -11.471   7.699  70.940  1.00  0.00    -0.282 C  
BRANCH   6   7
HETATM    7  C   UNL     1     -11.111   9.113  70.534  1.00  0.00    -0.260 C  
HETATM    8  O   UNL     1     -11.269  10.063  71.297  1.00  0.00    -0.341 OA 
HETATM    9  N   UNL     1     -10.554   9.231  69.275  1.00  0.00    -0.224 N  
HETATM   10  H   UNL     1     -10.500   8.411  68.670  1.00  0.00     0.000 HD 
BRANCH   9  11
HETATM   11  C   UNL     1     -10.040  10.513  68.796  1.00  0.00    -0.191 C  
HETATM   12  C   UNL     1      -8.748  10.425  67.989  1.00  0.00    -0.123 C  
HETATM   13  C   UNL     1      -8.609  11.705  67.185  1.00  0.00    -0.164 C  
HETATM   14  S   UNL     1     -10.283  12.112  66.623  1.00  0.00    -0.203 SA 
HETATM   15  C   UNL     1     -11.064  11.259  67.947  1.00  0.00    -0.267 C  
HETATM   16  O   UNL     1     -12.264  11.324  68.178  1.00  0.00    -0.622 OA 
ENDBRANCH   9  11
ENDBRANCH   6   7
ENDBRANCH   5   6
ENDBRANCH   4   5
TORSDOF 4
ENDMDL
MODEL      188
REMARK 921   NORMALIZED FREE ENERGY PREDICTED BY IDOCK:   -3.03 KCAL/MOL
REMARK 922        TOTAL FREE ENERGY PREDICTED BY IDOCK:   -4.05 KCAL/MOL
REMARK 923 INTER-LIGAND FREE ENERGY PREDICTED BY IDOCK:   -4.22 KCAL/MOL
REMARK 924 INTRA-LIGAND FREE ENERGY PREDICTED BY IDOCK:    0.16 KCAL/MOL
REMARK 927      BINDING AFFINITY PREDICTED BY RF-SCORE:    0.00 PKD
ROOT
HETATM    1  O   UNL     1      -6.627   7.448  63.413  1.00  0.00    -0.052 OA 
HETATM    2  C   UNL     1      -7.762   7.154  64.094  1.00  0.00    -0.120 C  
HETATM    3  O   UNL     1      -8.321   6.072  63.977  1.00  0.00    -0.085 OA 
HETATM    4  C   UNL     1      -8.222   8.236  65.051  1.00  0.00    -0.158 C  
ENDROOT
BRANCH   4   5
HETATM    5  S   UNL     1      -7.655   9.898  64.507  1.00  0.00    -0.142 SA 
BRANCH   5   6
HETATM    6  C   UNL     1      -9.023  10.321  63.382  1.00  0.00    -0.240 C  
BRANCH   6   7
HETATM    7  C   UNL     1     -10.015  11.230  64.076  1.00  0.00    -0.312 C  
HETATM    8  O   UNL     1     -10.906  10.785  64.796  1.00  0.00    -0.204 OA 
HETATM    9  N   UNL     1      -9.804  12.581  63.873  1.00  0.00    -0.596 N  
HETATM   10  H   UNL     1      -9.081  12.884  63.221  1.00  0.00     0.000 HD 
BRANCH   9  11
HETATM   11  C   UNL     1     -10.602  13.582  64.578  1.00  0.00    -0.424 C  
HETATM   12  C   UNL     1     -12.112  13.416  64.435  1.00  0.00    -0.468 C  
HETATM   13  C   UNL     1     -12.779  14.188  65.560  1.00  0.00    -0.443 C  
HETATM   14  S   UNL     1     -11.733  13.926  67.016  1.00  0.00    -0.420 SA 
HETATM   15  C   UNL     1     -10.283  13.623  66.070  1.00  0.00    -0.307 C  
HETATM   16  O   UNL     1      -9.165  13.527  66.558  1.00  0.00    -0.243 OA 
ENDBRANCH   9  11
ENDBRANCH   6   7
ENDBRANCH   5   6
ENDBRANCH   4   5
TORSDOF 4
ENDMDL
MODEL      189
REMARK 921   NORMALIZED FREE ENERGY PREDICTED BY IDOCK:   -3.01 KCAL/MOL
REMARK 922        TOTAL FREE ENERGY PREDICTED BY IDOCK:   -4.04 KCAL/MOL
REMARK 923 INTER-LIGAND FREE ENERGY PREDICTED BY IDOCK:   -3.95 KCAL/MOL
REMARK 924 INTRA-LIGAND FREE ENERGY PREDICTED BY IDOCK:   -0.08 KCAL/MOL
REMARK 927      BINDING AFFINITY PREDICTED BY RF-SCORE:    0.00 PKD
ROOT
HETATM    1  O   UNL     1     -12.602  10.601  71.057  1.00  0.00    -0.348 OA 
HETATM    2  C   UNL     1     -11.740  11.180  70.184  1.00  0.00    -0.353 C  
HETATM    3  O   UNL     1     -10.847  10.542  69.643  1.00  0.00    -0.240 OA 
HETATM    4  C   UNL     1     -12.026  12.638  69.887  1.00  0.00    -0.295 C  
ENDROOT
BRANCH   4   5
HETATM    5  S   UNL     1     -12.895  13.450  71.289  1.00  0.00    -0.269 SA 
BRANCH   5   6
HETATM    6  C   UNL     1     -11.873  14.950  71.438  1.00  0.00    -0.350 C  
BRANCH   6   7
HETATM    7  C   UNL     1     -11.406  15.407  70.072  1.00  0.00    -0.306 C  
HETATM    8  O   UNL     1     -12.200  15.704  69.183  1.00  0.00    -0.298 OA 
HETATM    9  N   UNL     1     -10.034  15.508  69.932  1.00  0.00    -0.352 N  
HETATM   10  H   UNL     1      -9.428  15.195  70.690  1.00  0.00     0.000 HD 
BRANCH   9  11
HETATM   11  C   UNL     1      -9.440  16.057  68.715  1.00  0.00    -0.227 C  
HETATM   12  C   UNL     1      -9.288  17.575  68.703  1.00  0.00    -0.277 C  
HETATM   13  C   UNL     1      -8.263  17.936  67.644  1.00  0.00    -0.232 C  
HETATM   14  S   UNL     1      -6.981  16.660  67.751  1.00  0.00    -0.144 SA 
HETATM   15  C   UNL     1      -8.069  15.454  68.425  1.00  0.00    -0.140 C  
HETATM   16  O   UNL     1      -7.767  14.278  68.570  1.00  0.00    -0.124 OA 
ENDBRANCH   9  11
ENDBRANCH   6   7
ENDBRANCH   5   6
ENDBRANCH   4   5
TORSDOF 4
ENDMDL
MODEL      190
REMARK 921   NORMALIZED FREE ENERGY PREDICTED BY IDOCK:   -3.01 KCAL/MOL
REMARK 922        TOTAL FREE ENERGY PREDICTED BY IDOCK:   -4.04 KCAL/MOL
REMARK 923 INTER-LIGAND FREE ENERGY PREDICTED BY IDOCK:   -4.21 KCAL/MOL
REMARK 924 INTRA-LIGAND FREE ENERGY PREDICTED BY IDOCK:    0.18 KCAL/MOL
REMARK 927      BINDING AFFINITY PREDICTED BY RF-SCORE:    0.00 PKD
ROOT
HETATM    1  O   UNL     1      -8.364   8.535  73.635  1.00  0.00    -0.373 OA 
HETATM    2  C   UNL     1      -8.229   7.979  72.405  1.00  0.00    -0.145 C  
HETATM    3  O   UNL     1      -7.244   8.188  71.710  1.00  0.00    -0.070 OA 
HETATM    4  C   UNL     1      -9.347   7.034  72.012  1.00  0.00    -0.139 C  
ENDROOT
BRANCH   4   5
HETATM    5  S   UNL     1     -10.917   7.461  72.869  1.00  0.00    -0.365 SA 
BRANCH   5   6
HETATM    6  C   UNL     1     -11.932   7.892  71.421  1.00  0.00    -0.303 C  
BRANCH   6   7
HETATM    7  C   UNL     1     -11.783   9.362  71.090  1.00  0.00    -0.345 C  
HETATM    8  O   UNL     1     -10.713   9.951  71.231  1.00  0.00    -0.240 OA 
HETATM    9  N   UNL     1     -12.919   9.960  70.578  1.00  0.00    -0.572 N  
HETATM   10  H   UNL     1     -13.790   9.431  70.537  1.00  0.00     0.000 HD 
BRANCH   9  11
HETATM   11  C   UNL     1     -12.892  11.339  70.096  1.00  0.00     0.056 C  
HETATM   12  C   UNL     1     -12.514  12.380  71.146  1.00  0.00    -0.323 C  
HETATM   13  C   UNL     1     -12.070  13.638  70.423  1.00  0.00    -0.351 C  
HETATM   14  S   UNL     1     -11.124  13.067  68.987  1.00  0.00    -0.199 SA 
HETATM   15  C   UNL     1     -11.945  11.514  68.913  1.00  0.00    -0.299 C  
HETATM   16  O   UNL     1     -11.810  10.722  67.990  1.00  0.00    -0.546 OA 
ENDBRANCH   9  11
ENDBRANCH   6   7
ENDBRANCH   5   6
ENDBRANCH   4   5
TORSDOF 4
ENDMDL
MODEL      191
REMARK 921   NORMALIZED FREE ENERGY PREDICTED BY IDOCK:   -3.01 KCAL/MOL
REMARK 922        TOTAL FREE ENERGY PREDICTED BY IDOCK:   -4.03 KCAL/MOL
REMARK 923 INTER-LIGAND FREE ENERGY PREDICTED BY IDOCK:   -4.32 KCAL/MOL
REMARK 924 INTRA-LIGAND FREE ENERGY PREDICTED BY IDOCK:    0.29 KCAL/MOL
REMARK 927      BINDING AFFINITY PREDICTED BY RF-SCORE:    0.00 PKD
ROOT
HETATM    1  O   UNL     1      -9.809  17.856  65.800  1.00  0.00    -0.540 OA 
HETATM    2  C   UNL     1      -8.741  17.055  66.041  1.00  0.00    -0.132 C  
HETATM    3  O   UNL     1      -7.594  17.443  65.862  1.00  0.00    -0.467 OA 
HETATM    4  C   UNL     1      -9.086  15.696  66.614  1.00  0.00    -0.282 C  
ENDROOT
BRANCH   4   5
HETATM    5  S   UNL     1     -10.775  15.167  66.115  1.00  0.00    -0.333 SA 
BRANCH   5   6
HETATM    6  C   UNL     1     -10.335  13.889  64.897  1.00  0.00    -0.406 C  
BRANCH   6   7
HETATM    7  C   UNL     1     -10.055  12.572  65.592  1.00  0.00    -0.269 C  
HETATM    8  O   UNL     1      -9.103  12.435  66.357  1.00  0.00    -0.215 OA 
HETATM    9  N   UNL     1     -10.974  11.573  65.333  1.00  0.00    -0.260 N  
HETATM   10  H   UNL     1     -11.710  11.733  64.646  1.00  0.00     0.000 HD 
BRANCH   9  11
HETATM   11  C   UNL     1     -10.907  10.289  66.029  1.00  0.00     0.170 C  
HETATM   12  C   UNL     1      -9.592   9.534  65.856  1.00  0.00    -0.327 C  
HETATM   13  C   UNL     1      -9.488   8.511  66.972  1.00  0.00    -0.173 C  
HETATM   14  S   UNL     1     -10.151   9.329  68.447  1.00  0.00    -0.198 SA 
HETATM   15  C   UNL     1     -11.161  10.435  67.526  1.00  0.00    -0.267 C  
HETATM   16  O   UNL     1     -11.998  11.168  68.034  1.00  0.00    -0.625 OA 
ENDBRANCH   9  11
ENDBRANCH   6   7
ENDBRANCH   5   6
ENDBRANCH   4   5
TORSDOF 4
ENDMDL
MODEL      192
REMARK 921   NORMALIZED FREE ENERGY PREDICTED BY IDOCK:   -3.01 KCAL/MOL
REMARK 922        TOTAL FREE ENERGY PREDICTED BY IDOCK:   -4.03 KCAL/MOL
REMARK 923 INTER-LIGAND FREE ENERGY PREDICTED BY IDOCK:   -3.91 KCAL/MOL
REMARK 924 INTRA-LIGAND FREE ENERGY PREDICTED BY IDOCK:   -0.12 KCAL/MOL
REMARK 927      BINDING AFFINITY PREDICTED BY RF-SCORE:    0.00 PKD
ROOT
HETATM    1  O   UNL     1     -12.413  14.279  66.723  1.00  0.00    -0.376 OA 
HETATM    2  C   UNL     1     -12.079  14.285  65.409  1.00  0.00    -0.396 C  
HETATM    3  O   UNL     1     -12.885  13.984  64.539  1.00  0.00    -0.644 OA 
HETATM    4  C   UNL     1     -10.672  14.765  65.116  1.00  0.00    -0.415 C  
ENDROOT
BRANCH   4   5
HETATM    5  S   UNL     1      -9.550  14.463  66.542  1.00  0.00    -0.299 SA 
BRANCH   5   6
HETATM    6  C   UNL     1      -9.110  12.729  66.206  1.00  0.00    -0.024 C  
BRANCH   6   7
HETATM    7  C   UNL     1      -9.615  11.832  67.316  1.00  0.00    -0.176 C  
HETATM    8  O   UNL     1      -8.932  11.581  68.307  1.00  0.00    -0.165 OA 
HETATM    9  N   UNL     1     -10.906  11.368  67.145  1.00  0.00    -0.253 N  
HETATM   10  H   UNL     1     -11.400  11.567  66.276  1.00  0.00     0.000 HD 
BRANCH   9  11
HETATM   11  C   UNL     1     -11.574  10.597  68.192  1.00  0.00    -0.136 C  
HETATM   12  C   UNL     1     -10.819   9.353  68.653  1.00  0.00    -0.149 C  
HETATM   13  C   UNL     1     -11.365   8.948  70.010  1.00  0.00    -0.040 C  
HETATM   14  S   UNL     1     -11.663  10.500  70.898  1.00  0.00    -0.287 SA 
HETATM   15  C   UNL     1     -11.868  11.441  69.427  1.00  0.00    -0.351 C  
HETATM   16  O   UNL     1     -12.261  12.600  69.416  1.00  0.00    -0.200 OA 
ENDBRANCH   9  11
ENDBRANCH   6   7
ENDBRANCH   5   6
ENDBRANCH   4   5
TORSDOF 4
ENDMDL
MODEL      193
REMARK 921   NORMALIZED FREE ENERGY PREDICTED BY IDOCK:   -3.01 KCAL/MOL
REMARK 922        TOTAL FREE ENERGY PREDICTED BY IDOCK:   -4.03 KCAL/MOL
REMARK 923 INTER-LIGAND FREE ENERGY PREDICTED BY IDOCK:   -3.86 KCAL/MOL
REMARK 924 INTRA-LIGAND FREE ENERGY PREDICTED BY IDOCK:   -0.17 KCAL/MOL
REMARK 927      BINDING AFFINITY PREDICTED BY RF-SCORE:    0.00 PKD
ROOT
HETATM    1  O   UNL     1     -10.896  11.660  64.628  1.00  0.00    -0.296 OA 
HETATM    2  C   UNL     1     -10.025  10.858  63.966  1.00  0.00    -0.344 C  
HETATM    3  O   UNL     1     -10.125  10.654  62.764  1.00  0.00    -0.200 OA 
HETATM    4  C   UNL     1      -8.896  10.314  64.817  1.00  0.00    -0.196 C  
ENDROOT
BRANCH   4   5
HETATM    5  S   UNL     1      -9.386  10.196  66.586  1.00  0.00    -0.166 SA 
BRANCH   5   6
HETATM    6  C   UNL     1      -8.258  11.441  67.286  1.00  0.00    -0.150 C  
BRANCH   6   7
HETATM    7  C   UNL     1      -9.036  12.649  67.764  1.00  0.00    -0.189 C  
HETATM    8  O   UNL     1      -8.592  13.403  68.626  1.00  0.00    -0.111 OA 
HETATM    9  N   UNL     1     -10.243  12.852  67.122  1.00  0.00    -0.237 N  
HETATM   10  H   UNL     1     -10.580  12.160  66.454  1.00  0.00     0.000 HD 
BRANCH   9  11
HETATM   11  C   UNL     1     -11.045  14.045  67.387  1.00  0.00    -0.303 C  
HETATM   12  C   UNL     1     -11.315  14.322  68.863  1.00  0.00    -0.302 C  
HETATM   13  C   UNL     1     -11.716  15.779  69.002  1.00  0.00    -0.396 C  
HETATM   14  S   UNL     1     -10.661  16.688  67.843  1.00  0.00    -0.340 SA 
HETATM   15  C   UNL     1     -10.418  15.301  66.790  1.00  0.00    -0.293 C  
HETATM   16  O   UNL     1      -9.873  15.371  65.697  1.00  0.00    -0.339 OA 
ENDBRANCH   9  11
ENDBRANCH   6   7
ENDBRANCH   5   6
ENDBRANCH   4   5
TORSDOF 4
ENDMDL
MODEL      194
REMARK 921   NORMALIZED FREE ENERGY PREDICTED BY IDOCK:   -2.98 KCAL/MOL
REMARK 922        TOTAL FREE ENERGY PREDICTED BY IDOCK:   -4.00 KCAL/MOL
REMARK 923 INTER-LIGAND FREE ENERGY PREDICTED BY IDOCK:   -3.47 KCAL/MOL
REMARK 924 INTRA-LIGAND FREE ENERGY PREDICTED BY IDOCK:   -0.53 KCAL/MOL
REMARK 927      BINDING AFFINITY PREDICTED BY RF-SCORE:    0.00 PKD
ROOT
HETATM    1  O   UNL     1     -10.841   8.673  72.225  1.00  0.00    -0.354 OA 
HETATM    2  C   UNL     1     -10.460   7.555  72.892  1.00  0.00    -0.318 C  
HETATM    3  O   UNL     1      -9.835   7.615  73.942  1.00  0.00    -0.250 OA 
HETATM    4  C   UNL     1     -10.937   6.257  72.274  1.00  0.00    -0.259 C  
ENDROOT
BRANCH   4   5
HETATM    5  S   UNL     1     -11.193   6.431  70.462  1.00  0.00    -0.370 SA 
BRANCH   5   6
HETATM    6  C   UNL     1      -9.485   6.809  69.959  1.00  0.00    -0.157 C  
BRANCH   6   7
HETATM    7  C   UNL     1      -9.474   7.889  68.898  1.00  0.00    -0.150 C  
HETATM    8  O   UNL     1      -8.912   7.728  67.817  1.00  0.00    -0.128 OA 
HETATM    9  N   UNL     1     -10.179   9.032  69.227  1.00  0.00    -0.199 N  
HETATM   10  H   UNL     1     -10.576   9.126  70.161  1.00  0.00     0.000 HD 
BRANCH   9  11
HETATM   11  C   UNL     1     -10.363  10.108  68.255  1.00  0.00    -0.186 C  
HETATM   12  C   UNL     1     -11.755  10.735  68.247  1.00  0.00    -0.205 C  
HETATM   13  C   UNL     1     -11.656  12.090  67.572  1.00  0.00    -0.330 C  
HETATM   14  S   UNL     1     -10.085  12.800  68.131  1.00  0.00    -0.242 SA 
HETATM   15  C   UNL     1      -9.352  11.234  68.448  1.00  0.00    -0.181 C  
HETATM   16  O   UNL     1      -8.169  11.085  68.720  1.00  0.00    -0.140 OA 
ENDBRANCH   9  11
ENDBRANCH   6   7
ENDBRANCH   5   6
ENDBRANCH   4   5
TORSDOF 4
ENDMDL
MODEL      195
REMARK 921   NORMALIZED FREE ENERGY PREDICTED BY IDOCK:   -2.98 KCAL/MOL
REMARK 922        TOTAL FREE ENERGY PREDICTED BY IDOCK:   -4.00 KCAL/MOL
REMARK 923 INTER-LIGAND FREE ENERGY PREDICTED BY IDOCK:   -3.96 KCAL/MOL
REMARK 924 INTRA-LIGAND FREE ENERGY PREDICTED BY IDOCK:   -0.03 KCAL/MOL
REMARK 927      BINDING AFFINITY PREDICTED BY RF-SCORE:    0.00 PKD
ROOT
HETATM    1  O   UNL     1      -9.298   4.810  68.432  1.00  0.00    -0.118 OA 
HETATM    2  C   UNL     1      -8.583   5.287  67.383  1.00  0.00    -0.104 C  
HETATM    3  O   UNL     1      -7.405   4.997  67.222  1.00  0.00    -0.079 OA 
HETATM    4  C   UNL     1      -9.378   6.130  66.407  1.00  0.00    -0.152 C  
ENDROOT
BRANCH   4   5
HETATM    5  S   UNL     1     -10.810   6.939  67.231  1.00  0.00    -0.343 SA 
BRANCH   5   6
HETATM    6  C   UNL     1      -9.938   8.306  68.058  1.00  0.00    -0.185 C  
BRANCH   6   7
HETATM    7  C   UNL     1      -9.565   9.378  67.056  1.00  0.00    -0.158 C  
HETATM    8  O   UNL     1      -8.466   9.395  66.507  1.00  0.00    -0.129 OA 
HETATM    9  N   UNL     1     -10.569  10.288  66.780  1.00  0.00    -0.214 N  
HETATM   10  H   UNL     1     -11.439  10.252  67.309  1.00  0.00     0.000 HD 
BRANCH   9  11
HETATM   11  C   UNL     1     -10.401  11.302  65.741  1.00  0.00    -0.258 C  
HETATM   12  C   UNL     1     -10.194  10.751  64.333  1.00  0.00    -0.432 C  
HETATM   13  C   UNL     1     -10.510  11.858  63.344  1.00  0.00    -0.441 C  
HETATM   14  S   UNL     1     -11.942  12.731  64.032  1.00  0.00    -0.489 SA 
HETATM   15  C   UNL     1     -11.579  12.270  65.689  1.00  0.00    -0.380 C  
HETATM   16  O   UNL     1     -12.163  12.728  66.661  1.00  0.00    -0.481 OA 
ENDBRANCH   9  11
ENDBRANCH   6   7
ENDBRANCH   5   6
ENDBRANCH   4   5
TORSDOF 4
ENDMDL
MODEL      196
REMARK 921   NORMALIZED FREE ENERGY PREDICTED BY IDOCK:   -2.97 KCAL/MOL
REMARK 922        TOTAL FREE ENERGY PREDICTED BY IDOCK:   -3.98 KCAL/MOL
REMARK 923 INTER-LIGAND FREE ENERGY PREDICTED BY IDOCK:   -3.83 KCAL/MOL
REMARK 924 INTRA-LIGAND FREE ENERGY PREDICTED BY IDOCK:   -0.15 KCAL/MOL
REMARK 927      BINDING AFFINITY PREDICTED BY RF-SCORE:    0.00 PKD
ROOT
HETATM    1  O   UNL     1     -11.019   7.816  67.092  1.00  0.00    -0.245 OA 
HETATM    2  C   UNL     1      -9.933   8.451  66.587  1.00  0.00    -0.284 C  
HETATM    3  O   UNL     1      -8.963   7.832  66.168  1.00  0.00    -0.162 OA 
HETATM    4  C   UNL     1     -10.058   9.959  66.517  1.00  0.00    -0.232 C  
ENDROOT
BRANCH   4   5
HETATM    5  S   UNL     1     -11.219  10.595  67.793  1.00  0.00    -0.245 SA 
BRANCH   5   6
HETATM    6  C   UNL     1     -10.085  10.655  69.216  1.00  0.00    -0.206 C  
BRANCH   6   7
HETATM    7  C   UNL     1     -10.169   9.370  70.013  1.00  0.00    -0.229 C  
HETATM    8  O   UNL     1      -9.268   9.019  70.770  1.00  0.00    -0.203 OA 
HETATM    9  N   UNL     1     -11.347   8.665  69.853  1.00  0.00    -0.452 N  
HETATM   10  H   UNL     1     -12.033   8.981  69.168  1.00  0.00     0.000 HD 
BRANCH   9  11
HETATM   11  C   UNL     1     -11.625   7.473  70.652  1.00  0.00    -0.248 C  
HETATM   12  C   UNL     1     -10.627   6.333  70.472  1.00  0.00    -0.305 C  
HETATM   13  C   UNL     1     -10.755   5.403  71.665  1.00  0.00    -0.198 C  
HETATM   14  S   UNL     1     -11.014   6.481  73.098  1.00  0.00    -0.173 SA 
HETATM   15  C   UNL     1     -11.702   7.787  72.143  1.00  0.00    -0.320 C  
HETATM   16  O   UNL     1     -12.228   8.777  72.632  1.00  0.00    -0.333 OA 
ENDBRANCH   9  11
ENDBRANCH   6   7
ENDBRANCH   5   6
ENDBRANCH   4   5
TORSDOF 4
ENDMDL
MODEL      197
REMARK 921   NORMALIZED FREE ENERGY PREDICTED BY IDOCK:   -2.96 KCAL/MOL
REMARK 922        TOTAL FREE ENERGY PREDICTED BY IDOCK:   -3.98 KCAL/MOL
REMARK 923 INTER-LIGAND FREE ENERGY PREDICTED BY IDOCK:   -3.75 KCAL/MOL
REMARK 924 INTRA-LIGAND FREE ENERGY PREDICTED BY IDOCK:   -0.22 KCAL/MOL
REMARK 927      BINDING AFFINITY PREDICTED BY RF-SCORE:    0.00 PKD
ROOT
HETATM    1  O   UNL     1     -13.906  12.956  72.631  1.00  0.00    -0.596 OA 
HETATM    2  C   UNL     1     -13.250  13.580  71.621  1.00  0.00    -0.366 C  
HETATM    3  O   UNL     1     -13.365  14.782  71.426  1.00  0.00    -0.349 OA 
HETATM    4  C   UNL     1     -12.323  12.686  70.823  1.00  0.00    -0.283 C  
ENDROOT
BRANCH   4   5
HETATM    5  S   UNL     1     -12.878  10.934  70.867  1.00  0.00    -0.284 SA 
BRANCH   5   6
HETATM    6  C   UNL     1     -11.299  10.117  70.477  1.00  0.00    -0.338 C  
BRANCH   6   7
HETATM    7  C   UNL     1     -11.031  10.168  68.988  1.00  0.00    -0.226 C  
HETATM    8  O   UNL     1     -11.871  10.587  68.194  1.00  0.00    -0.417 OA 
HETATM    9  N   UNL     1      -9.766   9.757  68.611  1.00  0.00    -0.152 N  
HETATM   10  H   UNL     1      -9.135   9.369  69.312  1.00  0.00     0.000 HD 
BRANCH   9  11
HETATM   11  C   UNL     1      -9.320   9.870  67.224  1.00  0.00    -0.145 C  
HETATM   12  C   UNL     1      -8.238  10.919  66.982  1.00  0.00    -0.134 C  
HETATM   13  C   UNL     1      -7.561  10.598  65.662  1.00  0.00    -0.100 C  
HETATM   14  S   UNL     1      -7.434   8.791  65.605  1.00  0.00    -0.086 SA 
HETATM   15  C   UNL     1      -8.804   8.542  66.678  1.00  0.00    -0.135 C  
HETATM   16  O   UNL     1      -9.304   7.446  66.892  1.00  0.00    -0.142 OA 
ENDBRANCH   9  11
ENDBRANCH   6   7
ENDBRANCH   5   6
ENDBRANCH   4   5
TORSDOF 4
ENDMDL
MODEL      198
REMARK 921   NORMALIZED FREE ENERGY PREDICTED BY IDOCK:   -2.96 KCAL/MOL
REMARK 922        TOTAL FREE ENERGY PREDICTED BY IDOCK:   -3.97 KCAL/MOL
REMARK 923 INTER-LIGAND FREE ENERGY PREDICTED BY IDOCK:   -4.71 KCAL/MOL
REMARK 924 INTRA-LIGAND FREE ENERGY PREDICTED BY IDOCK:    0.74 KCAL/MOL
REMARK 927      BINDING AFFINITY PREDICTED BY RF-SCORE:    0.00 PKD
ROOT
HETATM    1  O   UNL     1     -12.375   8.131  72.192  1.00  0.00    -0.319 OA 
HETATM    2  C   UNL     1     -13.307   9.117  72.197  1.00  0.00    -0.463 C  
HETATM    3  O   UNL     1     -14.386   8.980  72.757  1.00  0.00    -0.596 OA 
HETATM    4  C   UNL     1     -12.868  10.404  71.529  1.00  0.00    -0.464 C  
ENDROOT
BRANCH   4   5
HETATM    5  S   UNL     1     -11.594  10.091  70.240  1.00  0.00    -0.271 SA 
BRANCH   5   6
HETATM    6  C   UNL     1     -11.950  11.489  69.131  1.00  0.00    -0.320 C  
BRANCH   6   7
HETATM    7  C   UNL     1     -11.561  11.146  67.708  1.00  0.00    -0.223 C  
HETATM    8  O   UNL     1     -11.703  11.948  66.788  1.00  0.00    -0.548 OA 
HETATM    9  N   UNL     1     -10.996   9.895  67.547  1.00  0.00    -0.375 N  
HETATM   10  H   UNL     1     -10.956   9.256  68.340  1.00  0.00     0.000 HD 
BRANCH   9  11
HETATM   11  C   UNL     1     -10.457   9.473  66.256  1.00  0.00    -0.067 C  
HETATM   12  C   UNL     1     -10.241  10.601  65.251  1.00  0.00    -0.351 C  
HETATM   13  C   UNL     1      -9.270  10.109  64.194  1.00  0.00    -0.270 C  
HETATM   14  S   UNL     1      -8.039   9.121  65.084  1.00  0.00    -0.138 SA 
HETATM   15  C   UNL     1      -9.133   8.729  66.403  1.00  0.00    -0.177 C  
HETATM   16  O   UNL     1      -8.873   7.913  67.277  1.00  0.00    -0.126 OA 
ENDBRANCH   9  11
ENDBRANCH   6   7
ENDBRANCH   5   6
ENDBRANCH   4   5
TORSDOF 4
ENDMDL
MODEL      199
REMARK 921   NORMALIZED FREE ENERGY PREDICTED BY IDOCK:   -2.94 KCAL/MOL
REMARK 922        TOTAL FREE ENERGY PREDICTED BY IDOCK:   -3.95 KCAL/MOL
REMARK 923 INTER-LIGAND FREE ENERGY PREDICTED BY IDOCK:   -3.71 KCAL/MOL
REMARK 924 INTRA-LIGAND FREE ENERGY PREDICTED BY IDOCK:   -0.24 KCAL/MOL
REMARK 927      BINDING AFFINITY PREDICTED BY RF-SCORE:    0.00 PKD
ROOT
HETATM    1  O   UNL     1     -12.397   6.240  71.646  1.00  0.00    -0.241 OA 
HETATM    2  C   UNL     1     -13.155   7.355  71.796  1.00  0.00    -0.317 C  
HETATM    3  O   UNL     1     -14.350   7.360  71.533  1.00  0.00    -0.448 OA 
HETATM    4  C   UNL     1     -12.421   8.545  72.380  1.00  0.00    -0.353 C  
ENDROOT
BRANCH   4   5
HETATM    5  S   UNL     1     -10.622   8.471  72.008  1.00  0.00    -0.354 SA 
BRANCH   5   6
HETATM    6  C   UNL     1     -10.575   9.579  70.565  1.00  0.00    -0.297 C  
BRANCH   6   7
HETATM    7  C   UNL     1      -9.180   9.622  69.977  1.00  0.00    -0.241 C  
HETATM    8  O   UNL     1      -8.480   8.615  69.900  1.00  0.00    -0.122 OA 
HETATM    9  N   UNL     1      -8.790  10.858  69.498  1.00  0.00    -0.374 N  
HETATM   10  H   UNL     1      -9.396  11.666  69.640  1.00  0.00     0.000 HD 
BRANCH   9  11
HETATM   11  C   UNL     1      -7.523  11.026  68.789  1.00  0.00    -0.116 C  
HETATM   12  C   UNL     1      -7.573  11.984  67.602  1.00  0.00    -0.136 C  
HETATM   13  C   UNL     1      -6.152  12.414  67.286  1.00  0.00    -0.143 C  
HETATM   14  S   UNL     1      -5.337  12.623  68.891  1.00  0.00    -0.067 SA 
HETATM   15  C   UNL     1      -6.407  11.498  69.716  1.00  0.00    -0.140 C  
HETATM   16  O   UNL     1      -6.223  11.107  70.860  1.00  0.00    -0.361 OA 
ENDBRANCH   9  11
ENDBRANCH   6   7
ENDBRANCH   5   6
ENDBRANCH   4   5
TORSDOF 4
ENDMDL
MODEL      200
REMARK 921   NORMALIZED FREE ENERGY PREDICTED BY IDOCK:   -2.93 KCAL/MOL
REMARK 922        TOTAL FREE ENERGY PREDICTED BY IDOCK:   -3.94 KCAL/MOL
REMARK 923 INTER-LIGAND FREE ENERGY PREDICTED BY IDOCK:   -4.00 KCAL/MOL
REMARK 924 INTRA-LIGAND FREE ENERGY PREDICTED BY IDOCK:    0.06 KCAL/MOL
REMARK 927      BINDING AFFINITY PREDICTED BY RF-SCORE:    0.00 PKD
ROOT
HETATM    1  O   UNL     1     -12.649   7.337  71.886  1.00  0.00    -0.316 OA 
HETATM    2  C   UNL     1     -13.189   8.563  71.675  1.00  0.00    -0.343 C  
HETATM    3  O   UNL     1     -14.393   8.717  71.519  1.00  0.00    -0.410 OA 
HETATM    4  C   UNL     1     -12.198   9.708  71.727  1.00  0.00    -0.384 C  
ENDROOT
BRANCH   4   5
HETATM    5  S   UNL     1     -10.505   9.150  71.274  1.00  0.00    -0.340 SA 
BRANCH   5   6
HETATM    6  C   UNL     1     -10.588   9.399  69.472  1.00  0.00    -0.222 C  
BRANCH   6   7
HETATM    7  C   UNL     1     -10.168   8.138  68.746  1.00  0.00    -0.207 C  
HETATM    8  O   UNL     1      -9.027   7.991  68.314  1.00  0.00    -0.133 OA 
HETATM    9  N   UNL     1     -11.147   7.166  68.657  1.00  0.00    -0.462 N  
HETATM   10  H   UNL     1     -12.090   7.371  68.987  1.00  0.00     0.000 HD 
BRANCH   9  11
HETATM   11  C   UNL     1     -10.852   5.849  68.097  1.00  0.00    -0.236 C  
HETATM   12  C   UNL     1     -10.350   5.863  66.656  1.00  0.00    -0.283 C  
HETATM   13  C   UNL     1      -9.654   4.540  66.388  1.00  0.00    -0.189 C  
HETATM   14  S   UNL     1      -8.752   4.148  67.910  1.00  0.00    -0.108 SA 
HETATM   15  C   UNL     1      -9.830   5.086  68.934  1.00  0.00    -0.175 C  
HETATM   16  O   UNL     1      -9.790   5.063  70.156  1.00  0.00    -0.191 OA 
ENDBRANCH   9  11
ENDBRANCH   6   7
ENDBRANCH   5   6
ENDBRANCH   4   5
TORSDOF 4
ENDMDL
MODEL      201
REMARK 921   NORMALIZED FREE ENERGY PREDICTED BY IDOCK:   -2.91 KCAL/MOL
REMARK 922        TOTAL FREE ENERGY PREDICTED BY IDOCK:   -3.91 KCAL/MOL
REMARK 923 INTER-LIGAND FREE ENERGY PREDICTED BY IDOCK:   -3.54 KCAL/MOL
REMARK 924 INTRA-LIGAND FREE ENERGY PREDICTED BY IDOCK:   -0.37 KCAL/MOL
REMARK 927      BINDING AFFINITY PREDICTED BY RF-SCORE:    0.00 PKD
ROOT
HETATM    1  O   UNL     1      -7.606  13.347  68.931  1.00  0.00    -0.084 OA 
HETATM    2  C   UNL     1      -6.498  12.909  68.282  1.00  0.00    -0.086 C  
HETATM    3  O   UNL     1      -6.008  13.535  67.352  1.00  0.00    -0.341 OA 
HETATM    4  C   UNL     1      -5.892  11.642  68.851  1.00  0.00    -0.048 C  
ENDROOT
BRANCH   4   5
HETATM    5  S   UNL     1      -7.160  10.614  69.698  1.00  0.00    -0.131 SA 
BRANCH   5   6
HETATM    6  C   UNL     1      -7.990   9.911  68.238  1.00  0.00    -0.100 C  
BRANCH   6   7
HETATM    7  C   UNL     1      -9.469   9.732  68.507  1.00  0.00    -0.145 C  
HETATM    8  O   UNL     1     -10.231   9.282  67.655  1.00  0.00    -0.200 OA 
HETATM    9  N   UNL     1      -9.871  10.068  69.787  1.00  0.00    -0.248 N  
HETATM   10  H   UNL     1      -9.200  10.488  70.430  1.00  0.00     0.000 HD 
BRANCH   9  11
HETATM   11  C   UNL     1     -11.242   9.829  70.232  1.00  0.00    -0.288 C  
HETATM   12  C   UNL     1     -11.366   9.121  71.578  1.00  0.00    -0.439 C  
HETATM   13  C   UNL     1     -12.765   9.370  72.113  1.00  0.00    -0.382 C  
HETATM   14  S   UNL     1     -13.152  11.088  71.685  1.00  0.00    -0.365 SA 
HETATM   15  C   UNL     1     -12.051  11.121  70.315  1.00  0.00    -0.377 C  
HETATM   16  O   UNL     1     -12.003  12.039  69.508  1.00  0.00    -0.303 OA 
ENDBRANCH   9  11
ENDBRANCH   6   7
ENDBRANCH   5   6
ENDBRANCH   4   5
TORSDOF 4
ENDMDL
MODEL      202
REMARK 921   NORMALIZED FREE ENERGY PREDICTED BY IDOCK:   -2.90 KCAL/MOL
REMARK 922        TOTAL FREE ENERGY PREDICTED BY IDOCK:   -3.90 KCAL/MOL
REMARK 923 INTER-LIGAND FREE ENERGY PREDICTED BY IDOCK:   -3.64 KCAL/MOL
REMARK 924 INTRA-LIGAND FREE ENERGY PREDICTED BY IDOCK:   -0.25 KCAL/MOL
REMARK 927      BINDING AFFINITY PREDICTED BY RF-SCORE:    0.00 PKD
ROOT
HETATM    1  O   UNL     1      -9.271   7.221  66.269  1.00  0.00    -0.168 OA 
HETATM    2  C   UNL     1     -10.110   6.985  67.309  1.00  0.00    -0.204 C  
HETATM    3  O   UNL     1     -10.712   5.926  67.421  1.00  0.00    -0.253 OA 
HETATM    4  C   UNL     1     -10.170   8.096  68.337  1.00  0.00    -0.209 C  
ENDROOT
BRANCH   4   5
HETATM    5  S   UNL     1      -9.767   9.726  67.587  1.00  0.00    -0.161 SA 
BRANCH   5   6
HETATM    6  C   UNL     1     -11.351  10.578  67.869  1.00  0.00    -0.222 C  
BRANCH   6   7
HETATM    7  C   UNL     1     -11.252  12.029  67.449  1.00  0.00    -0.307 C  
HETATM    8  O   UNL     1     -11.566  12.399  66.320  1.00  0.00    -0.357 OA 
HETATM    9  N   UNL     1     -10.833  12.893  68.444  1.00  0.00    -0.245 N  
HETATM   10  H   UNL     1     -10.535  12.517  69.344  1.00  0.00     0.000 HD 
BRANCH   9  11
HETATM   11  C   UNL     1     -10.810  14.338  68.226  1.00  0.00    -0.246 C  
HETATM   12  C   UNL     1     -11.355  15.170  69.383  1.00  0.00    -0.307 C  
HETATM   13  C   UNL     1     -10.840  16.589  69.224  1.00  0.00    -0.326 C  
HETATM   14  S   UNL     1      -9.133  16.426  68.637  1.00  0.00    -0.241 SA 
HETATM   15  C   UNL     1      -9.407  14.848  67.912  1.00  0.00    -0.191 C  
HETATM   16  O   UNL     1      -8.591  14.282  67.198  1.00  0.00    -0.206 OA 
ENDBRANCH   9  11
ENDBRANCH   6   7
ENDBRANCH   5   6
ENDBRANCH   4   5
TORSDOF 4
ENDMDL
MODEL      203
REMARK 921   NORMALIZED FREE ENERGY PREDICTED BY IDOCK:   -2.89 KCAL/MOL
REMARK 922        TOTAL FREE ENERGY PREDICTED BY IDOCK:   -3.88 KCAL/MOL
REMARK 923 INTER-LIGAND FREE ENERGY PREDICTED BY IDOCK:   -3.58 KCAL/MOL
REMARK 924 INTRA-LIGAND FREE ENERGY PREDICTED BY IDOCK:   -0.30 KCAL/MOL
REMARK 927      BINDING AFFINITY PREDICTED BY RF-SCORE:    0.00 PKD
ROOT
HETATM    1  O   UNL     1      -9.186  10.750  65.627  1.00  0.00    -0.184 OA 
HETATM    2  C   UNL     1      -7.938  10.423  65.210  1.00  0.00    -0.143 C  
HETATM    3  O   UNL     1      -7.697  10.170  64.037  1.00  0.00    -0.148 OA 
HETATM    4  C   UNL     1      -6.877  10.475  66.291  1.00  0.00    -0.127 C  
ENDROOT
BRANCH   4   5
HETATM    5  S   UNL     1      -7.601  10.183  67.956  1.00  0.00    -0.088 SA 
BRANCH   5   6
HETATM    6  C   UNL     1      -7.097  11.732  68.770  1.00  0.00    -0.111 C  
BRANCH   6   7
HETATM    7  C   UNL     1      -8.061  12.848  68.424  1.00  0.00    -0.130 C  
HETATM    8  O   UNL     1      -7.722  14.028  68.459  1.00  0.00    -0.128 OA 
HETATM    9  N   UNL     1      -9.316  12.427  68.026  1.00  0.00    -0.198 N  
HETATM   10  H   UNL     1      -9.552  11.436  68.071  1.00  0.00     0.000 HD 
BRANCH   9  11
HETATM   11  C   UNL     1     -10.311  13.382  67.542  1.00  0.00    -0.226 C  
HETATM   12  C   UNL     1      -9.831  14.292  66.414  1.00  0.00    -0.309 C  
HETATM   13  C   UNL     1     -11.054  14.861  65.717  1.00  0.00    -0.342 C  
HETATM   14  S   UNL     1     -12.257  13.506  65.661  1.00  0.00    -0.480 SA 
HETATM   15  C   UNL     1     -11.585  12.691  67.065  1.00  0.00    -0.365 C  
HETATM   16  O   UNL     1     -12.120  11.737  67.613  1.00  0.00    -0.598 OA 
ENDBRANCH   9  11
ENDBRANCH   6   7
ENDBRANCH   5   6
ENDBRANCH   4   5
TORSDOF 4
ENDMDL
MODEL      204
REMARK 921   NORMALIZED FREE ENERGY PREDICTED BY IDOCK:   -2.89 KCAL/MOL
REMARK 922        TOTAL FREE ENERGY PREDICTED BY IDOCK:   -3.88 KCAL/MOL
REMARK 923 INTER-LIGAND FREE ENERGY PREDICTED BY IDOCK:   -4.05 KCAL/MOL
REMARK 924 INTRA-LIGAND FREE ENERGY PREDICTED BY IDOCK:    0.17 KCAL/MOL
REMARK 927      BINDING AFFINITY PREDICTED BY RF-SCORE:    0.00 PKD
ROOT
HETATM    1  O   UNL     1     -12.529  13.301  63.481  1.00  0.00    -0.728 OA 
HETATM    2  C   UNL     1     -11.678  13.883  64.363  1.00  0.00    -0.404 C  
HETATM    3  O   UNL     1     -11.665  15.094  64.540  1.00  0.00    -0.403 OA 
HETATM    4  C   UNL     1     -10.820  12.912  65.148  1.00  0.00    -0.296 C  
ENDROOT
BRANCH   4   5
HETATM    5  S   UNL     1     -10.552  11.349  64.217  1.00  0.00    -0.371 SA 
BRANCH   5   6
HETATM    6  C   UNL     1      -8.878  10.942  64.803  1.00  0.00    -0.100 C  
BRANCH   6   7
HETATM    7  C   UNL     1      -8.938   9.862  65.862  1.00  0.00    -0.152 C  
HETATM    8  O   UNL     1      -8.039   9.715  66.688  1.00  0.00    -0.117 OA 
HETATM    9  N   UNL     1     -10.093   9.102  65.851  1.00  0.00    -0.387 N  
HETATM   10  H   UNL     1     -10.776   9.237  65.106  1.00  0.00     0.000 HD 
BRANCH   9  11
HETATM   11  C   UNL     1     -10.349   8.106  66.890  1.00  0.00    -0.331 C  
HETATM   12  C   UNL     1      -9.246   7.066  67.068  1.00  0.00    -0.167 C  
HETATM   13  C   UNL     1      -9.417   6.432  68.436  1.00  0.00    -0.119 C  
HETATM   14  S   UNL     1      -9.906   7.781  69.543  1.00  0.00    -0.182 SA 
HETATM   15  C   UNL     1     -10.601   8.749  68.250  1.00  0.00    -0.142 C  
HETATM   16  O   UNL     1     -11.254   9.765  68.443  1.00  0.00    -0.152 OA 
ENDBRANCH   9  11
ENDBRANCH   6   7
ENDBRANCH   5   6
ENDBRANCH   4   5
TORSDOF 4
ENDMDL
MODEL      205
REMARK 921   NORMALIZED FREE ENERGY PREDICTED BY IDOCK:   -2.89 KCAL/MOL
REMARK 922        TOTAL FREE ENERGY PREDICTED BY IDOCK:   -3.88 KCAL/MOL
REMARK 923 INTER-LIGAND FREE ENERGY PREDICTED BY IDOCK:   -3.62 KCAL/MOL
REMARK 924 INTRA-LIGAND FREE ENERGY PREDICTED BY IDOCK:   -0.27 KCAL/MOL
REMARK 927      BINDING AFFINITY PREDICTED BY RF-SCORE:    0.00 PKD
ROOT
HETATM    1  O   UNL     1      -8.625   6.508  65.684  1.00  0.00    -0.150 OA 
HETATM    2  C   UNL     1      -9.310   6.440  66.853  1.00  0.00    -0.134 C  
HETATM    3  O   UNL     1      -9.915   5.430  67.185  1.00  0.00    -0.144 OA 
HETATM    4  C   UNL     1      -9.194   7.673  67.726  1.00  0.00    -0.136 C  
ENDROOT
BRANCH   4   5
HETATM    5  S   UNL     1      -8.864   9.178  66.722  1.00  0.00    -0.130 SA 
BRANCH   5   6
HETATM    6  C   UNL     1      -8.905  10.427  68.044  1.00  0.00    -0.130 C  
BRANCH   6   7
HETATM    7  C   UNL     1     -10.334  10.827  68.349  1.00  0.00    -0.180 C  
HETATM    8  O   UNL     1     -11.265  10.505  67.616  1.00  0.00    -0.326 OA 
HETATM    9  N   UNL     1     -10.501  11.528  69.529  1.00  0.00    -0.439 N  
HETATM   10  H   UNL     1      -9.681  11.812  70.065  1.00  0.00     0.000 HD 
BRANCH   9  11
HETATM   11  C   UNL     1     -11.834  11.871  70.018  1.00  0.00    -0.328 C  
HETATM   12  C   UNL     1     -12.174  11.313  71.398  1.00  0.00    -0.185 C  
HETATM   13  C   UNL     1     -13.335  12.116  71.956  1.00  0.00    -0.365 C  
HETATM   14  S   UNL     1     -13.025  13.832  71.460  1.00  0.00    -0.356 SA 
HETATM   15  C   UNL     1     -12.059  13.379  70.063  1.00  0.00    -0.334 C  
HETATM   16  O   UNL     1     -11.683  14.176  69.215  1.00  0.00    -0.279 OA 
ENDBRANCH   9  11
ENDBRANCH   6   7
ENDBRANCH   5   6
ENDBRANCH   4   5
TORSDOF 4
ENDMDL
MODEL      206
REMARK 921   NORMALIZED FREE ENERGY PREDICTED BY IDOCK:   -2.88 KCAL/MOL
REMARK 922        TOTAL FREE ENERGY PREDICTED BY IDOCK:   -3.88 KCAL/MOL
REMARK 923 INTER-LIGAND FREE ENERGY PREDICTED BY IDOCK:   -4.31 KCAL/MOL
REMARK 924 INTRA-LIGAND FREE ENERGY PREDICTED BY IDOCK:    0.43 KCAL/MOL
REMARK 927      BINDING AFFINITY PREDICTED BY RF-SCORE:    0.00 PKD
ROOT
HETATM    1  O   UNL     1     -10.355  17.947  65.734  1.00  0.00    -0.577 OA 
HETATM    2  C   UNL     1      -9.211  17.230  65.867  1.00  0.00     0.030 C  
HETATM    3  O   UNL     1      -8.110  17.762  65.830  1.00  0.00    -0.541 OA 
HETATM    4  C   UNL     1      -9.419  15.753  66.137  1.00  0.00    -0.340 C  
ENDROOT
BRANCH   4   5
HETATM    5  S   UNL     1     -11.022  15.165  65.454  1.00  0.00    -0.388 SA 
BRANCH   5   6
HETATM    6  C   UNL     1     -10.495  13.539  64.828  1.00  0.00    -0.413 C  
BRANCH   6   7
HETATM    7  C   UNL     1     -10.553  12.504  65.932  1.00  0.00    -0.265 C  
HETATM    8  O   UNL     1     -10.532  11.300  65.690  1.00  0.00    -0.253 OA 
HETATM    9  N   UNL     1     -10.580  13.024  67.213  1.00  0.00    -0.241 N  
HETATM   10  H   UNL     1     -10.651  14.032  67.345  1.00  0.00     0.000 HD 
BRANCH   9  11
HETATM   11  C   UNL     1     -10.510  12.149  68.381  1.00  0.00    -0.231 C  
HETATM   12  C   UNL     1     -11.568  11.050  68.425  1.00  0.00    -0.372 C  
HETATM   13  C   UNL     1     -11.092   9.978  69.388  1.00  0.00    -0.223 C  
HETATM   14  S   UNL     1      -9.306   9.835  69.115  1.00  0.00    -0.194 SA 
HETATM   15  C   UNL     1      -9.145  11.480  68.515  1.00  0.00    -0.157 C  
HETATM   16  O   UNL     1      -8.068  12.020  68.304  1.00  0.00    -0.142 OA 
ENDBRANCH   9  11
ENDBRANCH   6   7
ENDBRANCH   5   6
ENDBRANCH   4   5
TORSDOF 4
ENDMDL
MODEL      207
REMARK 921   NORMALIZED FREE ENERGY PREDICTED BY IDOCK:   -2.88 KCAL/MOL
REMARK 922        TOTAL FREE ENERGY PREDICTED BY IDOCK:   -3.87 KCAL/MOL
REMARK 923 INTER-LIGAND FREE ENERGY PREDICTED BY IDOCK:   -3.98 KCAL/MOL
REMARK 924 INTRA-LIGAND FREE ENERGY PREDICTED BY IDOCK:    0.11 KCAL/MOL
REMARK 927      BINDING AFFINITY PREDICTED BY RF-SCORE:    0.00 PKD
ROOT
HETATM    1  O   UNL     1     -11.954  13.609  67.509  1.00  0.00    -0.363 OA 
HETATM    2  C   UNL     1     -11.538  13.813  66.234  1.00  0.00    -0.350 C  
HETATM    3  O   UNL     1     -12.312  13.752  65.287  1.00  0.00    -0.411 OA 
HETATM    4  C   UNL     1     -10.077  14.191  66.098  1.00  0.00    -0.313 C  
ENDROOT
BRANCH   4   5
HETATM    5  S   UNL     1      -9.081  13.531  67.496  1.00  0.00    -0.227 SA 
BRANCH   5   6
HETATM    6  C   UNL     1      -8.833  11.829  66.900  1.00  0.00    -0.191 C  
BRANCH   6   7
HETATM    7  C   UNL     1      -9.590  10.849  67.772  1.00  0.00    -0.164 C  
HETATM    8  O   UNL     1     -10.368  10.027  67.295  1.00  0.00    -0.208 OA 
HETATM    9  N   UNL     1      -9.296  10.926  69.121  1.00  0.00    -0.378 N  
HETATM   10  H   UNL     1      -8.682  11.667  69.460  1.00  0.00     0.000 HD 
BRANCH   9  11
HETATM   11  C   UNL     1      -9.852   9.963  70.069  1.00  0.00    -0.243 C  
HETATM   12  C   UNL     1     -11.368  10.026  70.233  1.00  0.00    -0.376 C  
HETATM   13  C   UNL     1     -11.829   8.713  70.841  1.00  0.00    -0.225 C  
HETATM   14  S   UNL     1     -10.816   7.431  70.059  1.00  0.00    -0.241 SA 
HETATM   15  C   UNL     1      -9.487   8.526  69.707  1.00  0.00    -0.166 C  
HETATM   16  O   UNL     1      -8.398   8.156  69.290  1.00  0.00    -0.126 OA 
ENDBRANCH   9  11
ENDBRANCH   6   7
ENDBRANCH   5   6
ENDBRANCH   4   5
TORSDOF 4
ENDMDL
MODEL      208
REMARK 921   NORMALIZED FREE ENERGY PREDICTED BY IDOCK:   -2.88 KCAL/MOL
REMARK 922        TOTAL FREE ENERGY PREDICTED BY IDOCK:   -3.87 KCAL/MOL
REMARK 923 INTER-LIGAND FREE ENERGY PREDICTED BY IDOCK:   -3.19 KCAL/MOL
REMARK 924 INTRA-LIGAND FREE ENERGY PREDICTED BY IDOCK:   -0.67 KCAL/MOL
REMARK 927      BINDING AFFINITY PREDICTED BY RF-SCORE:    0.00 PKD
ROOT
HETATM    1  O   UNL     1      -8.219   5.868  68.381  1.00  0.00    -0.108 OA 
HETATM    2  C   UNL     1      -7.900   5.581  67.095  1.00  0.00    -0.101 C  
HETATM    3  O   UNL     1      -7.494   4.475  66.765  1.00  0.00    -0.080 OA 
HETATM    4  C   UNL     1      -8.161   6.705  66.113  1.00  0.00    -0.118 C  
ENDROOT
BRANCH   4   5
HETATM    5  S   UNL     1      -8.075   8.347  66.935  1.00  0.00    -0.099 SA 
BRANCH   5   6
HETATM    6  C   UNL     1      -9.818   8.846  66.776  1.00  0.00    -0.241 C  
BRANCH   6   7
HETATM    7  C   UNL     1     -10.445   9.014  68.144  1.00  0.00    -0.207 C  
HETATM    8  O   UNL     1     -11.076  10.025  68.447  1.00  0.00    -0.237 OA 
HETATM    9  N   UNL     1     -10.293   7.931  68.990  1.00  0.00    -0.213 N  
HETATM   10  H   UNL     1      -9.712   7.145  68.699  1.00  0.00     0.000 HD 
BRANCH   9  11
HETATM   11  C   UNL     1     -10.950   7.896  70.294  1.00  0.00    -0.248 C  
HETATM   12  C   UNL     1     -11.550   6.545  70.674  1.00  0.00    -0.442 C  
HETATM   13  C   UNL     1     -11.754   6.528  72.178  1.00  0.00    -0.311 C  
HETATM   14  S   UNL     1     -10.312   7.375  72.875  1.00  0.00    -0.314 SA 
HETATM   15  C   UNL     1     -10.012   8.316  71.421  1.00  0.00    -0.194 C  
HETATM   16  O   UNL     1      -9.199   9.228  71.362  1.00  0.00    -0.282 OA 
ENDBRANCH   9  11
ENDBRANCH   6   7
ENDBRANCH   5   6
ENDBRANCH   4   5
TORSDOF 4
ENDMDL
MODEL      209
REMARK 921   NORMALIZED FREE ENERGY PREDICTED BY IDOCK:   -2.87 KCAL/MOL
REMARK 922        TOTAL FREE ENERGY PREDICTED BY IDOCK:   -3.86 KCAL/MOL
REMARK 923 INTER-LIGAND FREE ENERGY PREDICTED BY IDOCK:   -3.58 KCAL/MOL
REMARK 924 INTRA-LIGAND FREE ENERGY PREDICTED BY IDOCK:   -0.28 KCAL/MOL
REMARK 927      BINDING AFFINITY PREDICTED BY RF-SCORE:    0.00 PKD
ROOT
HETATM    1  O   UNL     1      -8.567   5.671  65.828  1.00  0.00    -0.137 OA 
HETATM    2  C   UNL     1      -9.794   5.775  66.397  1.00  0.00    -0.138 C  
HETATM    3  O   UNL     1     -10.672   4.948  66.188  1.00  0.00    -0.317 OA 
HETATM    4  C   UNL     1      -9.949   6.938  67.356  1.00  0.00    -0.166 C  
ENDROOT
BRANCH   4   5
HETATM    5  S   UNL     1      -8.804   8.313  66.933  1.00  0.00    -0.145 SA 
BRANCH   5   6
HETATM    6  C   UNL     1      -9.986   9.441  66.130  1.00  0.00    -0.281 C  
BRANCH   6   7
HETATM    7  C   UNL     1     -10.457  10.496  67.108  1.00  0.00    -0.249 C  
HETATM    8  O   UNL     1     -11.210  10.224  68.040  1.00  0.00    -0.293 OA 
HETATM    9  N   UNL     1      -9.935  11.759  66.895  1.00  0.00    -0.197 N  
HETATM   10  H   UNL     1      -9.358  11.932  66.072  1.00  0.00     0.000 HD 
BRANCH   9  11
HETATM   11  C   UNL     1     -10.197  12.850  67.831  1.00  0.00    -0.233 C  
HETATM   12  C   UNL     1      -8.970  13.668  68.224  1.00  0.00    -0.187 C  
HETATM   13  C   UNL     1      -9.450  14.995  68.782  1.00  0.00    -0.210 C  
HETATM   14  S   UNL     1     -10.862  15.475  67.754  1.00  0.00    -0.315 SA 
HETATM   15  C   UNL     1     -11.247  13.821  67.301  1.00  0.00    -0.311 C  
HETATM   16  O   UNL     1     -12.263  13.505  66.697  1.00  0.00    -0.398 OA 
ENDBRANCH   9  11
ENDBRANCH   6   7
ENDBRANCH   5   6
ENDBRANCH   4   5
TORSDOF 4
ENDMDL
MODEL      210
REMARK 921   NORMALIZED FREE ENERGY PREDICTED BY IDOCK:   -2.83 KCAL/MOL
REMARK 922        TOTAL FREE ENERGY PREDICTED BY IDOCK:   -3.81 KCAL/MOL
REMARK 923 INTER-LIGAND FREE ENERGY PREDICTED BY IDOCK:   -3.39 KCAL/MOL
REMARK 924 INTRA-LIGAND FREE ENERGY PREDICTED BY IDOCK:   -0.42 KCAL/MOL
REMARK 927      BINDING AFFINITY PREDICTED BY RF-SCORE:    0.00 PKD
ROOT
HETATM    1  O   UNL     1     -12.660  14.624  69.020  1.00  0.00    -0.020 OA 
HETATM    2  C   UNL     1     -11.983  13.448  69.020  1.00  0.00    -0.315 C  
HETATM    3  O   UNL     1     -11.630  12.909  70.061  1.00  0.00    -0.231 OA 
HETATM    4  C   UNL     1     -11.777  12.837  67.649  1.00  0.00    -0.367 C  
ENDROOT
BRANCH   4   5
HETATM    5  S   UNL     1     -11.760  14.125  66.337  1.00  0.00    -0.406 SA 
BRANCH   5   6
HETATM    6  C   UNL     1      -9.963  14.254  66.077  1.00  0.00    -0.319 C  
BRANCH   6   7
HETATM    7  C   UNL     1      -9.401  15.430  66.848  1.00  0.00    -0.236 C  
HETATM    8  O   UNL     1     -10.128  16.298  67.325  1.00  0.00    -0.253 OA 
HETATM    9  N   UNL     1      -8.028  15.416  67.008  1.00  0.00    -0.220 N  
HETATM   10  H   UNL     1      -7.475  14.697  66.541  1.00  0.00     0.000 HD 
BRANCH   9  11
HETATM   11  C   UNL     1      -7.356  16.416  67.835  1.00  0.00    -0.133 C  
HETATM   12  C   UNL     1      -6.206  15.879  68.683  1.00  0.00    -0.104 C  
HETATM   13  C   UNL     1      -5.335  17.054  69.091  1.00  0.00    -0.138 C  
HETATM   14  S   UNL     1      -5.277  18.144  67.644  1.00  0.00    -0.143 SA 
HETATM   15  C   UNL     1      -6.814  17.576  67.006  1.00  0.00    -0.176 C  
HETATM   16  O   UNL     1      -7.388  18.100  66.061  1.00  0.00    -0.330 OA 
ENDBRANCH   9  11
ENDBRANCH   6   7
ENDBRANCH   5   6
ENDBRANCH   4   5
TORSDOF 4
ENDMDL
MODEL      211
REMARK 921   NORMALIZED FREE ENERGY PREDICTED BY IDOCK:   -2.82 KCAL/MOL
REMARK 922        TOTAL FREE ENERGY PREDICTED BY IDOCK:   -3.80 KCAL/MOL
REMARK 923 INTER-LIGAND FREE ENERGY PREDICTED BY IDOCK:   -3.59 KCAL/MOL
REMARK 924 INTRA-LIGAND FREE ENERGY PREDICTED BY IDOCK:   -0.21 KCAL/MOL
REMARK 927      BINDING AFFINITY PREDICTED BY RF-SCORE:    0.00 PKD
ROOT
HETATM    1  O   UNL     1     -11.968  13.089  67.558  1.00  0.00    -0.357 OA 
HETATM    2  C   UNL     1     -11.102  12.241  66.949  1.00  0.00    -0.290 C  
HETATM    3  O   UNL     1     -10.859  12.320  65.752  1.00  0.00    -0.262 OA 
HETATM    4  C   UNL     1     -10.418  11.261  67.879  1.00  0.00    -0.188 C  
ENDROOT
BRANCH   4   5
HETATM    5  S   UNL     1     -11.448  10.914  69.363  1.00  0.00    -0.331 SA 
BRANCH   5   6
HETATM    6  C   UNL     1     -10.964   9.185  69.658  1.00  0.00    -0.153 C  
BRANCH   6   7
HETATM    7  C   UNL     1     -10.830   8.920  71.143  1.00  0.00    -0.281 C  
HETATM    8  O   UNL     1     -11.683   9.293  71.946  1.00  0.00    -0.370 OA 
HETATM    9  N   UNL     1      -9.711   8.193  71.504  1.00  0.00    -0.166 N  
HETATM   10  H   UNL     1      -9.013   7.960  70.798  1.00  0.00     0.000 HD 
BRANCH   9  11
HETATM   11  C   UNL     1      -9.512   7.752  72.884  1.00  0.00    -0.234 C  
HETATM   12  C   UNL     1      -9.865   6.291  73.148  1.00  0.00    -0.173 C  
HETATM   13  C   UNL     1      -9.180   5.867  74.434  1.00  0.00    -0.138 C  
HETATM   14  S   UNL     1      -7.552   6.664  74.404  1.00  0.00    -0.099 SA 
HETATM   15  C   UNL     1      -8.078   7.972  73.355  1.00  0.00    -0.192 C  
HETATM   16  O   UNL     1      -7.393   8.954  73.103  1.00  0.00    -0.355 OA 
ENDBRANCH   9  11
ENDBRANCH   6   7
ENDBRANCH   5   6
ENDBRANCH   4   5
TORSDOF 4
ENDMDL
MODEL      212
REMARK 921   NORMALIZED FREE ENERGY PREDICTED BY IDOCK:   -2.81 KCAL/MOL
REMARK 922        TOTAL FREE ENERGY PREDICTED BY IDOCK:   -3.79 KCAL/MOL
REMARK 923 INTER-LIGAND FREE ENERGY PREDICTED BY IDOCK:   -3.97 KCAL/MOL
REMARK 924 INTRA-LIGAND FREE ENERGY PREDICTED BY IDOCK:    0.18 KCAL/MOL
REMARK 927      BINDING AFFINITY PREDICTED BY RF-SCORE:    0.00 PKD
ROOT
HETATM    1  O   UNL     1      -8.325   8.128  64.895  1.00  0.00    -0.160 OA 
HETATM    2  C   UNL     1      -7.565   9.078  65.496  1.00  0.00    -0.090 C  
HETATM    3  O   UNL     1      -6.542   8.793  66.103  1.00  0.00    -0.063 OA 
HETATM    4  C   UNL     1      -8.047  10.499  65.285  1.00  0.00    -0.131 C  
ENDROOT
BRANCH   4   5
HETATM    5  S   UNL     1      -9.860  10.556  64.989  1.00  0.00    -0.329 SA 
BRANCH   5   6
HETATM    6  C   UNL     1     -10.439  10.572  66.715  1.00  0.00    -0.242 C  
BRANCH   6   7
HETATM    7  C   UNL     1     -10.592  11.996  67.207  1.00  0.00    -0.222 C  
HETATM    8  O   UNL     1      -9.801  12.493  68.005  1.00  0.00    -0.201 OA 
HETATM    9  N   UNL     1     -11.652  12.690  66.653  1.00  0.00    -0.361 N  
HETATM   10  H   UNL     1     -12.304  12.204  66.038  1.00  0.00     0.000 HD 
BRANCH   9  11
HETATM   11  C   UNL     1     -11.851  14.110  66.934  1.00  0.00    -0.431 C  
HETATM   12  C   UNL     1     -11.773  14.489  68.411  1.00  0.00    -0.367 C  
HETATM   13  C   UNL     1     -11.521  15.983  68.500  1.00  0.00    -0.357 C  
HETATM   14  S   UNL     1     -10.362  16.363  67.159  1.00  0.00    -0.287 SA 
HETATM   15  C   UNL     1     -10.858  14.989  66.180  1.00  0.00    -0.329 C  
HETATM   16  O   UNL     1     -10.494  14.817  65.025  1.00  0.00    -0.397 OA 
ENDBRANCH   9  11
ENDBRANCH   6   7
ENDBRANCH   5   6
ENDBRANCH   4   5
TORSDOF 4
ENDMDL
MODEL      213
REMARK 921   NORMALIZED FREE ENERGY PREDICTED BY IDOCK:   -2.81 KCAL/MOL
REMARK 922        TOTAL FREE ENERGY PREDICTED BY IDOCK:   -3.78 KCAL/MOL
REMARK 923 INTER-LIGAND FREE ENERGY PREDICTED BY IDOCK:   -3.49 KCAL/MOL
REMARK 924 INTRA-LIGAND FREE ENERGY PREDICTED BY IDOCK:   -0.29 KCAL/MOL
REMARK 927      BINDING AFFINITY PREDICTED BY RF-SCORE:    0.00 PKD
ROOT
HETATM    1  O   UNL     1     -10.308  17.405  66.153  1.00  0.00    -0.355 OA 
HETATM    2  C   UNL     1      -8.975  17.159  66.098  1.00  0.00    -0.182 C  
HETATM    3  O   UNL     1      -8.175  18.024  65.766  1.00  0.00    -0.519 OA 
HETATM    4  C   UNL     1      -8.569  15.772  66.551  1.00  0.00    -0.308 C  
ENDROOT
BRANCH   4   5
HETATM    5  S   UNL     1      -9.930  14.560  66.302  1.00  0.00    -0.319 SA 
BRANCH   5   6
HETATM    6  C   UNL     1     -10.033  13.885  67.989  1.00  0.00    -0.241 C  
BRANCH   6   7
HETATM    7  C   UNL     1      -9.383  12.519  68.053  1.00  0.00    -0.205 C  
HETATM    8  O   UNL     1      -8.200  12.380  68.353  1.00  0.00    -0.164 OA 
HETATM    9  N   UNL     1     -10.234  11.460  67.797  1.00  0.00    -0.178 N  
HETATM   10  H   UNL     1     -11.191  11.645  67.500  1.00  0.00     0.000 HD 
BRANCH   9  11
HETATM   11  C   UNL     1      -9.781  10.078  67.945  1.00  0.00    -0.146 C  
HETATM   12  C   UNL     1     -10.747   9.163  68.691  1.00  0.00    -0.156 C  
HETATM   13  C   UNL     1     -10.388   7.727  68.355  1.00  0.00    -0.196 C  
HETATM   14  S   UNL     1      -9.944   7.733  66.598  1.00  0.00    -0.193 SA 
HETATM   15  C   UNL     1      -9.475   9.428  66.600  1.00  0.00    -0.177 C  
HETATM   16  O   UNL     1      -8.918   9.975  65.659  1.00  0.00    -0.156 OA 
ENDBRANCH   9  11
ENDBRANCH   6   7
ENDBRANCH   5   6
ENDBRANCH   4   5
TORSDOF 4
ENDMDL
MODEL      214
REMARK 921   NORMALIZED FREE ENERGY PREDICTED BY IDOCK:   -2.81 KCAL/MOL
REMARK 922        TOTAL FREE ENERGY PREDICTED BY IDOCK:   -3.78 KCAL/MOL
REMARK 923 INTER-LIGAND FREE ENERGY PREDICTED BY IDOCK:   -4.02 KCAL/MOL
REMARK 924 INTRA-LIGAND FREE ENERGY PREDICTED BY IDOCK:    0.24 KCAL/MOL
REMARK 927      BINDING AFFINITY PREDICTED BY RF-SCORE:    0.00 PKD
ROOT
HETATM    1  O   UNL     1     -11.370   7.980  72.522  1.00  0.00    -0.353 OA 
HETATM    2  C   UNL     1     -12.111   8.785  71.722  1.00  0.00    -0.350 C  
HETATM    3  O   UNL     1     -13.329   8.681  71.656  1.00  0.00    -0.338 OA 
HETATM    4  C   UNL     1     -11.321   9.852  70.992  1.00  0.00    -0.386 C  
ENDROOT
BRANCH   4   5
HETATM    5  S   UNL     1      -9.577   9.333  70.730  1.00  0.00    -0.262 SA 
BRANCH   5   6
HETATM    6  C   UNL     1      -9.819   8.178  69.344  1.00  0.00    -0.182 C  
BRANCH   6   7
HETATM    7  C   UNL     1     -10.022   8.941  68.051  1.00  0.00    -0.178 C  
HETATM    8  O   UNL     1     -10.832   8.573  67.203  1.00  0.00    -0.216 OA 
HETATM    9  N   UNL     1      -9.267  10.093  67.933  1.00  0.00    -0.137 N  
HETATM   10  H   UNL     1      -8.573  10.315  68.647  1.00  0.00     0.000 HD 
BRANCH   9  11
HETATM   11  C   UNL     1      -9.447  10.998  66.800  1.00  0.00    -0.182 C  
HETATM   12  C   UNL     1      -9.723  10.310  65.466  1.00  0.00    -0.326 C  
HETATM   13  C   UNL     1     -10.344  11.331  64.530  1.00  0.00    -0.322 C  
HETATM   14  S   UNL     1     -11.461  12.320  65.559  1.00  0.00    -0.357 SA 
HETATM   15  C   UNL     1     -10.571  12.002  67.041  1.00  0.00    -0.227 C  
HETATM   16  O   UNL     1     -10.796  12.572  68.100  1.00  0.00    -0.206 OA 
ENDBRANCH   9  11
ENDBRANCH   6   7
ENDBRANCH   5   6
ENDBRANCH   4   5
TORSDOF 4
ENDMDL
MODEL      215
REMARK 921   NORMALIZED FREE ENERGY PREDICTED BY IDOCK:   -2.80 KCAL/MOL
REMARK 922        TOTAL FREE ENERGY PREDICTED BY IDOCK:   -3.77 KCAL/MOL
REMARK 923 INTER-LIGAND FREE ENERGY PREDICTED BY IDOCK:   -3.74 KCAL/MOL
REMARK 924 INTRA-LIGAND FREE ENERGY PREDICTED BY IDOCK:   -0.03 KCAL/MOL
REMARK 927      BINDING AFFINITY PREDICTED BY RF-SCORE:    0.00 PKD
ROOT
HETATM    1  O   UNL     1      -6.929  14.461  69.921  1.00  0.00    -0.111 OA 
HETATM    2  C   UNL     1      -6.410  14.526  68.670  1.00  0.00    -0.086 C  
HETATM    3  O   UNL     1      -5.203  14.491  68.471  1.00  0.00    -0.091 OA 
HETATM    4  C   UNL     1      -7.440  14.568  67.559  1.00  0.00    -0.194 C  
ENDROOT
BRANCH   4   5
HETATM    5  S   UNL     1      -9.024  15.299  68.141  1.00  0.00    -0.176 SA 
BRANCH   5   6
HETATM    6  C   UNL     1      -9.786  15.666  66.530  1.00  0.00    -0.261 C  
BRANCH   6   7
HETATM    7  C   UNL     1     -10.224  14.387  65.849  1.00  0.00    -0.325 C  
HETATM    8  O   UNL     1     -10.451  14.342  64.642  1.00  0.00    -0.425 OA 
HETATM    9  N   UNL     1     -10.295  13.283  66.678  1.00  0.00    -0.270 N  
HETATM   10  H   UNL     1     -10.147  13.398  67.681  1.00  0.00     0.000 HD 
BRANCH   9  11
HETATM   11  C   UNL     1     -10.580  11.954  66.141  1.00  0.00    -0.258 C  
HETATM   12  C   UNL     1      -9.441  11.328  65.340  1.00  0.00    -0.251 C  
HETATM   13  C   UNL     1      -9.685   9.832  65.268  1.00  0.00    -0.300 C  
HETATM   14  S   UNL     1     -10.331   9.364  66.895  1.00  0.00    -0.216 SA 
HETATM   15  C   UNL     1     -10.972  10.965  67.234  1.00  0.00    -0.294 C  
HETATM   16  O   UNL     1     -11.691  11.216  68.191  1.00  0.00    -0.480 OA 
ENDBRANCH   9  11
ENDBRANCH   6   7
ENDBRANCH   5   6
ENDBRANCH   4   5
TORSDOF 4
ENDMDL
MODEL      216
REMARK 921   NORMALIZED FREE ENERGY PREDICTED BY IDOCK:   -2.78 KCAL/MOL
REMARK 922        TOTAL FREE ENERGY PREDICTED BY IDOCK:   -3.75 KCAL/MOL
REMARK 923 INTER-LIGAND FREE ENERGY PREDICTED BY IDOCK:   -3.55 KCAL/MOL
REMARK 924 INTRA-LIGAND FREE ENERGY PREDICTED BY IDOCK:   -0.20 KCAL/MOL
REMARK 927      BINDING AFFINITY PREDICTED BY RF-SCORE:    0.00 PKD
ROOT
HETATM    1  O   UNL     1      -9.708   6.072  66.322  1.00  0.00    -0.151 OA 
HETATM    2  C   UNL     1      -8.645   6.899  66.163  1.00  0.00    -0.143 C  
HETATM    3  O   UNL     1      -7.802   6.704  65.298  1.00  0.00    -0.096 OA 
HETATM    4  C   UNL     1      -8.638   8.103  67.083  1.00  0.00    -0.124 C  
ENDROOT
BRANCH   4   5
HETATM    5  S   UNL     1      -9.553   7.762  68.642  1.00  0.00    -0.156 SA 
BRANCH   5   6
HETATM    6  C   UNL     1      -8.984   9.179  69.632  1.00  0.00    -0.155 C  
BRANCH   6   7
HETATM    7  C   UNL     1      -9.951  10.337  69.500  1.00  0.00    -0.228 C  
HETATM    8  O   UNL     1     -11.034  10.345  70.081  1.00  0.00    -0.284 OA 
HETATM    9  N   UNL     1      -9.497  11.387  68.723  1.00  0.00    -0.340 N  
HETATM   10  H   UNL     1      -8.613  11.296  68.224  1.00  0.00     0.000 HD 
BRANCH   9  11
HETATM   11  C   UNL     1     -10.265  12.625  68.607  1.00  0.00    -0.154 C  
HETATM   12  C   UNL     1      -9.427  13.883  68.397  1.00  0.00    -0.211 C  
HETATM   13  C   UNL     1     -10.333  14.961  67.831  1.00  0.00    -0.237 C  
HETATM   14  S   UNL     1     -11.434  14.113  66.669  1.00  0.00    -0.382 SA 
HETATM   15  C   UNL     1     -11.290  12.560  67.479  1.00  0.00    -0.312 C  
HETATM   16  O   UNL     1     -11.978  11.587  67.203  1.00  0.00    -0.581 OA 
ENDBRANCH   9  11
ENDBRANCH   6   7
ENDBRANCH   5   6
ENDBRANCH   4   5
TORSDOF 4
ENDMDL
MODEL      217
REMARK 921   NORMALIZED FREE ENERGY PREDICTED BY IDOCK:   -2.74 KCAL/MOL
REMARK 922        TOTAL FREE ENERGY PREDICTED BY IDOCK:   -3.70 KCAL/MOL
REMARK 923 INTER-LIGAND FREE ENERGY PREDICTED BY IDOCK:   -3.57 KCAL/MOL
REMARK 924 INTRA-LIGAND FREE ENERGY PREDICTED BY IDOCK:   -0.13 KCAL/MOL
REMARK 927      BINDING AFFINITY PREDICTED BY RF-SCORE:    0.00 PKD
ROOT
HETATM    1  O   UNL     1     -11.868   8.353  72.807  1.00  0.00    -0.371 OA 
HETATM    2  C   UNL     1     -12.623   9.148  72.008  1.00  0.00    -0.390 C  
HETATM    3  O   UNL     1     -13.845   9.142  72.065  1.00  0.00    -0.413 OA 
HETATM    4  C   UNL     1     -11.830  10.081  71.115  1.00  0.00    -0.393 C  
ENDROOT
BRANCH   4   5
HETATM    5  S   UNL     1     -10.164   9.397  70.741  1.00  0.00    -0.299 SA 
BRANCH   5   6
HETATM    6  C   UNL     1     -10.655   7.976  69.715  1.00  0.00    -0.238 C  
BRANCH   6   7
HETATM    7  C   UNL     1     -10.061   6.697  70.267  1.00  0.00    -0.179 C  
HETATM    8  O   UNL     1      -8.920   6.339  69.984  1.00  0.00    -0.146 OA 
HETATM    9  N   UNL     1     -10.882   6.006  71.139  1.00  0.00    -0.266 N  
HETATM   10  H   UNL     1     -11.838   6.327  71.290  1.00  0.00     0.000 HD 
BRANCH   9  11
HETATM   11  C   UNL     1     -10.400   4.822  71.848  1.00  0.00    -0.172 C  
HETATM   12  C   UNL     1      -9.708   3.784  70.968  1.00  0.00    -0.248 C  
HETATM   13  C   UNL     1      -8.871   2.891  71.866  1.00  0.00    -0.075 C  
HETATM   14  S   UNL     1      -8.154   3.990  73.116  1.00  0.00    -0.090 SA 
HETATM   15  C   UNL     1      -9.439   5.182  72.977  1.00  0.00    -0.142 C  
HETATM   16  O   UNL     1      -9.565   6.131  73.739  1.00  0.00    -0.146 OA 
ENDBRANCH   9  11
ENDBRANCH   6   7
ENDBRANCH   5   6
ENDBRANCH   4   5
TORSDOF 4
ENDMDL
MODEL      218
REMARK 921   NORMALIZED FREE ENERGY PREDICTED BY IDOCK:   -2.73 KCAL/MOL
REMARK 922        TOTAL FREE ENERGY PREDICTED BY IDOCK:   -3.69 KCAL/MOL
REMARK 923 INTER-LIGAND FREE ENERGY PREDICTED BY IDOCK:   -3.45 KCAL/MOL
REMARK 924 INTRA-LIGAND FREE ENERGY PREDICTED BY IDOCK:   -0.24 KCAL/MOL
REMARK 927      BINDING AFFINITY PREDICTED BY RF-SCORE:    0.00 PKD
ROOT
HETATM    1  O   UNL     1      -8.455   5.418  66.460  1.00  0.00    -0.112 OA 
HETATM    2  C   UNL     1      -9.750   5.260  66.834  1.00  0.00    -0.156 C  
HETATM    3  O   UNL     1     -10.428   4.327  66.425  1.00  0.00    -0.092 OA 
HETATM    4  C   UNL     1     -10.245   6.276  67.842  1.00  0.00    -0.169 C  
ENDROOT
BRANCH   4   5
HETATM    5  S   UNL     1      -9.314   7.857  67.714  1.00  0.00    -0.141 SA 
BRANCH   5   6
HETATM    6  C   UNL     1     -10.715   9.015  67.621  1.00  0.00    -0.163 C  
BRANCH   6   7
HETATM    7  C   UNL     1     -10.335  10.240  66.817  1.00  0.00    -0.227 C  
HETATM    8  O   UNL     1      -9.341  10.257  66.095  1.00  0.00    -0.159 OA 
HETATM    9  N   UNL     1     -11.215  11.301  66.925  1.00  0.00    -0.281 N  
HETATM   10  H   UNL     1     -11.992  11.244  67.582  1.00  0.00     0.000 HD 
BRANCH   9  11
HETATM   11  C   UNL     1     -11.049  12.503  66.110  1.00  0.00    -0.298 C  
HETATM   12  C   UNL     1     -12.321  12.995  65.425  1.00  0.00    -0.538 C  
HETATM   13  C   UNL     1     -12.113  14.448  65.037  1.00  0.00    -0.415 C  
HETATM   14  S   UNL     1     -11.191  15.192  66.408  1.00  0.00    -0.220 SA 
HETATM   15  C   UNL     1     -10.479  13.667  66.915  1.00  0.00    -0.272 C  
HETATM   16  O   UNL     1      -9.596  13.580  67.757  1.00  0.00    -0.206 OA 
ENDBRANCH   9  11
ENDBRANCH   6   7
ENDBRANCH   5   6
ENDBRANCH   4   5
TORSDOF 4
ENDMDL
MODEL      219
REMARK 921   NORMALIZED FREE ENERGY PREDICTED BY IDOCK:   -2.73 KCAL/MOL
REMARK 922        TOTAL FREE ENERGY PREDICTED BY IDOCK:   -3.69 KCAL/MOL
REMARK 923 INTER-LIGAND FREE ENERGY PREDICTED BY IDOCK:   -4.39 KCAL/MOL
REMARK 924 INTRA-LIGAND FREE ENERGY PREDICTED BY IDOCK:    0.70 KCAL/MOL
REMARK 927      BINDING AFFINITY PREDICTED BY RF-SCORE:    0.00 PKD
ROOT
HETATM    1  O   UNL     1     -11.832  13.820  68.339  1.00  0.00    -0.341 OA 
HETATM    2  C   UNL     1     -11.755  14.257  69.621  1.00  0.00    -0.308 C  
HETATM    3  O   UNL     1     -11.420  15.403  69.890  1.00  0.00    -0.264 OA 
HETATM    4  C   UNL     1     -12.188  13.244  70.661  1.00  0.00    -0.338 C  
ENDROOT
BRANCH   4   5
HETATM    5  S   UNL     1     -11.947  11.523  70.062  1.00  0.00    -0.354 SA 
BRANCH   5   6
HETATM    6  C   UNL     1     -12.890  10.633  71.340  1.00  0.00    -0.451 C  
BRANCH   6   7
HETATM    7  C   UNL     1     -12.295   9.261  71.575  1.00  0.00    -0.360 C  
HETATM    8  O   UNL     1     -12.937   8.361  72.113  1.00  0.00    -0.339 OA 
HETATM    9  N   UNL     1     -11.008   9.097  71.097  1.00  0.00    -0.290 N  
HETATM   10  H   UNL     1     -10.510   9.898  70.710  1.00  0.00     0.000 HD 
BRANCH   9  11
HETATM   11  C   UNL     1     -10.350   7.792  71.137  1.00  0.00    -0.200 C  
HETATM   12  C   UNL     1     -10.994   6.778  72.079  1.00  0.00    -0.269 C  
HETATM   13  C   UNL     1     -10.526   5.394  71.669  1.00  0.00    -0.227 C  
HETATM   14  S   UNL     1     -10.490   5.408  69.857  1.00  0.00    -0.272 SA 
HETATM   15  C   UNL     1     -10.266   7.149  69.757  1.00  0.00    -0.208 C  
HETATM   16  O   UNL     1     -10.011   7.738  68.716  1.00  0.00    -0.166 OA 
ENDBRANCH   9  11
ENDBRANCH   6   7
ENDBRANCH   5   6
ENDBRANCH   4   5
TORSDOF 4
ENDMDL
MODEL      220
REMARK 921   NORMALIZED FREE ENERGY PREDICTED BY IDOCK:   -2.71 KCAL/MOL
REMARK 922        TOTAL FREE ENERGY PREDICTED BY IDOCK:   -3.66 KCAL/MOL
REMARK 923 INTER-LIGAND FREE ENERGY PREDICTED BY IDOCK:   -3.50 KCAL/MOL
REMARK 924 INTRA-LIGAND FREE ENERGY PREDICTED BY IDOCK:   -0.16 KCAL/MOL
REMARK 927      BINDING AFFINITY PREDICTED BY RF-SCORE:    0.00 PKD
ROOT
HETATM    1  O   UNL     1      -6.048  12.538  70.705  1.00  0.00    -0.237 OA 
HETATM    2  C   UNL     1      -6.335  11.700  69.678  1.00  0.00    -0.133 C  
HETATM    3  O   UNL     1      -5.789  10.610  69.565  1.00  0.00    -0.038 OA 
HETATM    4  C   UNL     1      -7.425  12.190  68.747  1.00  0.00    -0.075 C  
ENDROOT
BRANCH   4   5
HETATM    5  S   UNL     1      -7.523  14.027  68.739  1.00  0.00    -0.104 SA 
BRANCH   5   6
HETATM    6  C   UNL     1      -8.752  14.248  67.414  1.00  0.00    -0.209 C  
BRANCH   6   7
HETATM    7  C   UNL     1      -9.938  13.334  67.637  1.00  0.00    -0.229 C  
HETATM    8  O   UNL     1     -10.342  12.574  66.760  1.00  0.00    -0.224 OA 
HETATM    9  N   UNL     1     -10.486  13.393  68.905  1.00  0.00    -0.398 N  
HETATM   10  H   UNL     1     -10.139  14.084  69.570  1.00  0.00     0.000 HD 
BRANCH   9  11
HETATM   11  C   UNL     1     -11.553  12.479  69.307  1.00  0.00    -0.319 C  
HETATM   12  C   UNL     1     -11.095  11.062  69.637  1.00  0.00    -0.320 C  
HETATM   13  C   UNL     1     -12.179  10.399  70.467  1.00  0.00    -0.323 C  
HETATM   14  S   UNL     1     -12.799  11.688  71.579  1.00  0.00    -0.279 SA 
HETATM   15  C   UNL     1     -12.334  13.003  70.508  1.00  0.00    -0.287 C  
HETATM   16  O   UNL     1     -12.660  14.168  70.688  1.00  0.00    -0.325 OA 
ENDBRANCH   9  11
ENDBRANCH   6   7
ENDBRANCH   5   6
ENDBRANCH   4   5
TORSDOF 4
ENDMDL
MODEL      221
REMARK 921   NORMALIZED FREE ENERGY PREDICTED BY IDOCK:   -2.69 KCAL/MOL
REMARK 922        TOTAL FREE ENERGY PREDICTED BY IDOCK:   -3.64 KCAL/MOL
REMARK 923 INTER-LIGAND FREE ENERGY PREDICTED BY IDOCK:   -3.92 KCAL/MOL
REMARK 924 INTRA-LIGAND FREE ENERGY PREDICTED BY IDOCK:    0.28 KCAL/MOL
REMARK 927      BINDING AFFINITY PREDICTED BY RF-SCORE:    0.00 PKD
ROOT
HETATM    1  O   UNL     1     -10.447  17.754  65.715  1.00  0.00    -0.556 OA 
HETATM    2  C   UNL     1      -9.342  17.078  66.117  1.00  0.00    -0.214 C  
HETATM    3  O   UNL     1      -8.224  17.571  66.043  1.00  0.00    -0.491 OA 
HETATM    4  C   UNL     1      -9.619  15.719  66.726  1.00  0.00    -0.236 C  
ENDROOT
BRANCH   4   5
HETATM    5  S   UNL     1     -11.182  14.999  66.078  1.00  0.00    -0.267 SA 
BRANCH   5   6
HETATM    6  C   UNL     1     -10.489  13.643  65.080  1.00  0.00    -0.374 C  
BRANCH   6   7
HETATM    7  C   UNL     1      -9.798  12.632  65.971  1.00  0.00    -0.254 C  
HETATM    8  O   UNL     1     -10.087  12.514  67.160  1.00  0.00    -0.213 OA 
HETATM    9  N   UNL     1      -8.868  11.835  65.331  1.00  0.00    -0.390 N  
HETATM   10  H   UNL     1      -8.635  12.020  64.356  1.00  0.00     0.000 HD 
BRANCH   9  11
HETATM   11  C   UNL     1      -8.214  10.732  66.031  1.00  0.00    -0.164 C  
HETATM   12  C   UNL     1      -7.428  11.137  67.275  1.00  0.00    -0.118 C  
HETATM   13  C   UNL     1      -7.226   9.897  68.127  1.00  0.00    -0.078 C  
HETATM   14  S   UNL     1      -8.775   8.963  68.005  1.00  0.00    -0.133 SA 
HETATM   15  C   UNL     1      -9.204   9.647  66.444  1.00  0.00    -0.163 C  
HETATM   16  O   UNL     1     -10.137   9.245  65.764  1.00  0.00    -0.268 OA 
ENDBRANCH   9  11
ENDBRANCH   6   7
ENDBRANCH   5   6
ENDBRANCH   4   5
TORSDOF 4
ENDMDL
MODEL      222
REMARK 921   NORMALIZED FREE ENERGY PREDICTED BY IDOCK:   -2.69 KCAL/MOL
REMARK 922        TOTAL FREE ENERGY PREDICTED BY IDOCK:   -3.64 KCAL/MOL
REMARK 923 INTER-LIGAND FREE ENERGY PREDICTED BY IDOCK:   -2.95 KCAL/MOL
REMARK 924 INTRA-LIGAND FREE ENERGY PREDICTED BY IDOCK:   -0.69 KCAL/MOL
REMARK 927      BINDING AFFINITY PREDICTED BY RF-SCORE:    0.00 PKD
ROOT
HETATM    1  O   UNL     1      -7.818   7.775  66.968  1.00  0.00    -0.108 OA 
HETATM    2  C   UNL     1      -8.449   7.649  65.773  1.00  0.00    -0.144 C  
HETATM    3  O   UNL     1      -8.971   8.607  65.218  1.00  0.00    -0.181 OA 
HETATM    4  C   UNL     1      -8.381   6.263  65.165  1.00  0.00    -0.119 C  
ENDROOT
BRANCH   4   5
HETATM    5  S   UNL     1      -8.195   4.971  66.460  1.00  0.00    -0.107 SA 
BRANCH   5   6
HETATM    6  C   UNL     1      -9.907   4.925  67.076  1.00  0.00    -0.193 C  
BRANCH   6   7
HETATM    7  C   UNL     1      -9.940   5.189  68.567  1.00  0.00    -0.154 C  
HETATM    8  O   UNL     1      -9.919   4.274  69.386  1.00  0.00    -0.183 OA 
HETATM    9  N   UNL     1      -9.943   6.526  68.919  1.00  0.00    -0.147 N  
HETATM   10  H   UNL     1     -10.015   7.237  68.191  1.00  0.00     0.000 HD 
BRANCH   9  11
HETATM   11  C   UNL     1      -9.846   6.937  70.318  1.00  0.00    -0.178 C  
HETATM   12  C   UNL     1      -8.949   8.145  70.572  1.00  0.00    -0.145 C  
HETATM   13  C   UNL     1      -9.316   8.726  71.925  1.00  0.00    -0.273 C  
HETATM   14  S   UNL     1     -11.120   8.597  72.039  1.00  0.00    -0.367 SA 
HETATM   15  C   UNL     1     -11.213   7.243  70.922  1.00  0.00    -0.272 C  
HETATM   16  O   UNL     1     -12.236   6.603  70.721  1.00  0.00    -0.378 OA 
ENDBRANCH   9  11
ENDBRANCH   6   7
ENDBRANCH   5   6
ENDBRANCH   4   5
TORSDOF 4
ENDMDL
MODEL      223
REMARK 921   NORMALIZED FREE ENERGY PREDICTED BY IDOCK:   -2.69 KCAL/MOL
REMARK 922        TOTAL FREE ENERGY PREDICTED BY IDOCK:   -3.64 KCAL/MOL
REMARK 923 INTER-LIGAND FREE ENERGY PREDICTED BY IDOCK:   -3.29 KCAL/MOL
REMARK 924 INTRA-LIGAND FREE ENERGY PREDICTED BY IDOCK:   -0.35 KCAL/MOL
REMARK 927      BINDING AFFINITY PREDICTED BY RF-SCORE:    0.00 PKD
ROOT
HETATM    1  O   UNL     1      -9.118   6.571  74.560  1.00  0.00    -0.162 OA 
HETATM    2  C   UNL     1      -8.822   7.768  73.995  1.00  0.00    -0.247 C  
HETATM    3  O   UNL     1      -7.984   8.518  74.478  1.00  0.00    -0.304 OA 
HETATM    4  C   UNL     1      -9.552   8.052  72.697  1.00  0.00    -0.259 C  
ENDROOT
BRANCH   4   5
HETATM    5  S   UNL     1     -11.156   7.157  72.620  1.00  0.00    -0.296 SA 
BRANCH   5   6
HETATM    6  C   UNL     1     -11.943   8.083  71.265  1.00  0.00    -0.296 C  
BRANCH   6   7
HETATM    7  C   UNL     1     -11.210   7.837  69.962  1.00  0.00    -0.117 C  
HETATM    8  O   UNL     1     -11.031   6.703  69.525  1.00  0.00    -0.263 OA 
HETATM    9  N   UNL     1     -10.812   8.982  69.297  1.00  0.00    -0.386 N  
HETATM   10  H   UNL     1     -10.942   9.891  69.739  1.00  0.00     0.000 HD 
BRANCH   9  11
HETATM   11  C   UNL     1     -10.207   8.907  67.968  1.00  0.00    -0.213 C  
HETATM   12  C   UNL     1     -10.823   9.840  66.929  1.00  0.00    -0.120 C  
HETATM   13  C   UNL     1      -9.828  10.003  65.795  1.00  0.00    -0.278 C  
HETATM   14  S   UNL     1      -8.199  10.087  66.584  1.00  0.00    -0.123 SA 
HETATM   15  C   UNL     1      -8.707   9.185  68.005  1.00  0.00    -0.129 C  
HETATM   16  O   UNL     1      -7.934   8.786  68.864  1.00  0.00    -0.102 OA 
ENDBRANCH   9  11
ENDBRANCH   6   7
ENDBRANCH   5   6
ENDBRANCH   4   5
TORSDOF 4
ENDMDL
MODEL      224
REMARK 921   NORMALIZED FREE ENERGY PREDICTED BY IDOCK:   -2.69 KCAL/MOL
REMARK 922        TOTAL FREE ENERGY PREDICTED BY IDOCK:   -3.64 KCAL/MOL
REMARK 923 INTER-LIGAND FREE ENERGY PREDICTED BY IDOCK:   -3.90 KCAL/MOL
REMARK 924 INTRA-LIGAND FREE ENERGY PREDICTED BY IDOCK:    0.26 KCAL/MOL
REMARK 927      BINDING AFFINITY PREDICTED BY RF-SCORE:    0.00 PKD
ROOT
HETATM    1  O   UNL     1      -6.204   7.061  65.008  1.00  0.00    -0.036 OA 
HETATM    2  C   UNL     1      -6.476   7.617  66.215  1.00  0.00    -0.049 C  
HETATM    3  O   UNL     1      -6.201   7.047  67.263  1.00  0.00    -0.037 OA 
HETATM    4  C   UNL     1      -7.067   9.011  66.150  1.00  0.00    -0.086 C  
ENDROOT
BRANCH   4   5
HETATM    5  S   UNL     1      -7.978   9.280  64.576  1.00  0.00    -0.137 SA 
BRANCH   5   6
HETATM    6  C   UNL     1      -9.642   9.585  65.248  1.00  0.00    -0.243 C  
BRANCH   6   7
HETATM    7  C   UNL     1     -10.001  11.050  65.124  1.00  0.00    -0.278 C  
HETATM    8  O   UNL     1      -9.723  11.701  64.120  1.00  0.00    -0.235 OA 
HETATM    9  N   UNL     1     -10.702  11.569  66.197  1.00  0.00    -0.267 N  
HETATM   10  H   UNL     1     -10.854  10.992  67.023  1.00  0.00     0.000 HD 
BRANCH   9  11
HETATM   11  C   UNL     1     -11.227  12.932  66.165  1.00  0.00    -0.292 C  
HETATM   12  C   UNL     1     -10.167  14.026  66.063  1.00  0.00    -0.313 C  
HETATM   13  C   UNL     1     -10.844  15.291  65.569  1.00  0.00    -0.372 C  
HETATM   14  S   UNL     1     -12.050  14.748  64.330  1.00  0.00    -0.341 SA 
HETATM   15  C   UNL     1     -12.215  13.140  65.022  1.00  0.00    -0.440 C  
HETATM   16  O   UNL     1     -13.062  12.334  64.663  1.00  0.00    -0.770 OA 
ENDBRANCH   9  11
ENDBRANCH   6   7
ENDBRANCH   5   6
ENDBRANCH   4   5
TORSDOF 4
ENDMDL
MODEL      225
REMARK 921   NORMALIZED FREE ENERGY PREDICTED BY IDOCK:   -2.69 KCAL/MOL
REMARK 922        TOTAL FREE ENERGY PREDICTED BY IDOCK:   -3.64 KCAL/MOL
REMARK 923 INTER-LIGAND FREE ENERGY PREDICTED BY IDOCK:   -3.25 KCAL/MOL
REMARK 924 INTRA-LIGAND FREE ENERGY PREDICTED BY IDOCK:   -0.39 KCAL/MOL
REMARK 927      BINDING AFFINITY PREDICTED BY RF-SCORE:    0.00 PKD
ROOT
HETATM    1  O   UNL     1     -10.501  10.825  67.267  1.00  0.00    -0.211 OA 
HETATM    2  C   UNL     1      -9.671   9.945  66.655  1.00  0.00    -0.198 C  
HETATM    3  O   UNL     1      -9.982   9.383  65.613  1.00  0.00    -0.304 OA 
HETATM    4  C   UNL     1      -8.320   9.782  67.322  1.00  0.00    -0.121 C  
ENDROOT
BRANCH   4   5
HETATM    5  S   UNL     1      -8.411  10.152  69.121  1.00  0.00    -0.167 SA 
BRANCH   5   6
HETATM    6  C   UNL     1      -7.034  11.336  69.247  1.00  0.00    -0.119 C  
BRANCH   6   7
HETATM    7  C   UNL     1      -7.293  12.542  68.369  1.00  0.00    -0.114 C  
HETATM    8  O   UNL     1      -6.588  12.796  67.395  1.00  0.00    -0.153 OA 
HETATM    9  N   UNL     1      -8.401  13.289  68.722  1.00  0.00    -0.357 N  
HETATM   10  H   UNL     1      -8.913  13.057  69.573  1.00  0.00     0.000 HD 
BRANCH   9  11
HETATM   11  C   UNL     1      -8.850  14.408  67.895  1.00  0.00    -0.179 C  
HETATM   12  C   UNL     1      -9.587  14.008  66.620  1.00  0.00    -0.299 C  
HETATM   13  C   UNL     1     -10.381  15.209  66.140  1.00  0.00    -0.301 C  
HETATM   14  S   UNL     1     -11.031  15.995  67.638  1.00  0.00    -0.239 SA 
HETATM   15  C   UNL     1      -9.752  15.366  68.667  1.00  0.00    -0.210 C  
HETATM   16  O   UNL     1      -9.585  15.716  69.827  1.00  0.00    -0.281 OA 
ENDBRANCH   9  11
ENDBRANCH   6   7
ENDBRANCH   5   6
ENDBRANCH   4   5
TORSDOF 4
ENDMDL
MODEL      226
REMARK 921   NORMALIZED FREE ENERGY PREDICTED BY IDOCK:   -2.68 KCAL/MOL
REMARK 922        TOTAL FREE ENERGY PREDICTED BY IDOCK:   -3.63 KCAL/MOL
REMARK 923 INTER-LIGAND FREE ENERGY PREDICTED BY IDOCK:   -3.65 KCAL/MOL
REMARK 924 INTRA-LIGAND FREE ENERGY PREDICTED BY IDOCK:    0.02 KCAL/MOL
REMARK 927      BINDING AFFINITY PREDICTED BY RF-SCORE:    0.00 PKD
ROOT
HETATM    1  O   UNL     1     -12.535  13.626  68.685  1.00  0.00    -0.112 OA 
HETATM    2  C   UNL     1     -12.055  13.928  69.917  1.00  0.00    -0.344 C  
HETATM    3  O   UNL     1     -11.607  15.036  70.178  1.00  0.00    -0.254 OA 
HETATM    4  C   UNL     1     -12.194  12.819  70.939  1.00  0.00    -0.191 C  
ENDROOT
BRANCH   4   5
HETATM    5  S   UNL     1     -12.218  11.165  70.135  1.00  0.00    -0.331 SA 
BRANCH   5   6
HETATM    6  C   UNL     1     -10.572  11.194  69.357  1.00  0.00    -0.134 C  
BRANCH   6   7
HETATM    7  C   UNL     1     -10.700  11.130  67.850  1.00  0.00    -0.216 C  
HETATM    8  O   UNL     1     -10.960  10.080  67.267  1.00  0.00    -0.262 OA 
HETATM    9  N   UNL     1     -10.551  12.343  67.203  1.00  0.00    -0.223 N  
HETATM   10  H   UNL     1     -10.283  13.168  67.738  1.00  0.00     0.000 HD 
BRANCH   9  11
HETATM   11  C   UNL     1     -10.773  12.460  65.763  1.00  0.00    -0.267 C  
HETATM   12  C   UNL     1     -12.146  11.997  65.285  1.00  0.00    -0.124 C  
HETATM   13  C   UNL     1     -12.397  12.604  63.917  1.00  0.00    -0.459 C  
HETATM   14  S   UNL     1     -11.721  14.284  63.998  1.00  0.00    -0.048 SA 
HETATM   15  C   UNL     1     -10.570  13.888  65.266  1.00  0.00    -0.361 C  
HETATM   16  O   UNL     1      -9.688  14.649  65.639  1.00  0.00    -0.328 OA 
ENDBRANCH   9  11
ENDBRANCH   6   7
ENDBRANCH   5   6
ENDBRANCH   4   5
TORSDOF 4
ENDMDL
MODEL      227
REMARK 921   NORMALIZED FREE ENERGY PREDICTED BY IDOCK:   -2.68 KCAL/MOL
REMARK 922        TOTAL FREE ENERGY PREDICTED BY IDOCK:   -3.62 KCAL/MOL
REMARK 923 INTER-LIGAND FREE ENERGY PREDICTED BY IDOCK:   -3.97 KCAL/MOL
REMARK 924 INTRA-LIGAND FREE ENERGY PREDICTED BY IDOCK:    0.35 KCAL/MOL
REMARK 927      BINDING AFFINITY PREDICTED BY RF-SCORE:    0.00 PKD
ROOT
HETATM    1  O   UNL     1      -9.146   9.042  64.774  1.00  0.00    -0.165 OA 
HETATM    2  C   UNL     1      -8.552   9.809  65.722  1.00  0.00    -0.135 C  
HETATM    3  O   UNL     1      -7.716   9.351  66.489  1.00  0.00    -0.093 OA 
HETATM    4  C   UNL     1      -8.950  11.271  65.693  1.00  0.00    -0.163 C  
ENDROOT
BRANCH   4   5
HETATM    5  S   UNL     1     -10.631  11.494  64.982  1.00  0.00    -0.297 SA 
BRANCH   5   6
HETATM    6  C   UNL     1     -10.456  13.189  64.342  1.00  0.00    -0.407 C  
BRANCH   6   7
HETATM    7  C   UNL     1     -10.507  14.190  65.477  1.00  0.00    -0.339 C  
HETATM    8  O   UNL     1     -11.568  14.672  65.866  1.00  0.00    -0.354 OA 
HETATM    9  N   UNL     1      -9.285  14.471  66.059  1.00  0.00    -0.514 N  
HETATM   10  H   UNL     1      -8.434  14.080  65.654  1.00  0.00     0.000 HD 
BRANCH   9  11
HETATM   11  C   UNL     1      -9.193  15.320  67.245  1.00  0.00    -0.199 C  
HETATM   12  C   UNL     1      -9.705  16.745  67.055  1.00  0.00    -0.254 C  
HETATM   13  C   UNL     1      -9.988  17.328  68.428  1.00  0.00    -0.322 C  
HETATM   14  S   UNL     1     -10.706  15.974  69.395  1.00  0.00    -0.321 SA 
HETATM   15  C   UNL     1      -9.930  14.720  68.438  1.00  0.00    -0.223 C  
HETATM   16  O   UNL     1      -9.937  13.535  68.743  1.00  0.00    -0.182 OA 
ENDBRANCH   9  11
ENDBRANCH   6   7
ENDBRANCH   5   6
ENDBRANCH   4   5
TORSDOF 4
ENDMDL
MODEL      228
REMARK 921   NORMALIZED FREE ENERGY PREDICTED BY IDOCK:   -2.67 KCAL/MOL
REMARK 922        TOTAL FREE ENERGY PREDICTED BY IDOCK:   -3.62 KCAL/MOL
REMARK 923 INTER-LIGAND FREE ENERGY PREDICTED BY IDOCK:   -3.41 KCAL/MOL
REMARK 924 INTRA-LIGAND FREE ENERGY PREDICTED BY IDOCK:   -0.21 KCAL/MOL
REMARK 927      BINDING AFFINITY PREDICTED BY RF-SCORE:    0.00 PKD
ROOT
HETATM    1  O   UNL     1      -8.018  10.134  66.407  1.00  0.00    -0.114 OA 
HETATM    2  C   UNL     1      -8.502  10.083  67.673  1.00  0.00    -0.114 C  
HETATM    3  O   UNL     1      -9.160   9.132  68.073  1.00  0.00    -0.132 OA 
HETATM    4  C   UNL     1      -8.095  11.248  68.553  1.00  0.00    -0.148 C  
ENDROOT
BRANCH   4   5
HETATM    5  S   UNL     1      -7.761  12.756  67.555  1.00  0.00    -0.169 SA 
BRANCH   5   6
HETATM    6  C   UNL     1      -9.433  13.476  67.543  1.00  0.00    -0.222 C  
BRANCH   6   7
HETATM    7  C   UNL     1      -9.408  14.857  66.922  1.00  0.00    -0.241 C  
HETATM    8  O   UNL     1      -9.476  15.020  65.706  1.00  0.00    -0.319 OA 
HETATM    9  N   UNL     1      -9.354  15.900  67.828  1.00  0.00    -0.206 N  
HETATM   10  H   UNL     1      -9.244  15.697  68.821  1.00  0.00     0.000 HD 
BRANCH   9  11
HETATM   11  C   UNL     1      -9.452  17.289  67.384  1.00  0.00    -0.245 C  
HETATM   12  C   UNL     1     -10.876  17.816  67.233  1.00  0.00    -0.164 C  
HETATM   13  C   UNL     1     -10.819  19.332  67.243  1.00  0.00    -0.449 C  
HETATM   14  S   UNL     1      -9.565  19.765  68.477  1.00  0.00    -0.309 SA 
HETATM   15  C   UNL     1      -8.704  18.241  68.312  1.00  0.00    -0.288 C  
HETATM   16  O   UNL     1      -7.618  18.019  68.829  1.00  0.00    -0.289 OA 
ENDBRANCH   9  11
ENDBRANCH   6   7
ENDBRANCH   5   6
ENDBRANCH   4   5
TORSDOF 4
ENDMDL
MODEL      229
REMARK 921   NORMALIZED FREE ENERGY PREDICTED BY IDOCK:   -2.63 KCAL/MOL
REMARK 922        TOTAL FREE ENERGY PREDICTED BY IDOCK:   -3.56 KCAL/MOL
REMARK 923 INTER-LIGAND FREE ENERGY PREDICTED BY IDOCK:   -3.56 KCAL/MOL
REMARK 924 INTRA-LIGAND FREE ENERGY PREDICTED BY IDOCK:    0.00 KCAL/MOL
REMARK 927      BINDING AFFINITY PREDICTED BY RF-SCORE:    0.00 PKD
ROOT
HETATM    1  O   UNL     1     -10.237  12.008  68.447  1.00  0.00    -0.201 OA 
HETATM    2  C   UNL     1     -10.309  11.498  67.193  1.00  0.00    -0.216 C  
HETATM    3  O   UNL     1     -11.369  11.434  66.584  1.00  0.00    -0.355 OA 
HETATM    4  C   UNL     1      -8.975  11.094  66.598  1.00  0.00    -0.170 C  
ENDROOT
BRANCH   4   5
HETATM    5  S   UNL     1      -7.764  10.649  67.907  1.00  0.00    -0.101 SA 
BRANCH   5   6
HETATM    6  C   UNL     1      -8.209   8.899  68.136  1.00  0.00    -0.114 C  
BRANCH   6   7
HETATM    7  C   UNL     1      -9.488   8.781  68.938  1.00  0.00    -0.145 C  
HETATM    8  O   UNL     1     -10.460   8.159  68.516  1.00  0.00    -0.207 OA 
HETATM    9  N   UNL     1      -9.450   9.380  70.183  1.00  0.00    -0.222 N  
HETATM   10  H   UNL     1      -8.632   9.927  70.452  1.00  0.00     0.000 HD 
BRANCH   9  11
HETATM   11  C   UNL     1     -10.562   9.241  71.121  1.00  0.00    -0.332 C  
HETATM   12  C   UNL     1     -11.870   9.882  70.664  1.00  0.00    -0.386 C  
HETATM   13  C   UNL     1     -13.001   9.266  71.467  1.00  0.00    -0.359 C  
HETATM   14  S   UNL     1     -12.584   7.510  71.628  1.00  0.00    -0.354 SA 
HETATM   15  C   UNL     1     -10.856   7.780  71.449  1.00  0.00    -0.228 C  
HETATM   16  O   UNL     1     -10.014   6.913  71.634  1.00  0.00    -0.173 OA 
ENDBRANCH   9  11
ENDBRANCH   6   7
ENDBRANCH   5   6
ENDBRANCH   4   5
TORSDOF 4
ENDMDL
MODEL      230
REMARK 921   NORMALIZED FREE ENERGY PREDICTED BY IDOCK:   -2.61 KCAL/MOL
REMARK 922        TOTAL FREE ENERGY PREDICTED BY IDOCK:   -3.54 KCAL/MOL
REMARK 923 INTER-LIGAND FREE ENERGY PREDICTED BY IDOCK:   -3.22 KCAL/MOL
REMARK 924 INTRA-LIGAND FREE ENERGY PREDICTED BY IDOCK:   -0.32 KCAL/MOL
REMARK 927      BINDING AFFINITY PREDICTED BY RF-SCORE:    0.00 PKD
ROOT
HETATM    1  O   UNL     1      -8.127   7.769  71.090  1.00  0.00    -0.092 OA 
HETATM    2  C   UNL     1      -8.407   6.688  70.320  1.00  0.00    -0.134 C  
HETATM    3  O   UNL     1      -8.691   5.604  70.812  1.00  0.00    -0.128 OA 
HETATM    4  C   UNL     1      -8.414   6.959  68.829  1.00  0.00    -0.121 C  
ENDROOT
BRANCH   4   5
HETATM    5  S   UNL     1      -7.317   8.370  68.399  1.00  0.00    -0.096 SA 
BRANCH   5   6
HETATM    6  C   UNL     1      -8.346   9.162  67.123  1.00  0.00    -0.117 C  
BRANCH   6   7
HETATM    7  C   UNL     1      -8.997  10.414  67.672  1.00  0.00    -0.138 C  
HETATM    8  O   UNL     1      -9.026  10.653  68.877  1.00  0.00    -0.157 OA 
HETATM    9  N   UNL     1      -9.502  11.273  66.714  1.00  0.00    -0.176 N  
HETATM   10  H   UNL     1      -9.496  10.992  65.734  1.00  0.00     0.000 HD 
BRANCH   9  11
HETATM   11  C   UNL     1     -10.046  12.578  67.084  1.00  0.00    -0.214 C  
HETATM   12  C   UNL     1      -9.628  13.730  66.174  1.00  0.00    -0.234 C  
HETATM   13  C   UNL     1     -10.609  14.870  66.378  1.00  0.00    -0.307 C  
HETATM   14  S   UNL     1     -12.234  14.088  66.561  1.00  0.00    -0.398 SA 
HETATM   15  C   UNL     1     -11.570  12.568  67.144  1.00  0.00    -0.368 C  
HETATM   16  O   UNL     1     -12.255  11.662  67.597  1.00  0.00    -0.544 OA 
ENDBRANCH   9  11
ENDBRANCH   6   7
ENDBRANCH   5   6
ENDBRANCH   4   5
TORSDOF 4
ENDMDL
MODEL      231
REMARK 921   NORMALIZED FREE ENERGY PREDICTED BY IDOCK:   -2.60 KCAL/MOL
REMARK 922        TOTAL FREE ENERGY PREDICTED BY IDOCK:   -3.53 KCAL/MOL
REMARK 923 INTER-LIGAND FREE ENERGY PREDICTED BY IDOCK:   -3.77 KCAL/MOL
REMARK 924 INTRA-LIGAND FREE ENERGY PREDICTED BY IDOCK:    0.24 KCAL/MOL
REMARK 927      BINDING AFFINITY PREDICTED BY RF-SCORE:    0.00 PKD
ROOT
HETATM    1  O   UNL     1     -10.419   7.649  73.316  1.00  0.00    -0.348 OA 
HETATM    2  C   UNL     1     -10.476   6.311  73.101  1.00  0.00    -0.239 C  
HETATM    3  O   UNL     1      -9.763   5.530  73.718  1.00  0.00    -0.145 OA 
HETATM    4  C   UNL     1     -11.533   5.874  72.108  1.00  0.00    -0.276 C  
ENDROOT
BRANCH   4   5
HETATM    5  S   UNL     1     -11.907   7.207  70.897  1.00  0.00    -0.330 SA 
BRANCH   5   6
HETATM    6  C   UNL     1     -10.341   7.206  69.969  1.00  0.00    -0.208 C  
BRANCH   6   7
HETATM    7  C   UNL     1     -10.115   8.554  69.316  1.00  0.00    -0.202 C  
HETATM    8  O   UNL     1      -9.008   9.086  69.299  1.00  0.00    -0.139 OA 
HETATM    9  N   UNL     1     -11.231   9.099  68.708  1.00  0.00    -0.427 N  
HETATM   10  H   UNL     1     -12.133   8.633  68.805  1.00  0.00     0.000 HD 
BRANCH   9  11
HETATM   11  C   UNL     1     -11.137  10.332  67.929  1.00  0.00    -0.276 C  
HETATM   12  C   UNL     1     -10.749  11.570  68.733  1.00  0.00    -0.247 C  
HETATM   13  C   UNL     1     -10.238  12.618  67.762  1.00  0.00    -0.222 C  
HETATM   14  S   UNL     1      -9.274  11.709  66.525  1.00  0.00    -0.201 SA 
HETATM   15  C   UNL     1     -10.151  10.206  66.772  1.00  0.00    -0.219 C  
HETATM   16  O   UNL     1     -10.021   9.223  66.056  1.00  0.00    -0.290 OA 
ENDBRANCH   9  11
ENDBRANCH   6   7
ENDBRANCH   5   6
ENDBRANCH   4   5
TORSDOF 4
ENDMDL
MODEL      232
REMARK 921   NORMALIZED FREE ENERGY PREDICTED BY IDOCK:   -2.59 KCAL/MOL
REMARK 922        TOTAL FREE ENERGY PREDICTED BY IDOCK:   -3.51 KCAL/MOL
REMARK 923 INTER-LIGAND FREE ENERGY PREDICTED BY IDOCK:   -3.71 KCAL/MOL
REMARK 924 INTRA-LIGAND FREE ENERGY PREDICTED BY IDOCK:    0.20 KCAL/MOL
REMARK 927      BINDING AFFINITY PREDICTED BY RF-SCORE:    0.00 PKD
ROOT
HETATM    1  O   UNL     1      -6.715   6.668  66.568  1.00  0.00    -0.053 OA 
HETATM    2  C   UNL     1      -6.853   7.207  67.805  1.00  0.00    -0.074 C  
HETATM    3  O   UNL     1      -6.411   6.651  68.802  1.00  0.00    -0.032 OA 
HETATM    4  C   UNL     1      -7.519   8.568  67.831  1.00  0.00    -0.097 C  
ENDROOT
BRANCH   4   5
HETATM    5  S   UNL     1      -8.645   8.790  66.395  1.00  0.00    -0.134 SA 
BRANCH   5   6
HETATM    6  C   UNL     1     -10.209   9.057  67.287  1.00  0.00    -0.256 C  
BRANCH   6   7
HETATM    7  C   UNL     1     -10.835  10.372  66.872  1.00  0.00    -0.161 C  
HETATM    8  O   UNL     1     -11.760  10.876  67.506  1.00  0.00    -0.543 OA 
HETATM    9  N   UNL     1     -10.254  10.969  65.769  1.00  0.00    -0.252 N  
HETATM   10  H   UNL     1      -9.526  10.473  65.255  1.00  0.00     0.000 HD 
BRANCH   9  11
HETATM   11  C   UNL     1     -10.668  12.300  65.328  1.00  0.00    -0.292 C  
HETATM   12  C   UNL     1     -12.169  12.467  65.114  1.00  0.00    -0.509 C  
HETATM   13  C   UNL     1     -12.484  13.952  65.133  1.00  0.00    -0.453 C  
HETATM   14  S   UNL     1     -11.427  14.657  66.426  1.00  0.00    -0.323 SA 
HETATM   15  C   UNL     1     -10.215  13.390  66.294  1.00  0.00    -0.298 C  
HETATM   16  O   UNL     1      -9.131  13.431  66.859  1.00  0.00    -0.231 OA 
ENDBRANCH   9  11
ENDBRANCH   6   7
ENDBRANCH   5   6
ENDBRANCH   4   5
TORSDOF 4
ENDMDL
MODEL      233
REMARK 921   NORMALIZED FREE ENERGY PREDICTED BY IDOCK:   -2.58 KCAL/MOL
REMARK 922        TOTAL FREE ENERGY PREDICTED BY IDOCK:   -3.50 KCAL/MOL
REMARK 923 INTER-LIGAND FREE ENERGY PREDICTED BY IDOCK:   -3.20 KCAL/MOL
REMARK 924 INTRA-LIGAND FREE ENERGY PREDICTED BY IDOCK:   -0.31 KCAL/MOL
REMARK 927      BINDING AFFINITY PREDICTED BY RF-SCORE:    0.00 PKD
ROOT
HETATM    1  O   UNL     1      -8.848   8.551  65.669  1.00  0.00    -0.174 OA 
HETATM    2  C   UNL     1      -8.070   9.160  66.598  1.00  0.00    -0.111 C  
HETATM    3  O   UNL     1      -7.414   8.519  67.409  1.00  0.00    -0.091 OA 
HETATM    4  C   UNL     1      -8.026  10.671  66.494  1.00  0.00    -0.138 C  
ENDROOT
BRANCH   4   5
HETATM    5  S   UNL     1      -9.559  11.335  65.725  1.00  0.00    -0.235 SA 
BRANCH   5   6
HETATM    6  C   UNL     1     -10.712  11.089  67.112  1.00  0.00    -0.265 C  
BRANCH   6   7
HETATM    7  C   UNL     1     -10.633  12.253  68.077  1.00  0.00    -0.216 C  
HETATM    8  O   UNL     1     -11.016  12.156  69.241  1.00  0.00    -0.200 OA 
HETATM    9  N   UNL     1     -10.056  13.398  67.559  1.00  0.00    -0.225 N  
HETATM   10  H   UNL     1      -9.808  13.433  66.571  1.00  0.00     0.000 HD 
BRANCH   9  11
HETATM   11  C   UNL     1      -9.796  14.560  68.407  1.00  0.00    -0.227 C  
HETATM   12  C   UNL     1      -8.519  15.326  68.073  1.00  0.00    -0.147 C  
HETATM   13  C   UNL     1      -8.630  16.712  68.680  1.00  0.00    -0.253 C  
HETATM   14  S   UNL     1     -10.357  17.211  68.444  1.00  0.00    -0.384 SA 
HETATM   15  C   UNL     1     -10.951  15.557  68.382  1.00  0.00    -0.297 C  
HETATM   16  O   UNL     1     -12.138  15.266  68.387  1.00  0.00    -0.236 OA 
ENDBRANCH   9  11
ENDBRANCH   6   7
ENDBRANCH   5   6
ENDBRANCH   4   5
TORSDOF 4
ENDMDL
MODEL      234
REMARK 921   NORMALIZED FREE ENERGY PREDICTED BY IDOCK:   -2.58 KCAL/MOL
REMARK 922        TOTAL FREE ENERGY PREDICTED BY IDOCK:   -3.50 KCAL/MOL
REMARK 923 INTER-LIGAND FREE ENERGY PREDICTED BY IDOCK:   -3.26 KCAL/MOL
REMARK 924 INTRA-LIGAND FREE ENERGY PREDICTED BY IDOCK:   -0.24 KCAL/MOL
REMARK 927      BINDING AFFINITY PREDICTED BY RF-SCORE:    0.00 PKD
ROOT
HETATM    1  O   UNL     1      -8.039   3.755  66.804  1.00  0.00    -0.095 OA 
HETATM    2  C   UNL     1      -8.723   3.863  67.971  1.00  0.00    -0.102 C  
HETATM    3  O   UNL     1      -9.604   3.070  68.275  1.00  0.00    -0.180 OA 
HETATM    4  C   UNL     1      -8.254   4.982  68.878  1.00  0.00    -0.084 C  
ENDROOT
BRANCH   4   5
HETATM    5  S   UNL     1      -7.484   6.346  67.915  1.00  0.00    -0.095 SA 
BRANCH   5   6
HETATM    6  C   UNL     1      -8.985   7.078  67.191  1.00  0.00    -0.121 C  
BRANCH   6   7
HETATM    7  C   UNL     1      -8.668   8.418  66.561  1.00  0.00    -0.134 C  
HETATM    8  O   UNL     1      -7.567   8.948  66.687  1.00  0.00    -0.088 OA 
HETATM    9  N   UNL     1      -9.691   8.959  65.804  1.00  0.00    -0.459 N  
HETATM   10  H   UNL     1     -10.599   8.497  65.783  1.00  0.00     0.000 HD 
BRANCH   9  11
HETATM   11  C   UNL     1      -9.490  10.184  65.033  1.00  0.00    -0.271 C  
HETATM   12  C   UNL     1      -9.320   9.977  63.531  1.00  0.00    -0.301 C  
HETATM   13  C   UNL     1      -9.599  11.299  62.840  1.00  0.00    -0.352 C  
HETATM   14  S   UNL     1     -10.985  12.039  63.744  1.00  0.00    -0.466 SA 
HETATM   15  C   UNL     1     -10.626  11.182  65.236  1.00  0.00    -0.238 C  
HETATM   16  O   UNL     1     -11.180  11.417  66.300  1.00  0.00    -0.270 OA 
ENDBRANCH   9  11
ENDBRANCH   6   7
ENDBRANCH   5   6
ENDBRANCH   4   5
TORSDOF 4
ENDMDL
MODEL      235
REMARK 921   NORMALIZED FREE ENERGY PREDICTED BY IDOCK:   -2.58 KCAL/MOL
REMARK 922        TOTAL FREE ENERGY PREDICTED BY IDOCK:   -3.50 KCAL/MOL
REMARK 923 INTER-LIGAND FREE ENERGY PREDICTED BY IDOCK:   -3.49 KCAL/MOL
REMARK 924 INTRA-LIGAND FREE ENERGY PREDICTED BY IDOCK:   -0.01 KCAL/MOL
REMARK 927      BINDING AFFINITY PREDICTED BY RF-SCORE:    0.00 PKD
ROOT
HETATM    1  O   UNL     1      -9.878  19.129  68.336  1.00  0.00    -0.353 OA 
HETATM    2  C   UNL     1      -9.152  18.276  67.572  1.00  0.00    -0.253 C  
HETATM    3  O   UNL     1      -8.707  18.608  66.481  1.00  0.00    -0.294 OA 
HETATM    4  C   UNL     1      -8.881  16.929  68.211  1.00  0.00    -0.228 C  
ENDROOT
BRANCH   4   5
HETATM    5  S   UNL     1     -10.189  16.488  69.426  1.00  0.00    -0.232 SA 
BRANCH   5   6
HETATM    6  C   UNL     1      -9.915  14.691  69.513  1.00  0.00     0.058 C  
BRANCH   6   7
HETATM    7  C   UNL     1     -10.440  14.016  68.263  1.00  0.00    -0.244 C  
HETATM    8  O   UNL     1     -11.005  14.650  67.375  1.00  0.00    -0.291 OA 
HETATM    9  N   UNL     1     -10.187  12.659  68.187  1.00  0.00    -0.233 N  
HETATM   10  H   UNL     1      -9.762  12.182  68.981  1.00  0.00     0.000 HD 
BRANCH   9  11
HETATM   11  C   UNL     1     -10.521  11.897  66.985  1.00  0.00    -0.224 C  
HETATM   12  C   UNL     1      -9.642  12.192  65.773  1.00  0.00    -0.209 C  
HETATM   13  C   UNL     1      -9.780  11.036  64.800  1.00  0.00    -0.262 C  
HETATM   14  S   UNL     1      -9.852   9.543  65.824  1.00  0.00    -0.233 SA 
HETATM   15  C   UNL     1     -10.478  10.392  67.230  1.00  0.00    -0.252 C  
HETATM   16  O   UNL     1     -10.882   9.826  68.236  1.00  0.00    -0.239 OA 
ENDBRANCH   9  11
ENDBRANCH   6   7
ENDBRANCH   5   6
ENDBRANCH   4   5
TORSDOF 4
ENDMDL
MODEL      236
REMARK 921   NORMALIZED FREE ENERGY PREDICTED BY IDOCK:   -2.57 KCAL/MOL
REMARK 922        TOTAL FREE ENERGY PREDICTED BY IDOCK:   -3.50 KCAL/MOL
REMARK 923 INTER-LIGAND FREE ENERGY PREDICTED BY IDOCK:   -3.24 KCAL/MOL
REMARK 924 INTRA-LIGAND FREE ENERGY PREDICTED BY IDOCK:   -0.26 KCAL/MOL
REMARK 927      BINDING AFFINITY PREDICTED BY RF-SCORE:    0.00 PKD
ROOT
HETATM    1  O   UNL     1     -11.456  15.470  68.263  1.00  0.00    -0.341 OA 
HETATM    2  C   UNL     1     -11.446  14.548  67.268  1.00  0.00    -0.365 C  
HETATM    3  O   UNL     1     -11.633  14.861  66.100  1.00  0.00    -0.324 OA 
HETATM    4  C   UNL     1     -11.110  13.140  67.714  1.00  0.00    -0.262 C  
ENDROOT
BRANCH   4   5
HETATM    5  S   UNL     1     -11.573  12.865  69.472  1.00  0.00    -0.252 SA 
BRANCH   5   6
HETATM    6  C   UNL     1     -12.073  11.118  69.374  1.00  0.00    -0.326 C  
BRANCH   6   7
HETATM    7  C   UNL     1     -11.042  10.235  70.045  1.00  0.00    -0.311 C  
HETATM    8  O   UNL     1     -10.031  10.701  70.564  1.00  0.00     0.550 OA 
HETATM    9  N   UNL     1     -11.357   8.889  70.066  1.00  0.00    -0.431 N  
HETATM   10  H   UNL     1     -12.184   8.559  69.570  1.00  0.00     0.000 HD 
BRANCH   9  11
HETATM   11  C   UNL     1     -10.521   7.931  70.788  1.00  0.00    -0.210 C  
HETATM   12  C   UNL     1     -11.285   6.963  71.687  1.00  0.00    -0.280 C  
HETATM   13  C   UNL     1     -10.382   5.777  71.974  1.00  0.00    -0.208 C  
HETATM   14  S   UNL     1      -9.502   5.448  70.424  1.00  0.00    -0.173 SA 
HETATM   15  C   UNL     1      -9.656   7.101  69.846  1.00  0.00    -0.163 C  
HETATM   16  O   UNL     1      -9.081   7.525  68.853  1.00  0.00    -0.140 OA 
ENDBRANCH   9  11
ENDBRANCH   6   7
ENDBRANCH   5   6
ENDBRANCH   4   5
TORSDOF 4
ENDMDL
MODEL      237
REMARK 921   NORMALIZED FREE ENERGY PREDICTED BY IDOCK:   -2.55 KCAL/MOL
REMARK 922        TOTAL FREE ENERGY PREDICTED BY IDOCK:   -3.47 KCAL/MOL
REMARK 923 INTER-LIGAND FREE ENERGY PREDICTED BY IDOCK:   -3.34 KCAL/MOL
REMARK 924 INTRA-LIGAND FREE ENERGY PREDICTED BY IDOCK:   -0.13 KCAL/MOL
REMARK 927      BINDING AFFINITY PREDICTED BY RF-SCORE:    0.00 PKD
ROOT
HETATM    1  O   UNL     1      -8.439   7.053  68.254  1.00  0.00    -0.122 OA 
HETATM    2  C   UNL     1      -7.374   6.320  68.666  1.00  0.00    -0.086 C  
HETATM    3  O   UNL     1      -6.225   6.672  68.438  1.00  0.00    -0.027 OA 
HETATM    4  C   UNL     1      -7.729   5.094  69.483  1.00  0.00    -0.068 C  
ENDROOT
BRANCH   4   5
HETATM    5  S   UNL     1      -9.408   4.471  69.062  1.00  0.00    -0.161 SA 
BRANCH   5   6
HETATM    6  C   UNL     1     -10.273   4.895  70.607  1.00  0.00    -0.211 C  
BRANCH   6   7
HETATM    7  C   UNL     1     -10.847   6.294  70.524  1.00  0.00    -0.288 C  
HETATM    8  O   UNL     1     -11.955   6.510  70.039  1.00  0.00    -0.358 OA 
HETATM    9  N   UNL     1     -10.052   7.281  71.076  1.00  0.00    -0.192 N  
HETATM   10  H   UNL     1      -9.119   7.044  71.414  1.00  0.00     0.000 HD 
BRANCH   9  11
HETATM   11  C   UNL     1     -10.527   8.658  71.184  1.00  0.00    -0.227 C  
HETATM   12  C   UNL     1     -10.868   9.325  69.854  1.00  0.00    -0.252 C  
HETATM   13  C   UNL     1     -11.766  10.515  70.142  1.00  0.00    -0.326 C  
HETATM   14  S   UNL     1     -12.876   9.978  71.470  1.00  0.00    -0.468 SA 
HETATM   15  C   UNL     1     -11.753   8.773  72.085  1.00  0.00    -0.363 C  
HETATM   16  O   UNL     1     -11.920   8.167  73.133  1.00  0.00    -0.192 OA 
ENDBRANCH   9  11
ENDBRANCH   6   7
ENDBRANCH   5   6
ENDBRANCH   4   5
TORSDOF 4
ENDMDL
MODEL      238
REMARK 921   NORMALIZED FREE ENERGY PREDICTED BY IDOCK:   -2.55 KCAL/MOL
REMARK 922        TOTAL FREE ENERGY PREDICTED BY IDOCK:   -3.46 KCAL/MOL
REMARK 923 INTER-LIGAND FREE ENERGY PREDICTED BY IDOCK:   -3.17 KCAL/MOL
REMARK 924 INTRA-LIGAND FREE ENERGY PREDICTED BY IDOCK:   -0.29 KCAL/MOL
REMARK 927      BINDING AFFINITY PREDICTED BY RF-SCORE:    0.00 PKD
ROOT
HETATM    1  O   UNL     1      -8.491   4.165  68.395  1.00  0.00    -0.090 OA 
HETATM    2  C   UNL     1      -9.062   3.165  69.112  1.00  0.00    -0.138 C  
HETATM    3  O   UNL     1      -9.737   2.295  68.577  1.00  0.00    -0.129 OA 
HETATM    4  C   UNL     1      -8.730   3.177  70.590  1.00  0.00    -0.075 C  
ENDROOT
BRANCH   4   5
HETATM    5  S   UNL     1      -8.341   4.876  71.176  1.00  0.00    -0.115 SA 
BRANCH   5   6
HETATM    6  C   UNL     1      -9.891   5.245  72.056  1.00  0.00    -0.174 C  
BRANCH   6   7
HETATM    7  C   UNL     1     -10.064   6.741  72.218  1.00  0.00    -0.173 C  
HETATM    8  O   UNL     1      -9.563   7.351  73.159  1.00  0.00    -0.170 OA 
HETATM    9  N   UNL     1     -10.778   7.355  71.206  1.00  0.00    -0.221 N  
HETATM   10  H   UNL     1     -11.214   6.785  70.481  1.00  0.00     0.000 HD 
BRANCH   9  11
HETATM   11  C   UNL     1     -10.918   8.809  71.159  1.00  0.00    -0.268 C  
HETATM   12  C   UNL     1     -10.683   9.432  69.785  1.00  0.00    -0.250 C  
HETATM   13  C   UNL     1     -11.311  10.814  69.783  1.00  0.00    -0.300 C  
HETATM   14  S   UNL     1     -12.857  10.648  70.714  1.00  0.00    -0.314 SA 
HETATM   15  C   UNL     1     -12.288   9.269  71.645  1.00  0.00    -0.372 C  
HETATM   16  O   UNL     1     -12.897   8.799  72.596  1.00  0.00    -0.383 OA 
ENDBRANCH   9  11
ENDBRANCH   6   7
ENDBRANCH   5   6
ENDBRANCH   4   5
TORSDOF 4
ENDMDL
MODEL      239
REMARK 921   NORMALIZED FREE ENERGY PREDICTED BY IDOCK:   -2.54 KCAL/MOL
REMARK 922        TOTAL FREE ENERGY PREDICTED BY IDOCK:   -3.45 KCAL/MOL
REMARK 923 INTER-LIGAND FREE ENERGY PREDICTED BY IDOCK:   -3.18 KCAL/MOL
REMARK 924 INTRA-LIGAND FREE ENERGY PREDICTED BY IDOCK:   -0.27 KCAL/MOL
REMARK 927      BINDING AFFINITY PREDICTED BY RF-SCORE:    0.00 PKD
ROOT
HETATM    1  O   UNL     1      -8.903   9.006  70.256  1.00  0.00    -0.155 OA 
HETATM    2  C   UNL     1      -8.995   8.024  69.324  1.00  0.00    -0.148 C  
HETATM    3  O   UNL     1      -8.873   6.843  69.619  1.00  0.00    -0.140 OA 
HETATM    4  C   UNL     1      -9.332   8.508  67.928  1.00  0.00    -0.135 C  
ENDROOT
BRANCH   4   5
HETATM    5  S   UNL     1      -8.768  10.238  67.663  1.00  0.00    -0.121 SA 
BRANCH   5   6
HETATM    6  C   UNL     1     -10.367  11.095  67.818  1.00  0.00    -0.187 C  
BRANCH   6   7
HETATM    7  C   UNL     1     -10.297  12.464  67.176  1.00  0.00    -0.219 C  
HETATM    8  O   UNL     1     -10.370  12.612  65.958  1.00  0.00    -0.259 OA 
HETATM    9  N   UNL     1     -10.195  13.518  68.065  1.00  0.00    -0.236 N  
HETATM   10  H   UNL     1     -10.083  13.326  69.060  1.00  0.00     0.000 HD 
BRANCH   9  11
HETATM   11  C   UNL     1     -10.244  14.902  67.601  1.00  0.00    -0.236 C  
HETATM   12  C   UNL     1     -11.045  15.849  68.490  1.00  0.00    -0.340 C  
HETATM   13  C   UNL     1     -10.620  17.270  68.166  1.00  0.00    -0.386 C  
HETATM   14  S   UNL     1      -8.830  17.194  67.897  1.00  0.00    -0.231 SA 
HETATM   15  C   UNL     1      -8.851  15.500  67.429  1.00  0.00    -0.190 C  
HETATM   16  O   UNL     1      -7.882  14.915  66.966  1.00  0.00    -0.201 OA 
ENDBRANCH   9  11
ENDBRANCH   6   7
ENDBRANCH   5   6
ENDBRANCH   4   5
TORSDOF 4
ENDMDL
MODEL      240
REMARK 921   NORMALIZED FREE ENERGY PREDICTED BY IDOCK:   -2.54 KCAL/MOL
REMARK 922        TOTAL FREE ENERGY PREDICTED BY IDOCK:   -3.45 KCAL/MOL
REMARK 923 INTER-LIGAND FREE ENERGY PREDICTED BY IDOCK:   -2.82 KCAL/MOL
REMARK 924 INTRA-LIGAND FREE ENERGY PREDICTED BY IDOCK:   -0.63 KCAL/MOL
REMARK 927      BINDING AFFINITY PREDICTED BY RF-SCORE:    0.00 PKD
ROOT
HETATM    1  O   UNL     1      -8.231   6.615  65.764  1.00  0.00    -0.122 OA 
HETATM    2  C   UNL     1      -7.668   6.840  64.551  1.00  0.00    -0.113 C  
HETATM    3  O   UNL     1      -7.270   5.922  63.846  1.00  0.00    -0.050 OA 
HETATM    4  C   UNL     1      -7.648   8.293  64.123  1.00  0.00    -0.127 C  
ENDROOT
BRANCH   4   5
HETATM    5  S   UNL     1      -7.635   9.420  65.576  1.00  0.00    -0.101 SA 
BRANCH   5   6
HETATM    6  C   UNL     1      -9.295  10.144  65.400  1.00  0.00    -0.216 C  
BRANCH   6   7
HETATM    7  C   UNL     1     -10.159   9.780  66.589  1.00  0.00    -0.237 C  
HETATM    8  O   UNL     1     -11.106  10.480  66.939  1.00  0.00    -0.196 OA 
HETATM    9  N   UNL     1      -9.826   8.587  67.204  1.00  0.00    -0.186 N  
HETATM   10  H   UNL     1      -8.995   8.080  66.900  1.00  0.00     0.000 HD 
BRANCH   9  11
HETATM   11  C   UNL     1     -10.646   8.042  68.284  1.00  0.00    -0.101 C  
HETATM   12  C   UNL     1     -10.697   6.518  68.344  1.00  0.00    -0.339 C  
HETATM   13  C   UNL     1     -11.158   6.119  69.734  1.00  0.00    -0.416 C  
HETATM   14  S   UNL     1     -10.354   7.282  70.868  1.00  0.00    -0.201 SA 
HETATM   15  C   UNL     1     -10.197   8.543  69.653  1.00  0.00    -0.209 C  
HETATM   16  O   UNL     1      -9.836   9.684  69.907  1.00  0.00    -0.208 OA 
ENDBRANCH   9  11
ENDBRANCH   6   7
ENDBRANCH   5   6
ENDBRANCH   4   5
TORSDOF 4
ENDMDL
MODEL      241
REMARK 921   NORMALIZED FREE ENERGY PREDICTED BY IDOCK:   -2.53 KCAL/MOL
REMARK 922        TOTAL FREE ENERGY PREDICTED BY IDOCK:   -3.45 KCAL/MOL
REMARK 923 INTER-LIGAND FREE ENERGY PREDICTED BY IDOCK:   -3.58 KCAL/MOL
REMARK 924 INTRA-LIGAND FREE ENERGY PREDICTED BY IDOCK:    0.13 KCAL/MOL
REMARK 927      BINDING AFFINITY PREDICTED BY RF-SCORE:    0.00 PKD
ROOT
HETATM    1  O   UNL     1      -9.297   5.952  66.057  1.00  0.00    -0.158 OA 
HETATM    2  C   UNL     1      -9.726   4.665  66.026  1.00  0.00    -0.202 C  
HETATM    3  O   UNL     1     -10.554   4.284  65.209  1.00  0.00    -0.248 OA 
HETATM    4  C   UNL     1      -9.045   3.747  67.020  1.00  0.00    -0.162 C  
ENDROOT
BRANCH   4   5
HETATM    5  S   UNL     1      -8.439   4.677  68.486  1.00  0.00    -0.089 SA 
BRANCH   5   6
HETATM    6  C   UNL     1      -9.867   4.443  69.591  1.00  0.00    -0.202 C  
BRANCH   6   7
HETATM    7  C   UNL     1     -10.468   5.781  69.968  1.00  0.00    -0.283 C  
HETATM    8  O   UNL     1     -11.217   6.390  69.209  1.00  0.00    -0.357 OA 
HETATM    9  N   UNL     1     -10.146   6.224  71.238  1.00  0.00    -0.187 N  
HETATM   10  H   UNL     1      -9.475   5.699  71.798  1.00  0.00     0.000 HD 
BRANCH   9  11
HETATM   11  C   UNL     1     -10.751   7.434  71.788  1.00  0.00    -0.214 C  
HETATM   12  C   UNL     1     -10.379   8.725  71.064  1.00  0.00    -0.297 C  
HETATM   13  C   UNL     1     -11.413   9.778  71.420  1.00  0.00    -0.365 C  
HETATM   14  S   UNL     1     -13.002   8.907  71.461  1.00  0.00    -0.315 SA 
HETATM   15  C   UNL     1     -12.274   7.348  71.824  1.00  0.00    -0.326 C  
HETATM   16  O   UNL     1     -12.920   6.356  72.127  1.00  0.00    -0.171 OA 
ENDBRANCH   9  11
ENDBRANCH   6   7
ENDBRANCH   5   6
ENDBRANCH   4   5
TORSDOF 4
ENDMDL
MODEL      242
REMARK 921   NORMALIZED FREE ENERGY PREDICTED BY IDOCK:   -2.52 KCAL/MOL
REMARK 922        TOTAL FREE ENERGY PREDICTED BY IDOCK:   -3.43 KCAL/MOL
REMARK 923 INTER-LIGAND FREE ENERGY PREDICTED BY IDOCK:   -3.00 KCAL/MOL
REMARK 924 INTRA-LIGAND FREE ENERGY PREDICTED BY IDOCK:   -0.43 KCAL/MOL
REMARK 927      BINDING AFFINITY PREDICTED BY RF-SCORE:    0.00 PKD
ROOT
HETATM    1  O   UNL     1      -8.539   7.698  66.637  1.00  0.00    -0.123 OA 
HETATM    2  C   UNL     1      -8.454   6.356  66.808  1.00  0.00    -0.112 C  
HETATM    3  O   UNL     1      -8.884   5.572  65.972  1.00  0.00    -0.137 OA 
HETATM    4  C   UNL     1      -7.725   5.924  68.065  1.00  0.00    -0.100 C  
ENDROOT
BRANCH   4   5
HETATM    5  S   UNL     1      -7.840   7.204  69.380  1.00  0.00    -0.114 SA 
BRANCH   5   6
HETATM    6  C   UNL     1      -9.289   6.568  70.281  1.00  0.00    -0.159 C  
BRANCH   6   7
HETATM    7  C   UNL     1     -10.509   7.413  69.982  1.00  0.00    -0.226 C  
HETATM    8  O   UNL     1     -11.632   6.922  69.900  1.00  0.00    -0.272 OA 
HETATM    9  N   UNL     1     -10.261   8.768  69.860  1.00  0.00    -0.194 N  
HETATM   10  H   UNL     1      -9.299   9.107  69.884  1.00  0.00     0.000 HD 
BRANCH   9  11
HETATM   11  C   UNL     1     -11.356   9.722  69.697  1.00  0.00    -0.122 C  
HETATM   12  C   UNL     1     -11.552  10.680  70.870  1.00  0.00    -0.311 C  
HETATM   13  C   UNL     1     -12.359  11.867  70.377  1.00  0.00    -0.251 C  
HETATM   14  S   UNL     1     -11.746  12.214  68.707  1.00  0.00    -0.317 SA 
HETATM   15  C   UNL     1     -11.199  10.565  68.436  1.00  0.00    -0.279 C  
HETATM   16  O   UNL     1     -10.810  10.153  67.352  1.00  0.00    -0.278 OA 
ENDBRANCH   9  11
ENDBRANCH   6   7
ENDBRANCH   5   6
ENDBRANCH   4   5
TORSDOF 4
ENDMDL
MODEL      243
REMARK 921   NORMALIZED FREE ENERGY PREDICTED BY IDOCK:   -2.52 KCAL/MOL
REMARK 922        TOTAL FREE ENERGY PREDICTED BY IDOCK:   -3.43 KCAL/MOL
REMARK 923 INTER-LIGAND FREE ENERGY PREDICTED BY IDOCK:   -3.20 KCAL/MOL
REMARK 924 INTRA-LIGAND FREE ENERGY PREDICTED BY IDOCK:   -0.23 KCAL/MOL
REMARK 927      BINDING AFFINITY PREDICTED BY RF-SCORE:    0.00 PKD
ROOT
HETATM    1  O   UNL     1     -10.847  12.501  63.299  1.00  0.00    -0.406 OA 
HETATM    2  C   UNL     1     -11.897  12.887  64.065  1.00  0.00    -0.443 C  
HETATM    3  O   UNL     1     -12.821  13.546  63.606  1.00  0.00    -0.548 OA 
HETATM    4  C   UNL     1     -11.862  12.374  65.491  1.00  0.00    -0.412 C  
ENDROOT
BRANCH   4   5
HETATM    5  S   UNL     1     -10.138  12.064  66.050  1.00  0.00    -0.236 SA 
BRANCH   5   6
HETATM    6  C   UNL     1     -10.451  11.779  67.820  1.00  0.00    -0.194 C  
BRANCH   6   7
HETATM    7  C   UNL     1      -9.462  10.776  68.376  1.00  0.00    -0.174 C  
HETATM    8  O   UNL     1      -9.486  10.430  69.555  1.00  0.00    -0.205 OA 
HETATM    9  N   UNL     1      -8.578  10.258  67.449  1.00  0.00    -0.125 N  
HETATM   10  H   UNL     1      -8.573  10.627  66.498  1.00  0.00     0.000 HD 
BRANCH   9  11
HETATM   11  C   UNL     1      -7.649   9.189  67.809  1.00  0.00    -0.085 C  
HETATM   12  C   UNL     1      -8.244   7.784  67.776  1.00  0.00    -0.126 C  
HETATM   13  C   UNL     1      -7.099   6.790  67.697  1.00  0.00    -0.085 C  
HETATM   14  S   UNL     1      -5.878   7.541  66.589  1.00  0.00    -0.040 SA 
HETATM   15  C   UNL     1      -6.408   9.184  66.923  1.00  0.00    -0.063 C  
HETATM   16  O   UNL     1      -5.807  10.178  66.540  1.00  0.00    -0.056 OA 
ENDBRANCH   9  11
ENDBRANCH   6   7
ENDBRANCH   5   6
ENDBRANCH   4   5
TORSDOF 4
ENDMDL
MODEL      244
REMARK 921   NORMALIZED FREE ENERGY PREDICTED BY IDOCK:   -2.52 KCAL/MOL
REMARK 922        TOTAL FREE ENERGY PREDICTED BY IDOCK:   -3.43 KCAL/MOL
REMARK 923 INTER-LIGAND FREE ENERGY PREDICTED BY IDOCK:   -3.05 KCAL/MOL
REMARK 924 INTRA-LIGAND FREE ENERGY PREDICTED BY IDOCK:   -0.37 KCAL/MOL
REMARK 927      BINDING AFFINITY PREDICTED BY RF-SCORE:    0.00 PKD
ROOT
HETATM    1  O   UNL     1     -12.506  14.017  69.491  1.00  0.00    -0.299 OA 
HETATM    2  C   UNL     1     -12.353  13.388  70.683  1.00  0.00    -0.348 C  
HETATM    3  O   UNL     1     -12.261  14.010  71.732  1.00  0.00    -0.249 OA 
HETATM    4  C   UNL     1     -12.384  11.875  70.607  1.00  0.00    -0.313 C  
ENDROOT
BRANCH   4   5
HETATM    5  S   UNL     1     -11.833  11.275  68.958  1.00  0.00    -0.336 SA 
BRANCH   5   6
HETATM    6  C   UNL     1     -10.032  11.417  69.181  1.00  0.00     0.019 C  
BRANCH   6   7
HETATM    7  C   UNL     1      -9.484  12.550  68.338  1.00  0.00    -0.167 C  
HETATM    8  O   UNL     1     -10.132  13.044  67.419  1.00  0.00    -0.227 OA 
HETATM    9  N   UNL     1      -8.234  13.003  68.718  1.00  0.00    -0.349 N  
HETATM   10  H   UNL     1      -7.725  12.515  69.454  1.00  0.00     0.000 HD 
BRANCH   9  11
HETATM   11  C   UNL     1      -7.632  14.172  68.080  1.00  0.00    -0.136 C  
HETATM   12  C   UNL     1      -8.102  15.516  68.628  1.00  0.00    -0.159 C  
HETATM   13  C   UNL     1      -7.082  16.568  68.232  1.00  0.00    -0.151 C  
HETATM   14  S   UNL     1      -5.465  15.767  68.400  1.00  0.00    -0.115 SA 
HETATM   15  C   UNL     1      -6.109  14.148  68.162  1.00  0.00    -0.133 C  
HETATM   16  O   UNL     1      -5.407  13.157  68.018  1.00  0.00    -0.088 OA 
ENDBRANCH   9  11
ENDBRANCH   6   7
ENDBRANCH   5   6
ENDBRANCH   4   5
TORSDOF 4
ENDMDL
MODEL      245
REMARK 921   NORMALIZED FREE ENERGY PREDICTED BY IDOCK:   -2.48 KCAL/MOL
REMARK 922        TOTAL FREE ENERGY PREDICTED BY IDOCK:   -3.38 KCAL/MOL
REMARK 923 INTER-LIGAND FREE ENERGY PREDICTED BY IDOCK:   -3.14 KCAL/MOL
REMARK 924 INTRA-LIGAND FREE ENERGY PREDICTED BY IDOCK:   -0.25 KCAL/MOL
REMARK 927      BINDING AFFINITY PREDICTED BY RF-SCORE:    0.00 PKD
ROOT
HETATM    1  O   UNL     1      -8.732   3.657  68.564  1.00  0.00    -0.091 OA 
HETATM    2  C   UNL     1      -9.451   3.654  69.714  1.00  0.00    -0.184 C  
HETATM    3  O   UNL     1      -9.879   2.617  70.203  1.00  0.00    -0.005 OA 
HETATM    4  C   UNL     1      -9.606   5.013  70.365  1.00  0.00    -0.193 C  
ENDROOT
BRANCH   4   5
HETATM    5  S   UNL     1      -9.505   6.367  69.125  1.00  0.00    -0.133 SA 
BRANCH   5   6
HETATM    6  C   UNL     1     -10.884   7.403  69.709  1.00  0.00    -0.234 C  
BRANCH   6   7
HETATM    7  C   UNL     1     -10.445   8.847  69.828  1.00  0.00    -0.212 C  
HETATM    8  O   UNL     1      -9.783   9.244  70.784  1.00  0.00    -0.246 OA 
HETATM    9  N   UNL     1     -10.804   9.653  68.764  1.00  0.00    -0.353 N  
HETATM   10  H   UNL     1     -11.401   9.276  68.027  1.00  0.00     0.000 HD 
BRANCH   9  11
HETATM   11  C   UNL     1     -10.343  11.037  68.678  1.00  0.00    -0.193 C  
HETATM   12  C   UNL     1      -9.768  11.439  67.323  1.00  0.00    -0.201 C  
HETATM   13  C   UNL     1      -9.786  12.954  67.236  1.00  0.00    -0.220 C  
HETATM   14  S   UNL     1     -11.337  13.469  68.018  1.00  0.00    -0.305 SA 
HETATM   15  C   UNL     1     -11.448  12.031  69.023  1.00  0.00    -0.300 C  
HETATM   16  O   UNL     1     -12.268  11.895  69.919  1.00  0.00    -0.265 OA 
ENDBRANCH   9  11
ENDBRANCH   6   7
ENDBRANCH   5   6
ENDBRANCH   4   5
TORSDOF 4
ENDMDL
MODEL      246
REMARK 921   NORMALIZED FREE ENERGY PREDICTED BY IDOCK:   -2.47 KCAL/MOL
REMARK 922        TOTAL FREE ENERGY PREDICTED BY IDOCK:   -3.37 KCAL/MOL
REMARK 923 INTER-LIGAND FREE ENERGY PREDICTED BY IDOCK:   -3.13 KCAL/MOL
REMARK 924 INTRA-LIGAND FREE ENERGY PREDICTED BY IDOCK:   -0.24 KCAL/MOL
REMARK 927      BINDING AFFINITY PREDICTED BY RF-SCORE:    0.00 PKD
ROOT
HETATM    1  O   UNL     1      -8.264   8.468  73.872  1.00  0.00    -0.369 OA 
HETATM    2  C   UNL     1      -8.011   8.446  72.539  1.00  0.00    -0.106 C  
HETATM    3  O   UNL     1      -7.048   9.027  72.058  1.00  0.00    -0.303 OA 
HETATM    4  C   UNL     1      -8.965   7.591  71.729  1.00  0.00    -0.122 C  
ENDROOT
BRANCH   4   5
HETATM    5  S   UNL     1     -10.606   7.458  72.547  1.00  0.00    -0.288 SA 
BRANCH   5   6
HETATM    6  C   UNL     1     -11.120   5.833  71.907  1.00  0.00    -0.248 C  
BRANCH   6   7
HETATM    7  C   UNL     1     -11.032   5.809  70.396  1.00  0.00    -0.262 C  
HETATM    8  O   UNL     1     -11.690   6.577  69.697  1.00  0.00    -0.357 OA 
HETATM    9  N   UNL     1     -10.127   4.898  69.882  1.00  0.00    -0.257 N  
HETATM   10  H   UNL     1      -9.653   4.252  70.512  1.00  0.00     0.000 HD 
BRANCH   9  11
HETATM   11  C   UNL     1      -9.841   4.848  68.450  1.00  0.00    -0.136 C  
HETATM   12  C   UNL     1      -8.894   5.934  67.947  1.00  0.00    -0.105 C  
HETATM   13  C   UNL     1      -8.330   5.483  66.611  1.00  0.00    -0.109 C  
HETATM   14  S   UNL     1      -8.042   3.702  66.780  1.00  0.00    -0.096 SA 
HETATM   15  C   UNL     1      -9.263   3.501  68.028  1.00  0.00    -0.178 C  
HETATM   16  O   UNL     1      -9.633   2.411  68.441  1.00  0.00    -0.196 OA 
ENDBRANCH   9  11
ENDBRANCH   6   7
ENDBRANCH   5   6
ENDBRANCH   4   5
TORSDOF 4
ENDMDL
MODEL      247
REMARK 921   NORMALIZED FREE ENERGY PREDICTED BY IDOCK:   -2.46 KCAL/MOL
REMARK 922        TOTAL FREE ENERGY PREDICTED BY IDOCK:   -3.35 KCAL/MOL
REMARK 923 INTER-LIGAND FREE ENERGY PREDICTED BY IDOCK:   -3.64 KCAL/MOL
REMARK 924 INTRA-LIGAND FREE ENERGY PREDICTED BY IDOCK:    0.29 KCAL/MOL
REMARK 927      BINDING AFFINITY PREDICTED BY RF-SCORE:    0.00 PKD
ROOT
HETATM    1  O   UNL     1      -8.165   9.645  70.497  1.00  0.00    -0.187 OA 
HETATM    2  C   UNL     1      -8.226   8.350  70.100  1.00  0.00    -0.117 C  
HETATM    3  O   UNL     1      -8.128   7.427  70.899  1.00  0.00    -0.103 OA 
HETATM    4  C   UNL     1      -8.500   8.153  68.623  1.00  0.00    -0.127 C  
ENDROOT
BRANCH   4   5
HETATM    5  S   UNL     1      -7.910   9.588  67.635  1.00  0.00    -0.102 SA 
BRANCH   5   6
HETATM    6  C   UNL     1      -8.717   9.203  66.050  1.00  0.00    -0.153 C  
BRANCH   6   7
HETATM    7  C   UNL     1      -9.734  10.270  65.703  1.00  0.00    -0.247 C  
HETATM    8  O   UNL     1     -10.890  10.220  66.116  1.00  0.00    -0.044 OA 
HETATM    9  N   UNL     1      -9.244  11.312  64.937  1.00  0.00    -0.363 N  
HETATM   10  H   UNL     1      -8.289  11.267  64.581  1.00  0.00     0.000 HD 
BRANCH   9  11
HETATM   11  C   UNL     1     -10.072  12.476  64.630  1.00  0.00    -0.233 C  
HETATM   12  C   UNL     1     -11.248  12.198  63.698  1.00  0.00    -0.540 C  
HETATM   13  C   UNL     1     -12.249  13.328  63.855  1.00  0.00    -0.425 C  
HETATM   14  S   UNL     1     -12.261  13.727  65.623  1.00  0.00    -0.483 SA 
HETATM   15  C   UNL     1     -10.628  13.132  65.890  1.00  0.00    -0.280 C  
HETATM   16  O   UNL     1     -10.013  13.293  66.935  1.00  0.00    -0.240 OA 
ENDBRANCH   9  11
ENDBRANCH   6   7
ENDBRANCH   5   6
ENDBRANCH   4   5
TORSDOF 4
ENDMDL
MODEL      248
REMARK 921   NORMALIZED FREE ENERGY PREDICTED BY IDOCK:   -2.45 KCAL/MOL
REMARK 922        TOTAL FREE ENERGY PREDICTED BY IDOCK:   -3.34 KCAL/MOL
REMARK 923 INTER-LIGAND FREE ENERGY PREDICTED BY IDOCK:   -3.40 KCAL/MOL
REMARK 924 INTRA-LIGAND FREE ENERGY PREDICTED BY IDOCK:    0.06 KCAL/MOL
REMARK 927      BINDING AFFINITY PREDICTED BY RF-SCORE:    0.00 PKD
ROOT
HETATM    1  O   UNL     1      -9.144   9.318  71.672  1.00  0.00    -0.315 OA 
HETATM    2  C   UNL     1      -9.880   8.195  71.864  1.00  0.00    -0.212 C  
HETATM    3  O   UNL     1     -10.356   7.917  72.957  1.00  0.00    -0.314 OA 
HETATM    4  C   UNL     1     -10.122   7.376  70.613  1.00  0.00    -0.190 C  
ENDROOT
BRANCH   4   5
HETATM    5  S   UNL     1      -8.780   7.622  69.380  1.00  0.00    -0.136 SA 
BRANCH   5   6
HETATM    6  C   UNL     1      -9.294   9.232  68.704  1.00  0.00    -0.139 C  
BRANCH   6   7
HETATM    7  C   UNL     1      -9.730   9.084  67.261  1.00  0.00    -0.179 C  
HETATM    8  O   UNL     1     -10.321   8.082  66.864  1.00  0.00    -0.306 OA 
HETATM    9  N   UNL     1      -9.454  10.174  66.457  1.00  0.00    -0.164 N  
HETATM   10  H   UNL     1      -8.913  10.952  66.834  1.00  0.00     0.000 HD 
BRANCH   9  11
HETATM   11  C   UNL     1      -9.926  10.229  65.076  1.00  0.00    -0.323 C  
HETATM   12  C   UNL     1     -10.803  11.434  64.745  1.00  0.00    -0.339 C  
HETATM   13  C   UNL     1     -10.811  11.609  63.237  1.00  0.00    -0.304 C  
HETATM   14  S   UNL     1      -9.121  11.240  62.694  1.00  0.00    -0.155 SA 
HETATM   15  C   UNL     1      -8.775  10.208  64.075  1.00  0.00    -0.212 C  
HETATM   16  O   UNL     1      -7.768   9.521  64.169  1.00  0.00    -0.113 OA 
ENDBRANCH   9  11
ENDBRANCH   6   7
ENDBRANCH   5   6
ENDBRANCH   4   5
TORSDOF 4
ENDMDL
MODEL      249
REMARK 921   NORMALIZED FREE ENERGY PREDICTED BY IDOCK:   -2.45 KCAL/MOL
REMARK 922        TOTAL FREE ENERGY PREDICTED BY IDOCK:   -3.34 KCAL/MOL
REMARK 923 INTER-LIGAND FREE ENERGY PREDICTED BY IDOCK:   -3.45 KCAL/MOL
REMARK 924 INTRA-LIGAND FREE ENERGY PREDICTED BY IDOCK:    0.12 KCAL/MOL
REMARK 927      BINDING AFFINITY PREDICTED BY RF-SCORE:    0.00 PKD
ROOT
HETATM    1  O   UNL     1      -7.379  11.064  68.907  1.00  0.00    -0.094 OA 
HETATM    2  C   UNL     1      -7.009  10.879  67.615  1.00  0.00    -0.082 C  
HETATM    3  O   UNL     1      -6.222  11.631  67.057  1.00  0.00    -0.115 OA 
HETATM    4  C   UNL     1      -7.585   9.637  66.965  1.00  0.00    -0.095 C  
ENDROOT
BRANCH   4   5
HETATM    5  S   UNL     1      -9.180   9.153  67.741  1.00  0.00    -0.132 SA 
BRANCH   5   6
HETATM    6  C   UNL     1     -10.285   9.396  66.315  1.00  0.00    -0.214 C  
BRANCH   6   7
HETATM    7  C   UNL     1     -10.269  10.846  65.876  1.00  0.00    -0.257 C  
HETATM    8  O   UNL     1      -9.744  11.196  64.822  1.00  0.00    -0.231 OA 
HETATM    9  N   UNL     1     -10.928  11.716  66.725  1.00  0.00    -0.278 N  
HETATM   10  H   UNL     1     -11.295  11.371  67.611  1.00  0.00     0.000 HD 
BRANCH   9  11
HETATM   11  C   UNL     1     -11.105  13.122  66.371  1.00  0.00    -0.289 C  
HETATM   12  C   UNL     1      -9.838  13.830  65.899  1.00  0.00    -0.279 C  
HETATM   13  C   UNL     1     -10.252  15.077  65.139  1.00  0.00    -0.365 C  
HETATM   14  S   UNL     1     -11.720  14.604  64.188  1.00  0.00    -0.065 SA 
HETATM   15  C   UNL     1     -12.168  13.313  65.294  1.00  0.00    -0.448 C  
HETATM   16  O   UNL     1     -13.228  12.706  65.229  1.00  0.00    -0.511 OA 
ENDBRANCH   9  11
ENDBRANCH   6   7
ENDBRANCH   5   6
ENDBRANCH   4   5
TORSDOF 4
ENDMDL
MODEL      250
REMARK 921   NORMALIZED FREE ENERGY PREDICTED BY IDOCK:   -2.44 KCAL/MOL
REMARK 922        TOTAL FREE ENERGY PREDICTED BY IDOCK:   -3.33 KCAL/MOL
REMARK 923 INTER-LIGAND FREE ENERGY PREDICTED BY IDOCK:   -3.23 KCAL/MOL
REMARK 924 INTRA-LIGAND FREE ENERGY PREDICTED BY IDOCK:   -0.10 KCAL/MOL
REMARK 927      BINDING AFFINITY PREDICTED BY RF-SCORE:    0.00 PKD
ROOT
HETATM    1  O   UNL     1      -6.329   5.514  67.123  1.00  0.00    -0.036 OA 
HETATM    2  C   UNL     1      -7.546   5.116  67.572  1.00  0.00    -0.088 C  
HETATM    3  O   UNL     1      -7.675   4.144  68.304  1.00  0.00    -0.070 OA 
HETATM    4  C   UNL     1      -8.696   6.011  67.157  1.00  0.00    -0.109 C  
ENDROOT
BRANCH   4   5
HETATM    5  S   UNL     1      -8.328   6.889  65.584  1.00  0.00    -0.136 SA 
BRANCH   5   6
HETATM    6  C   UNL     1      -8.139   8.581  66.230  1.00  0.00    -0.107 C  
BRANCH   6   7
HETATM    7  C   UNL     1      -9.494   9.238  66.392  1.00  0.00    -0.218 C  
HETATM    8  O   UNL     1     -10.450   8.638  66.876  1.00  0.00    -0.294 OA 
HETATM    9  N   UNL     1      -9.546  10.563  66.000  1.00  0.00    -0.184 N  
HETATM   10  H   UNL     1      -8.733  10.987  65.554  1.00  0.00     0.000 HD 
BRANCH   9  11
HETATM   11  C   UNL     1     -10.749  11.365  66.214  1.00  0.00    -0.270 C  
HETATM   12  C   UNL     1     -10.616  12.449  67.279  1.00  0.00    -0.246 C  
HETATM   13  C   UNL     1     -11.722  13.464  67.056  1.00  0.00    -0.381 C  
HETATM   14  S   UNL     1     -11.868  13.639  65.258  1.00  0.00    -0.370 SA 
HETATM   15  C   UNL     1     -11.226  12.036  64.930  1.00  0.00    -0.320 C  
HETATM   16  O   UNL     1     -11.233  11.520  63.821  1.00  0.00    -0.400 OA 
ENDBRANCH   9  11
ENDBRANCH   6   7
ENDBRANCH   5   6
ENDBRANCH   4   5
TORSDOF 4
ENDMDL
MODEL      251
REMARK 921   NORMALIZED FREE ENERGY PREDICTED BY IDOCK:   -2.43 KCAL/MOL
REMARK 922        TOTAL FREE ENERGY PREDICTED BY IDOCK:   -3.32 KCAL/MOL
REMARK 923 INTER-LIGAND FREE ENERGY PREDICTED BY IDOCK:   -2.98 KCAL/MOL
REMARK 924 INTRA-LIGAND FREE ENERGY PREDICTED BY IDOCK:   -0.34 KCAL/MOL
REMARK 927      BINDING AFFINITY PREDICTED BY RF-SCORE:    0.00 PKD
ROOT
HETATM    1  O   UNL     1     -10.168   6.096  72.216  1.00  0.00    -0.182 OA 
HETATM    2  C   UNL     1     -10.657   5.887  70.969  1.00  0.00    -0.250 C  
HETATM    3  O   UNL     1     -10.289   4.942  70.284  1.00  0.00    -0.254 OA 
HETATM    4  C   UNL     1     -11.733   6.864  70.540  1.00  0.00    -0.350 C  
ENDROOT
BRANCH   4   5
HETATM    5  S   UNL     1     -11.558   8.477  71.405  1.00  0.00    -0.306 SA 
BRANCH   5   6
HETATM    6  C   UNL     1     -11.376   9.567  69.959  1.00  0.00    -0.166 C  
BRANCH   6   7
HETATM    7  C   UNL     1     -10.064   9.292  69.253  1.00  0.00    -0.200 C  
HETATM    8  O   UNL     1      -9.098   8.818  69.846  1.00  0.00    -0.148 OA 
HETATM    9  N   UNL     1     -10.066   9.568  67.898  1.00  0.00    -0.180 N  
HETATM   10  H   UNL     1     -10.882  10.011  67.477  1.00  0.00     0.000 HD 
BRANCH   9  11
HETATM   11  C   UNL     1      -8.915   9.236  67.061  1.00  0.00    -0.126 C  
HETATM   12  C   UNL     1      -9.151   8.103  66.066  1.00  0.00    -0.218 C  
HETATM   13  C   UNL     1      -8.087   8.195  64.988  1.00  0.00    -0.155 C  
HETATM   14  S   UNL     1      -7.865   9.966  64.673  1.00  0.00    -0.146 SA 
HETATM   15  C   UNL     1      -8.411  10.442  66.274  1.00  0.00    -0.144 C  
HETATM   16  O   UNL     1      -8.327  11.584  66.705  1.00  0.00    -0.157 OA 
ENDBRANCH   9  11
ENDBRANCH   6   7
ENDBRANCH   5   6
ENDBRANCH   4   5
TORSDOF 4
ENDMDL
MODEL      252
REMARK 921   NORMALIZED FREE ENERGY PREDICTED BY IDOCK:   -2.42 KCAL/MOL
REMARK 922        TOTAL FREE ENERGY PREDICTED BY IDOCK:   -3.31 KCAL/MOL
REMARK 923 INTER-LIGAND FREE ENERGY PREDICTED BY IDOCK:   -3.22 KCAL/MOL
REMARK 924 INTRA-LIGAND FREE ENERGY PREDICTED BY IDOCK:   -0.09 KCAL/MOL
REMARK 927      BINDING AFFINITY PREDICTED BY RF-SCORE:    0.00 PKD
ROOT
HETATM    1  O   UNL     1     -10.968  11.039  67.431  1.00  0.00    -0.255 OA 
HETATM    2  C   UNL     1     -10.707   9.728  67.659  1.00  0.00    -0.274 C  
HETATM    3  O   UNL     1     -10.657   8.914  66.746  1.00  0.00    -0.243 OA 
HETATM    4  C   UNL     1     -10.413   9.384  69.105  1.00  0.00    -0.217 C  
ENDROOT
BRANCH   4   5
HETATM    5  S   UNL     1     -11.224  10.567  70.254  1.00  0.00    -0.287 SA 
BRANCH   5   6
HETATM    6  C   UNL     1     -12.189   9.391  71.253  1.00  0.00    -0.345 C  
BRANCH   6   7
HETATM    7  C   UNL     1     -11.362   8.161  71.566  1.00  0.00    -0.263 C  
HETATM    8  O   UNL     1     -11.744   7.032  71.266  1.00  0.00    -0.282 OA 
HETATM    9  N   UNL     1     -10.141   8.419  72.161  1.00  0.00    -0.277 N  
HETATM   10  H   UNL     1      -9.907   9.374  72.434  1.00  0.00     0.000 HD 
BRANCH   9  11
HETATM   11  C   UNL     1      -9.181   7.345  72.406  1.00  0.00    -0.139 C  
HETATM   12  C   UNL     1      -8.411   6.879  71.174  1.00  0.00    -0.119 C  
HETATM   13  C   UNL     1      -7.169   6.145  71.646  1.00  0.00    -0.087 C  
HETATM   14  S   UNL     1      -6.573   7.070  73.086  1.00  0.00    -0.065 SA 
HETATM   15  C   UNL     1      -8.159   7.722  73.474  1.00  0.00    -0.171 C  
HETATM   16  O   UNL     1      -8.403   8.338  74.502  1.00  0.00    -0.197 OA 
ENDBRANCH   9  11
ENDBRANCH   6   7
ENDBRANCH   5   6
ENDBRANCH   4   5
TORSDOF 4
ENDMDL
MODEL      253
REMARK 921   NORMALIZED FREE ENERGY PREDICTED BY IDOCK:   -2.42 KCAL/MOL
REMARK 922        TOTAL FREE ENERGY PREDICTED BY IDOCK:   -3.31 KCAL/MOL
REMARK 923 INTER-LIGAND FREE ENERGY PREDICTED BY IDOCK:   -2.99 KCAL/MOL
REMARK 924 INTRA-LIGAND FREE ENERGY PREDICTED BY IDOCK:   -0.32 KCAL/MOL
REMARK 927      BINDING AFFINITY PREDICTED BY RF-SCORE:    0.00 PKD
ROOT
HETATM    1  O   UNL     1      -8.793   6.641  66.470  1.00  0.00    -0.128 OA 
HETATM    2  C   UNL     1      -8.979   7.537  67.472  1.00  0.00    -0.126 C  
HETATM    3  O   UNL     1      -9.822   7.362  68.342  1.00  0.00    -0.151 OA 
HETATM    4  C   UNL     1      -8.019   8.708  67.459  1.00  0.00    -0.106 C  
ENDROOT
BRANCH   4   5
HETATM    5  S   UNL     1      -7.410   9.058  65.760  1.00  0.00    -0.090 SA 
BRANCH   5   6
HETATM    6  C   UNL     1      -6.551  10.632  66.075  1.00  0.00    -0.128 C  
BRANCH   6   7
HETATM    7  C   UNL     1      -7.425  11.554  66.900  1.00  0.00    -0.145 C  
HETATM    8  O   UNL     1      -7.096  11.919  68.026  1.00  0.00    -0.074 OA 
HETATM    9  N   UNL     1      -8.577  11.981  66.267  1.00  0.00    -0.390 N  
HETATM   10  H   UNL     1      -8.820  11.599  65.353  1.00  0.00     0.000 HD 
BRANCH   9  11
HETATM   11  C   UNL     1      -9.454  12.972  66.888  1.00  0.00    -0.242 C  
HETATM   12  C   UNL     1      -9.692  14.229  66.056  1.00  0.00    -0.312 C  
HETATM   13  C   UNL     1     -10.944  14.909  66.580  1.00  0.00    -0.325 C  
HETATM   14  S   UNL     1     -12.095  13.569  66.983  1.00  0.00    -0.311 SA 
HETATM   15  C   UNL     1     -10.818  12.388  67.242  1.00  0.00    -0.243 C  
HETATM   16  O   UNL     1     -11.012  11.275  67.709  1.00  0.00    -0.216 OA 
ENDBRANCH   9  11
ENDBRANCH   6   7
ENDBRANCH   5   6
ENDBRANCH   4   5
TORSDOF 4
ENDMDL
MODEL      254
REMARK 921   NORMALIZED FREE ENERGY PREDICTED BY IDOCK:   -2.42 KCAL/MOL
REMARK 922        TOTAL FREE ENERGY PREDICTED BY IDOCK:   -3.30 KCAL/MOL
REMARK 923 INTER-LIGAND FREE ENERGY PREDICTED BY IDOCK:   -3.03 KCAL/MOL
REMARK 924 INTRA-LIGAND FREE ENERGY PREDICTED BY IDOCK:   -0.27 KCAL/MOL
REMARK 927      BINDING AFFINITY PREDICTED BY RF-SCORE:    0.00 PKD
ROOT
HETATM    1  O   UNL     1      -9.237  12.939  67.630  1.00  0.00    -0.178 OA 
HETATM    2  C   UNL     1     -10.560  12.664  67.516  1.00  0.00    -0.221 C  
HETATM    3  O   UNL     1     -11.353  13.488  67.081  1.00  0.00    -0.298 OA 
HETATM    4  C   UNL     1     -10.946  11.248  67.895  1.00  0.00    -0.248 C  
ENDROOT
BRANCH   4   5
HETATM    5  S   UNL     1      -9.768  10.535  69.112  1.00  0.00    -0.190 SA 
BRANCH   5   6
HETATM    6  C   UNL     1     -10.955   9.955  70.364  1.00  0.00    -0.318 C  
BRANCH   6   7
HETATM    7  C   UNL     1     -10.399   8.756  71.104  1.00  0.00    -0.246 C  
HETATM    8  O   UNL     1     -10.169   8.790  72.311  1.00  0.00    -0.313 OA 
HETATM    9  N   UNL     1     -10.223   7.626  70.327  1.00  0.00    -0.202 N  
HETATM   10  H   UNL     1     -10.380   7.679  69.321  1.00  0.00     0.000 HD 
BRANCH   9  11
HETATM   11  C   UNL     1      -9.814   6.357  70.926  1.00  0.00    -0.184 C  
HETATM   12  C   UNL     1     -10.602   5.140  70.451  1.00  0.00    -0.225 C  
HETATM   13  C   UNL     1      -9.786   3.900  70.768  1.00  0.00    -0.141 C  
HETATM   14  S   UNL     1      -8.063   4.350  70.431  1.00  0.00    -0.066 SA 
HETATM   15  C   UNL     1      -8.334   6.066  70.699  1.00  0.00    -0.125 C  
HETATM   16  O   UNL     1      -7.433   6.891  70.757  1.00  0.00    -0.080 OA 
ENDBRANCH   9  11
ENDBRANCH   6   7
ENDBRANCH   5   6
ENDBRANCH   4   5
TORSDOF 4
ENDMDL
MODEL      255
REMARK 921   NORMALIZED FREE ENERGY PREDICTED BY IDOCK:   -2.40 KCAL/MOL
REMARK 922        TOTAL FREE ENERGY PREDICTED BY IDOCK:   -3.28 KCAL/MOL
REMARK 923 INTER-LIGAND FREE ENERGY PREDICTED BY IDOCK:   -3.05 KCAL/MOL
REMARK 924 INTRA-LIGAND FREE ENERGY PREDICTED BY IDOCK:   -0.23 KCAL/MOL
REMARK 927      BINDING AFFINITY PREDICTED BY RF-SCORE:    0.00 PKD
ROOT
HETATM    1  O   UNL     1      -8.466   7.214  68.329  1.00  0.00    -0.123 OA 
HETATM    2  C   UNL     1      -8.278   8.189  69.253  1.00  0.00    -0.119 C  
HETATM    3  O   UNL     1      -8.135   7.931  70.440  1.00  0.00    -0.109 OA 
HETATM    4  C   UNL     1      -8.184   9.590  68.683  1.00  0.00    -0.112 C  
ENDROOT
BRANCH   4   5
HETATM    5  S   UNL     1      -9.100   9.731  67.095  1.00  0.00    -0.135 SA 
BRANCH   5   6
HETATM    6  C   UNL     1      -8.310  11.231  66.433  1.00  0.00    -0.159 C  
BRANCH   6   7
HETATM    7  C   UNL     1      -9.026  12.469  66.933  1.00  0.00    -0.212 C  
HETATM    8  O   UNL     1      -9.870  12.412  67.825  1.00  0.00    -0.193 OA 
HETATM    9  N   UNL     1      -8.618  13.652  66.346  1.00  0.00    -0.367 N  
HETATM   10  H   UNL     1      -7.952  13.626  65.573  1.00  0.00     0.000 HD 
BRANCH   9  11
HETATM   11  C   UNL     1      -9.126  14.940  66.814  1.00  0.00    -0.270 C  
HETATM   12  C   UNL     1      -8.071  16.034  66.954  1.00  0.00    -0.282 C  
HETATM   13  C   UNL     1      -8.784  17.374  66.973  1.00  0.00    -0.234 C  
HETATM   14  S   UNL     1     -10.128  17.228  65.766  1.00  0.00    -0.064 SA 
HETATM   15  C   UNL     1     -10.234  15.480  65.915  1.00  0.00    -0.345 C  
HETATM   16  O   UNL     1     -11.126  14.812  65.410  1.00  0.00    -0.325 OA 
ENDBRANCH   9  11
ENDBRANCH   6   7
ENDBRANCH   5   6
ENDBRANCH   4   5
TORSDOF 4
ENDMDL
MODEL      256
REMARK 921   NORMALIZED FREE ENERGY PREDICTED BY IDOCK:   -2.39 KCAL/MOL
REMARK 922        TOTAL FREE ENERGY PREDICTED BY IDOCK:   -3.27 KCAL/MOL
REMARK 923 INTER-LIGAND FREE ENERGY PREDICTED BY IDOCK:   -3.04 KCAL/MOL
REMARK 924 INTRA-LIGAND FREE ENERGY PREDICTED BY IDOCK:   -0.23 KCAL/MOL
REMARK 927      BINDING AFFINITY PREDICTED BY RF-SCORE:    0.00 PKD
ROOT
HETATM    1  O   UNL     1      -8.747   8.599  73.130  1.00  0.00    -0.371 OA 
HETATM    2  C   UNL     1      -8.210   7.724  72.243  1.00  0.00    -0.118 C  
HETATM    3  O   UNL     1      -7.316   6.952  72.562  1.00  0.00    -0.084 OA 
HETATM    4  C   UNL     1      -8.857   7.736  70.873  1.00  0.00    -0.142 C  
ENDROOT
BRANCH   4   5
HETATM    5  S   UNL     1      -9.605   9.373  70.499  1.00  0.00    -0.262 SA 
BRANCH   5   6
HETATM    6  C   UNL     1      -8.222  10.126  69.586  1.00  0.00    -0.165 C  
BRANCH   6   7
HETATM    7  C   UNL     1      -8.742  11.088  68.539  1.00  0.00    -0.159 C  
HETATM    8  O   UNL     1      -9.440  10.708  67.602  1.00  0.00    -0.152 OA 
HETATM    9  N   UNL     1      -8.409  12.413  68.752  1.00  0.00    -0.347 N  
HETATM   10  H   UNL     1      -7.781  12.656  69.518  1.00  0.00     0.000 HD 
BRANCH   9  11
HETATM   11  C   UNL     1      -8.945  13.471  67.897  1.00  0.00    -0.200 C  
HETATM   12  C   UNL     1     -10.232  14.115  68.403  1.00  0.00    -0.247 C  
HETATM   13  C   UNL     1     -10.392  15.455  67.707  1.00  0.00    -0.253 C  
HETATM   14  S   UNL     1      -8.723  16.156  67.611  1.00  0.00    -0.179 SA 
HETATM   15  C   UNL     1      -7.931  14.587  67.664  1.00  0.00    -0.177 C  
HETATM   16  O   UNL     1      -6.734  14.428  67.470  1.00  0.00    -0.185 OA 
ENDBRANCH   9  11
ENDBRANCH   6   7
ENDBRANCH   5   6
ENDBRANCH   4   5
TORSDOF 4
ENDMDL
MODEL      257
REMARK 921   NORMALIZED FREE ENERGY PREDICTED BY IDOCK:   -2.38 KCAL/MOL
REMARK 922        TOTAL FREE ENERGY PREDICTED BY IDOCK:   -3.25 KCAL/MOL
REMARK 923 INTER-LIGAND FREE ENERGY PREDICTED BY IDOCK:   -3.41 KCAL/MOL
REMARK 924 INTRA-LIGAND FREE ENERGY PREDICTED BY IDOCK:    0.16 KCAL/MOL
REMARK 927      BINDING AFFINITY PREDICTED BY RF-SCORE:    0.00 PKD
ROOT
HETATM    1  O   UNL     1      -7.948   8.634  73.752  1.00  0.00    -0.407 OA 
HETATM    2  C   UNL     1      -7.861   7.913  72.607  1.00  0.00    -0.120 C  
HETATM    3  O   UNL     1      -7.092   8.226  71.707  1.00  0.00    -0.071 OA 
HETATM    4  C   UNL     1      -8.725   6.669  72.575  1.00  0.00    -0.124 C  
ENDROOT
BRANCH   4   5
HETATM    5  S   UNL     1     -10.198   6.849  73.661  1.00  0.00    -0.367 SA 
BRANCH   5   6
HETATM    6  C   UNL     1     -11.493   6.940  72.386  1.00  0.00    -0.259 C  
BRANCH   6   7
HETATM    7  C   UNL     1     -11.309   8.178  71.534  1.00  0.00    -0.263 C  
HETATM    8  O   UNL     1     -11.133   9.286  72.034  1.00  0.00    -0.331 OA 
HETATM    9  N   UNL     1     -11.305   7.948  70.170  1.00  0.00    -0.447 N  
HETATM   10  H   UNL     1     -11.511   7.014  69.818  1.00  0.00     0.000 HD 
BRANCH   9  11
HETATM   11  C   UNL     1     -11.012   9.025  69.227  1.00  0.00    -0.032 C  
HETATM   12  C   UNL     1     -11.519  10.402  69.646  1.00  0.00    -0.326 C  
HETATM   13  C   UNL     1     -10.754  11.446  68.853  1.00  0.00    -0.210 C  
HETATM   14  S   UNL     1      -9.051  10.834  68.757  1.00  0.00    -0.168 SA 
HETATM   15  C   UNL     1      -9.518   9.150  68.945  1.00  0.00    -0.151 C  
HETATM   16  O   UNL     1      -8.744   8.214  68.800  1.00  0.00    -0.136 OA 
ENDBRANCH   9  11
ENDBRANCH   6   7
ENDBRANCH   5   6
ENDBRANCH   4   5
TORSDOF 4
ENDMDL
MODEL      258
REMARK 921   NORMALIZED FREE ENERGY PREDICTED BY IDOCK:   -2.37 KCAL/MOL
REMARK 922        TOTAL FREE ENERGY PREDICTED BY IDOCK:   -3.24 KCAL/MOL
REMARK 923 INTER-LIGAND FREE ENERGY PREDICTED BY IDOCK:   -3.04 KCAL/MOL
REMARK 924 INTRA-LIGAND FREE ENERGY PREDICTED BY IDOCK:   -0.21 KCAL/MOL
REMARK 927      BINDING AFFINITY PREDICTED BY RF-SCORE:    0.00 PKD
ROOT
HETATM    1  O   UNL     1      -7.878   4.766  65.896  1.00  0.00    -0.093 OA 
HETATM    2  C   UNL     1      -9.006   4.701  66.646  1.00  0.00    -0.112 C  
HETATM    3  O   UNL     1      -9.706   3.697  66.669  1.00  0.00    -0.182 OA 
HETATM    4  C   UNL     1      -9.273   5.927  67.494  1.00  0.00    -0.108 C  
ENDROOT
BRANCH   4   5
HETATM    5  S   UNL     1      -8.523   7.433  66.751  1.00  0.00    -0.129 SA 
BRANCH   5   6
HETATM    6  C   UNL     1     -10.001   8.492  66.679  1.00  0.00    -0.293 C  
BRANCH   6   7
HETATM    7  C   UNL     1      -9.638   9.927  66.999  1.00  0.00    -0.175 C  
HETATM    8  O   UNL     1      -8.485  10.339  66.903  1.00  0.00    -0.125 OA 
HETATM    9  N   UNL     1     -10.706  10.730  67.354  1.00  0.00    -0.249 N  
HETATM   10  H   UNL     1     -11.630  10.315  67.469  1.00  0.00     0.000 HD 
BRANCH   9  11
HETATM   11  C   UNL     1     -10.530  12.165  67.568  1.00  0.00    -0.209 C  
HETATM   12  C   UNL     1     -11.029  13.050  66.429  1.00  0.00    -0.301 C  
HETATM   13  C   UNL     1     -11.222  14.453  66.973  1.00  0.00    -0.328 C  
HETATM   14  S   UNL     1     -11.904  14.241  68.638  1.00  0.00    -0.329 SA 
HETATM   15  C   UNL     1     -11.207  12.641  68.850  1.00  0.00    -0.280 C  
HETATM   16  O   UNL     1     -11.216  12.036  69.913  1.00  0.00    -0.120 OA 
ENDBRANCH   9  11
ENDBRANCH   6   7
ENDBRANCH   5   6
ENDBRANCH   4   5
TORSDOF 4
ENDMDL
MODEL      259
REMARK 921   NORMALIZED FREE ENERGY PREDICTED BY IDOCK:   -2.36 KCAL/MOL
REMARK 922        TOTAL FREE ENERGY PREDICTED BY IDOCK:   -3.23 KCAL/MOL
REMARK 923 INTER-LIGAND FREE ENERGY PREDICTED BY IDOCK:   -2.86 KCAL/MOL
REMARK 924 INTRA-LIGAND FREE ENERGY PREDICTED BY IDOCK:   -0.37 KCAL/MOL
REMARK 927      BINDING AFFINITY PREDICTED BY RF-SCORE:    0.00 PKD
ROOT
HETATM    1  O   UNL     1     -10.756   7.219  66.994  1.00  0.00    -0.332 OA 
HETATM    2  C   UNL     1     -10.454   5.904  67.135  1.00  0.00    -0.272 C  
HETATM    3  O   UNL     1     -10.374   5.155  66.171  1.00  0.00    -0.233 OA 
HETATM    4  C   UNL     1     -10.156   5.473  68.557  1.00  0.00    -0.180 C  
ENDROOT
BRANCH   4   5
HETATM    5  S   UNL     1     -11.010   6.551  69.777  1.00  0.00    -0.372 SA 
BRANCH   5   6
HETATM    6  C   UNL     1      -9.556   7.247  70.622  1.00  0.00    -0.172 C  
BRANCH   6   7
HETATM    7  C   UNL     1      -9.404   8.716  70.290  1.00  0.00    -0.167 C  
HETATM    8  O   UNL     1     -10.254   9.543  70.613  1.00  0.00    -0.265 OA 
HETATM    9  N   UNL     1      -8.226   9.047  69.647  1.00  0.00    -0.110 N  
HETATM   10  H   UNL     1      -7.587   8.307  69.357  1.00  0.00     0.000 HD 
BRANCH   9  11
HETATM   11  C   UNL     1      -7.882  10.441  69.375  1.00  0.00    -0.161 C  
HETATM   12  C   UNL     1      -6.599  10.927  70.043  1.00  0.00    -0.151 C  
HETATM   13  C   UNL     1      -6.133  12.174  69.313  1.00  0.00    -0.090 C  
HETATM   14  S   UNL     1      -6.462  11.864  67.558  1.00  0.00    -0.126 SA 
HETATM   15  C   UNL     1      -7.758  10.720  67.880  1.00  0.00    -0.100 C  
HETATM   16  O   UNL     1      -8.493  10.270  67.012  1.00  0.00    -0.128 OA 
ENDBRANCH   9  11
ENDBRANCH   6   7
ENDBRANCH   5   6
ENDBRANCH   4   5
TORSDOF 4
ENDMDL
MODEL      260
REMARK 921   NORMALIZED FREE ENERGY PREDICTED BY IDOCK:   -2.36 KCAL/MOL
REMARK 922        TOTAL FREE ENERGY PREDICTED BY IDOCK:   -3.23 KCAL/MOL
REMARK 923 INTER-LIGAND FREE ENERGY PREDICTED BY IDOCK:   -2.90 KCAL/MOL
REMARK 924 INTRA-LIGAND FREE ENERGY PREDICTED BY IDOCK:   -0.33 KCAL/MOL
REMARK 927      BINDING AFFINITY PREDICTED BY RF-SCORE:    0.00 PKD
ROOT
HETATM    1  O   UNL     1      -7.890   8.238  72.897  1.00  0.00    -0.157 OA 
HETATM    2  C   UNL     1      -7.722   7.317  71.916  1.00  0.00    -0.090 C  
HETATM    3  O   UNL     1      -6.937   6.386  72.036  1.00  0.00    -0.071 OA 
HETATM    4  C   UNL     1      -8.631   7.497  70.717  1.00  0.00    -0.135 C  
ENDROOT
BRANCH   4   5
HETATM    5  S   UNL     1      -9.130   9.255  70.513  1.00  0.00    -0.261 SA 
BRANCH   5   6
HETATM    6  C   UNL     1      -7.595   9.913  69.789  1.00  0.00    -0.150 C  
BRANCH   6   7
HETATM    7  C   UNL     1      -7.912  10.898  68.684  1.00  0.00    -0.140 C  
HETATM    8  O   UNL     1      -7.065  11.674  68.246  1.00  0.00    -0.069 OA 
HETATM    9  N   UNL     1      -9.199  10.816  68.185  1.00  0.00    -0.146 N  
HETATM   10  H   UNL     1      -9.870  10.189  68.628  1.00  0.00     0.000 HD 
BRANCH   9  11
HETATM   11  C   UNL     1      -9.612  11.615  67.033  1.00  0.00    -0.184 C  
HETATM   12  C   UNL     1     -10.277  10.824  65.909  1.00  0.00    -0.319 C  
HETATM   13  C   UNL     1     -11.054  11.800  65.045  1.00  0.00    -0.284 C  
HETATM   14  S   UNL     1     -11.789  12.993  66.195  1.00  0.00    -0.424 SA 
HETATM   15  C   UNL     1     -10.561  12.742  67.428  1.00  0.00    -0.229 C  
HETATM   16  O   UNL     1     -10.459  13.435  68.430  1.00  0.00    -0.239 OA 
ENDBRANCH   9  11
ENDBRANCH   6   7
ENDBRANCH   5   6
ENDBRANCH   4   5
TORSDOF 4
ENDMDL
MODEL      261
REMARK 921   NORMALIZED FREE ENERGY PREDICTED BY IDOCK:   -2.34 KCAL/MOL
REMARK 922        TOTAL FREE ENERGY PREDICTED BY IDOCK:   -3.21 KCAL/MOL
REMARK 923 INTER-LIGAND FREE ENERGY PREDICTED BY IDOCK:   -3.11 KCAL/MOL
REMARK 924 INTRA-LIGAND FREE ENERGY PREDICTED BY IDOCK:   -0.10 KCAL/MOL
REMARK 927      BINDING AFFINITY PREDICTED BY RF-SCORE:    0.00 PKD
ROOT
HETATM    1  O   UNL     1     -10.314  19.477  66.830  1.00  0.00    -0.393 OA 
HETATM    2  C   UNL     1     -10.079  19.061  68.099  1.00  0.00    -0.395 C  
HETATM    3  O   UNL     1     -10.018  19.850  69.033  1.00  0.00    -0.400 OA 
HETATM    4  C   UNL     1      -9.980  17.558  68.264  1.00  0.00    -0.330 C  
ENDROOT
BRANCH   4   5
HETATM    5  S   UNL     1      -9.416  16.749  66.712  1.00  0.00    -0.259 SA 
BRANCH   5   6
HETATM    6  C   UNL     1      -7.849  16.039  67.304  1.00  0.00    -0.181 C  
BRANCH   6   7
HETATM    7  C   UNL     1      -8.103  14.744  68.047  1.00  0.00    -0.139 C  
HETATM    8  O   UNL     1      -8.852  14.693  69.020  1.00  0.00    -0.166 OA 
HETATM    9  N   UNL     1      -7.470  13.636  67.516  1.00  0.00    -0.211 N  
HETATM   10  H   UNL     1      -6.818  13.754  66.740  1.00  0.00     0.000 HD 
BRANCH   9  11
HETATM   11  C   UNL     1      -7.720  12.298  68.048  1.00  0.00    -0.132 C  
HETATM   12  C   UNL     1      -7.886  11.209  66.992  1.00  0.00    -0.142 C  
HETATM   13  C   UNL     1      -7.661   9.866  67.663  1.00  0.00    -0.091 C  
HETATM   14  S   UNL     1      -6.301  10.128  68.833  1.00  0.00    -0.044 SA 
HETATM   15  C   UNL     1      -6.622  11.848  69.006  1.00  0.00    -0.091 C  
HETATM   16  O   UNL     1      -6.073  12.557  69.838  1.00  0.00    -0.131 OA 
ENDBRANCH   9  11
ENDBRANCH   6   7
ENDBRANCH   5   6
ENDBRANCH   4   5
TORSDOF 4
ENDMDL
MODEL      262
REMARK 921   NORMALIZED FREE ENERGY PREDICTED BY IDOCK:   -2.33 KCAL/MOL
REMARK 922        TOTAL FREE ENERGY PREDICTED BY IDOCK:   -3.19 KCAL/MOL
REMARK 923 INTER-LIGAND FREE ENERGY PREDICTED BY IDOCK:   -3.36 KCAL/MOL
REMARK 924 INTRA-LIGAND FREE ENERGY PREDICTED BY IDOCK:    0.17 KCAL/MOL
REMARK 927      BINDING AFFINITY PREDICTED BY RF-SCORE:    0.00 PKD
ROOT
HETATM    1  O   UNL     1      -9.610  19.683  68.850  1.00  0.00    -0.387 OA 
HETATM    2  C   UNL     1      -8.791  19.515  67.782  1.00  0.00    -0.318 C  
HETATM    3  O   UNL     1      -8.058  20.412  67.386  1.00  0.00    -0.323 OA 
HETATM    4  C   UNL     1      -8.808  18.122  67.185  1.00  0.00    -0.259 C  
ENDROOT
BRANCH   4   5
HETATM    5  S   UNL     1     -10.414  17.281  67.493  1.00  0.00    -0.336 SA 
BRANCH   5   6
HETATM    6  C   UNL     1      -9.883  16.095  68.767  1.00  0.00    -0.230 C  
BRANCH   6   7
HETATM    7  C   UNL     1      -9.671  14.725  68.158  1.00  0.00    -0.217 C  
HETATM    8  O   UNL     1      -9.710  14.544  66.944  1.00  0.00    -0.237 OA 
HETATM    9  N   UNL     1      -9.384  13.724  69.068  1.00  0.00    -0.390 N  
HETATM   10  H   UNL     1      -9.420  13.927  70.066  1.00  0.00     0.000 HD 
BRANCH   9  11
HETATM   11  C   UNL     1      -9.031  12.378  68.620  1.00  0.00     0.036 C  
HETATM   12  C   UNL     1     -10.028  11.740  67.657  1.00  0.00    -0.204 C  
HETATM   13  C   UNL     1      -9.323  10.608  66.932  1.00  0.00    -0.159 C  
HETATM   14  S   UNL     1      -7.643  11.208  66.608  1.00  0.00    -0.133 SA 
HETATM   15  C   UNL     1      -7.658  12.337  67.956  1.00  0.00    -0.126 C  
HETATM   16  O   UNL     1      -6.669  12.948  68.335  1.00  0.00    -0.077 OA 
ENDBRANCH   9  11
ENDBRANCH   6   7
ENDBRANCH   5   6
ENDBRANCH   4   5
TORSDOF 4
ENDMDL
MODEL      263
REMARK 921   NORMALIZED FREE ENERGY PREDICTED BY IDOCK:   -2.33 KCAL/MOL
REMARK 922        TOTAL FREE ENERGY PREDICTED BY IDOCK:   -3.19 KCAL/MOL
REMARK 923 INTER-LIGAND FREE ENERGY PREDICTED BY IDOCK:   -2.93 KCAL/MOL
REMARK 924 INTRA-LIGAND FREE ENERGY PREDICTED BY IDOCK:   -0.26 KCAL/MOL
REMARK 927      BINDING AFFINITY PREDICTED BY RF-SCORE:    0.00 PKD
ROOT
HETATM    1  O   UNL     1     -10.762   3.998  63.064  1.00  0.00    -0.192 OA 
HETATM    2  C   UNL     1      -9.542   3.579  63.484  1.00  0.00    -0.125 C  
HETATM    3  O   UNL     1      -8.853   2.825  62.811  1.00  0.00    -0.084 OA 
HETATM    4  C   UNL     1      -9.086   4.180  64.798  1.00  0.00    -0.145 C  
ENDROOT
BRANCH   4   5
HETATM    5  S   UNL     1     -10.517   4.656  65.851  1.00  0.00    -0.178 SA 
BRANCH   5   6
HETATM    6  C   UNL     1      -9.847   6.180  66.585  1.00  0.00    -0.159 C  
BRANCH   6   7
HETATM    7  C   UNL     1      -9.770   6.051  68.092  1.00  0.00    -0.127 C  
HETATM    8  O   UNL     1      -9.400   5.012  68.634  1.00  0.00    -0.117 OA 
HETATM    9  N   UNL     1     -10.098   7.198  68.790  1.00  0.00    -0.168 N  
HETATM   10  H   UNL     1     -10.450   8.011  68.285  1.00  0.00     0.000 HD 
BRANCH   9  11
HETATM   11  C   UNL     1      -9.949   7.264  70.243  1.00  0.00    -0.187 C  
HETATM   12  C   UNL     1      -9.162   8.468  70.753  1.00  0.00    -0.204 C  
HETATM   13  C   UNL     1      -9.493   8.657  72.222  1.00  0.00    -0.265 C  
HETATM   14  S   UNL     1     -11.263   8.301  72.373  1.00  0.00    -0.374 SA 
HETATM   15  C   UNL     1     -11.296   7.258  70.958  1.00  0.00    -0.274 C  
HETATM   16  O   UNL     1     -12.261   6.574  70.645  1.00  0.00    -0.331 OA 
ENDBRANCH   9  11
ENDBRANCH   6   7
ENDBRANCH   5   6
ENDBRANCH   4   5
TORSDOF 4
ENDMDL
MODEL      264
REMARK 921   NORMALIZED FREE ENERGY PREDICTED BY IDOCK:   -2.32 KCAL/MOL
REMARK 922        TOTAL FREE ENERGY PREDICTED BY IDOCK:   -3.18 KCAL/MOL
REMARK 923 INTER-LIGAND FREE ENERGY PREDICTED BY IDOCK:   -3.46 KCAL/MOL
REMARK 924 INTRA-LIGAND FREE ENERGY PREDICTED BY IDOCK:    0.29 KCAL/MOL
REMARK 927      BINDING AFFINITY PREDICTED BY RF-SCORE:    0.00 PKD
ROOT
HETATM    1  O   UNL     1     -11.414  12.907  69.449  1.00  0.00    -0.273 OA 
HETATM    2  C   UNL     1     -12.265  12.736  70.491  1.00  0.00    -0.307 C  
HETATM    3  O   UNL     1     -12.825  13.683  71.027  1.00  0.00    -0.323 OA 
HETATM    4  C   UNL     1     -12.514  11.290  70.873  1.00  0.00    -0.394 C  
ENDROOT
BRANCH   4   5
HETATM    5  S   UNL     1     -11.088  10.222  70.419  1.00  0.00    -0.296 SA 
BRANCH   5   6
HETATM    6  C   UNL     1     -11.691   8.634  71.074  1.00  0.00    -0.278 C  
BRANCH   6   7
HETATM    7  C   UNL     1     -10.815   7.497  70.592  1.00  0.00    -0.240 C  
HETATM    8  O   UNL     1     -10.049   7.630  69.640  1.00  0.00    -0.186 OA 
HETATM    9  N   UNL     1     -10.913   6.335  71.334  1.00  0.00    -0.264 N  
HETATM   10  H   UNL     1     -11.607   6.271  72.079  1.00  0.00     0.000 HD 
BRANCH   9  11
HETATM   11  C   UNL     1     -10.037   5.196  71.068  1.00  0.00    -0.227 C  
HETATM   12  C   UNL     1      -9.962   4.772  69.604  1.00  0.00    -0.297 C  
HETATM   13  C   UNL     1      -8.706   3.941  69.419  1.00  0.00    -0.079 C  
HETATM   14  S   UNL     1      -7.441   4.733  70.447  1.00  0.00    -0.051 SA 
HETATM   15  C   UNL     1      -8.611   5.444  71.550  1.00  0.00    -0.131 C  
HETATM   16  O   UNL     1      -8.303   6.001  72.594  1.00  0.00    -0.118 OA 
ENDBRANCH   9  11
ENDBRANCH   6   7
ENDBRANCH   5   6
ENDBRANCH   4   5
TORSDOF 4
ENDMDL
MODEL      265
REMARK 921   NORMALIZED FREE ENERGY PREDICTED BY IDOCK:   -2.31 KCAL/MOL
REMARK 922        TOTAL FREE ENERGY PREDICTED BY IDOCK:   -3.17 KCAL/MOL
REMARK 923 INTER-LIGAND FREE ENERGY PREDICTED BY IDOCK:   -2.78 KCAL/MOL
REMARK 924 INTRA-LIGAND FREE ENERGY PREDICTED BY IDOCK:   -0.39 KCAL/MOL
REMARK 927      BINDING AFFINITY PREDICTED BY RF-SCORE:    0.00 PKD
ROOT
HETATM    1  O   UNL     1     -11.122   9.719  67.635  1.00  0.00    -0.244 OA 
HETATM    2  C   UNL     1     -10.448   8.542  67.598  1.00  0.00    -0.241 C  
HETATM    3  O   UNL     1     -10.907   7.556  67.038  1.00  0.00    -0.348 OA 
HETATM    4  C   UNL     1      -9.072   8.582  68.231  1.00  0.00    -0.138 C  
ENDROOT
BRANCH   4   5
HETATM    5  S   UNL     1      -8.970   9.876  69.534  1.00  0.00    -0.218 SA 
BRANCH   5   6
HETATM    6  C   UNL     1      -9.793   8.988  70.894  1.00  0.00    -0.264 C  
BRANCH   6   7
HETATM    7  C   UNL     1      -9.012   7.744  71.260  1.00  0.00    -0.134 C  
HETATM    8  O   UNL     1      -7.808   7.784  71.503  1.00  0.00    -0.082 OA 
HETATM    9  N   UNL     1      -9.767   6.589  71.344  1.00  0.00    -0.172 N  
HETATM   10  H   UNL     1     -10.751   6.612  71.077  1.00  0.00     0.000 HD 
BRANCH   9  11
HETATM   11  C   UNL     1      -9.177   5.336  71.810  1.00  0.00    -0.138 C  
HETATM   12  C   UNL     1      -9.368   5.050  73.297  1.00  0.00    -0.137 C  
HETATM   13  C   UNL     1      -9.146   3.566  73.523  1.00  0.00    -0.093 C  
HETATM   14  S   UNL     1      -9.893   2.738  72.094  1.00  0.00    -0.170 SA 
HETATM   15  C   UNL     1      -9.707   4.131  71.038  1.00  0.00    -0.190 C  
HETATM   16  O   UNL     1      -9.916   4.098  69.834  1.00  0.00    -0.209 OA 
ENDBRANCH   9  11
ENDBRANCH   6   7
ENDBRANCH   5   6
ENDBRANCH   4   5
TORSDOF 4
ENDMDL
MODEL      266
REMARK 921   NORMALIZED FREE ENERGY PREDICTED BY IDOCK:   -2.31 KCAL/MOL
REMARK 922        TOTAL FREE ENERGY PREDICTED BY IDOCK:   -3.16 KCAL/MOL
REMARK 923 INTER-LIGAND FREE ENERGY PREDICTED BY IDOCK:   -3.58 KCAL/MOL
REMARK 924 INTRA-LIGAND FREE ENERGY PREDICTED BY IDOCK:    0.41 KCAL/MOL
REMARK 927      BINDING AFFINITY PREDICTED BY RF-SCORE:    0.00 PKD
ROOT
HETATM    1  O   UNL     1      -7.943   8.805  73.311  1.00  0.00    -0.409 OA 
HETATM    2  C   UNL     1      -7.492   8.179  72.195  1.00  0.00    -0.102 C  
HETATM    3  O   UNL     1      -7.167   8.803  71.194  1.00  0.00    -0.075 OA 
HETATM    4  C   UNL     1      -7.357   6.675  72.325  1.00  0.00    -0.089 C  
ENDROOT
BRANCH   4   5
HETATM    5  S   UNL     1      -8.522   6.003  73.578  1.00  0.00    -0.118 SA 
BRANCH   5   6
HETATM    6  C   UNL     1      -9.617   5.051  72.479  1.00  0.00    -0.146 C  
BRANCH   6   7
HETATM    7  C   UNL     1     -10.911   5.800  72.244  1.00  0.00    -0.262 C  
HETATM    8  O   UNL     1     -11.917   5.579  72.914  1.00  0.00    -0.209 OA 
HETATM    9  N   UNL     1     -10.849   6.772  71.263  1.00  0.00    -0.227 N  
HETATM   10  H   UNL     1     -10.000   6.869  70.705  1.00  0.00     0.000 HD 
BRANCH   9  11
HETATM   11  C   UNL     1     -11.980   7.662  71.011  1.00  0.00    -0.273 C  
HETATM   12  C   UNL     1     -13.338   7.111  71.439  1.00  0.00    -0.380 C  
HETATM   13  C   UNL     1     -14.300   8.277  71.563  1.00  0.00    -0.428 C  
HETATM   14  S   UNL     1     -13.336   9.631  72.286  1.00  0.00    -0.335 SA 
HETATM   15  C   UNL     1     -11.802   9.020  71.683  1.00  0.00    -0.360 C  
HETATM   16  O   UNL     1     -10.754   9.647  71.744  1.00  0.00    -0.160 OA 
ENDBRANCH   9  11
ENDBRANCH   6   7
ENDBRANCH   5   6
ENDBRANCH   4   5
TORSDOF 4
ENDMDL
MODEL      267
REMARK 921   NORMALIZED FREE ENERGY PREDICTED BY IDOCK:   -2.30 KCAL/MOL
REMARK 922        TOTAL FREE ENERGY PREDICTED BY IDOCK:   -3.15 KCAL/MOL
REMARK 923 INTER-LIGAND FREE ENERGY PREDICTED BY IDOCK:   -2.92 KCAL/MOL
REMARK 924 INTRA-LIGAND FREE ENERGY PREDICTED BY IDOCK:   -0.23 KCAL/MOL
REMARK 927      BINDING AFFINITY PREDICTED BY RF-SCORE:    0.00 PKD
ROOT
HETATM    1  O   UNL     1     -12.638  10.675  71.444  1.00  0.00    -0.369 OA 
HETATM    2  C   UNL     1     -13.057   9.446  71.837  1.00  0.00    -0.424 C  
HETATM    3  O   UNL     1     -14.069   9.295  72.507  1.00  0.00    -0.440 OA 
HETATM    4  C   UNL     1     -12.218   8.297  71.315  1.00  0.00    -0.270 C  
ENDROOT
BRANCH   4   5
HETATM    5  S   UNL     1     -10.488   8.824  70.985  1.00  0.00    -0.252 SA 
BRANCH   5   6
HETATM    6  C   UNL     1     -10.407   8.465  69.203  1.00  0.00    -0.220 C  
BRANCH   6   7
HETATM    7  C   UNL     1     -10.009   7.022  68.973  1.00  0.00    -0.164 C  
HETATM    8  O   UNL     1     -10.760   6.091  69.254  1.00  0.00    -0.261 OA 
HETATM    9  N   UNL     1      -8.770   6.849  68.384  1.00  0.00    -0.125 N  
HETATM   10  H   UNL     1      -8.172   7.659  68.225  1.00  0.00     0.000 HD 
BRANCH   9  11
HETATM   11  C   UNL     1      -8.304   5.522  67.985  1.00  0.00    -0.099 C  
HETATM   12  C   UNL     1      -7.878   5.404  66.525  1.00  0.00    -0.100 C  
HETATM   13  C   UNL     1      -7.003   4.171  66.390  1.00  0.00    -0.059 C  
HETATM   14  S   UNL     1      -5.981   4.132  67.886  1.00  0.00    -0.028 SA 
HETATM   15  C   UNL     1      -7.140   5.041  68.845  1.00  0.00    -0.053 C  
HETATM   16  O   UNL     1      -7.040   5.198  70.054  1.00  0.00    -0.054 OA 
ENDBRANCH   9  11
ENDBRANCH   6   7
ENDBRANCH   5   6
ENDBRANCH   4   5
TORSDOF 4
ENDMDL
MODEL      268
REMARK 921   NORMALIZED FREE ENERGY PREDICTED BY IDOCK:   -2.29 KCAL/MOL
REMARK 922        TOTAL FREE ENERGY PREDICTED BY IDOCK:   -3.15 KCAL/MOL
REMARK 923 INTER-LIGAND FREE ENERGY PREDICTED BY IDOCK:   -2.80 KCAL/MOL
REMARK 924 INTRA-LIGAND FREE ENERGY PREDICTED BY IDOCK:   -0.35 KCAL/MOL
REMARK 927      BINDING AFFINITY PREDICTED BY RF-SCORE:    0.00 PKD
ROOT
HETATM    1  O   UNL     1      -7.555   3.518  67.077  1.00  0.00    -0.077 OA 
HETATM    2  C   UNL     1      -8.337   4.160  66.173  1.00  0.00    -0.109 C  
HETATM    3  O   UNL     1      -8.246   3.940  64.973  1.00  0.00    -0.096 OA 
HETATM    4  C   UNL     1      -9.365   5.095  66.778  1.00  0.00    -0.134 C  
ENDROOT
BRANCH   4   5
HETATM    5  S   UNL     1      -8.815   5.728  68.415  1.00  0.00    -0.108 SA 
BRANCH   5   6
HETATM    6  C   UNL     1      -7.689   7.045  67.856  1.00  0.00    -0.113 C  
BRANCH   6   7
HETATM    7  C   UNL     1      -8.112   8.380  68.432  1.00  0.00    -0.123 C  
HETATM    8  O   UNL     1      -7.289   9.204  68.825  1.00  0.00    -0.073 OA 
HETATM    9  N   UNL     1      -9.475   8.607  68.430  1.00  0.00    -0.137 N  
HETATM   10  H   UNL     1     -10.108   7.862  68.141  1.00  0.00     0.000 HD 
BRANCH   9  11
HETATM   11  C   UNL     1     -10.024   9.899  68.837  1.00  0.00    -0.181 C  
HETATM   12  C   UNL     1     -11.056  10.488  67.880  1.00  0.00    -0.367 C  
HETATM   13  C   UNL     1     -11.856  11.533  68.636  1.00  0.00    -0.318 C  
HETATM   14  S   UNL     1     -12.095  10.855  70.299  1.00  0.00    -0.382 SA 
HETATM   15  C   UNL     1     -10.661   9.841  70.222  1.00  0.00    -0.292 C  
HETATM   16  O   UNL     1     -10.212   9.231  71.183  1.00  0.00    -0.287 OA 
ENDBRANCH   9  11
ENDBRANCH   6   7
ENDBRANCH   5   6
ENDBRANCH   4   5
TORSDOF 4
ENDMDL
MODEL      269
REMARK 921   NORMALIZED FREE ENERGY PREDICTED BY IDOCK:   -2.29 KCAL/MOL
REMARK 922        TOTAL FREE ENERGY PREDICTED BY IDOCK:   -3.15 KCAL/MOL
REMARK 923 INTER-LIGAND FREE ENERGY PREDICTED BY IDOCK:   -3.31 KCAL/MOL
REMARK 924 INTRA-LIGAND FREE ENERGY PREDICTED BY IDOCK:    0.16 KCAL/MOL
REMARK 927      BINDING AFFINITY PREDICTED BY RF-SCORE:    0.00 PKD
ROOT
HETATM    1  O   UNL     1      -7.868   8.557  66.227  1.00  0.00    -0.095 OA 
HETATM    2  C   UNL     1      -6.998   9.344  66.908  1.00  0.00    -0.081 C  
HETATM    3  O   UNL     1      -6.121   8.870  67.618  1.00  0.00    -0.047 OA 
HETATM    4  C   UNL     1      -7.158  10.829  66.654  1.00  0.00    -0.133 C  
ENDROOT
BRANCH   4   5
HETATM    5  S   UNL     1      -8.883  11.245  66.170  1.00  0.00    -0.174 SA 
BRANCH   5   6
HETATM    6  C   UNL     1      -9.429  12.061  67.702  1.00  0.00    -0.185 C  
BRANCH   6   7
HETATM    7  C   UNL     1      -9.557  13.554  67.489  1.00  0.00    -0.221 C  
HETATM    8  O   UNL     1      -9.856  14.316  68.405  1.00  0.00    -0.221 OA 
HETATM    9  N   UNL     1      -9.264  13.984  66.208  1.00  0.00    -0.487 N  
HETATM   10  H   UNL     1      -9.075  13.297  65.478  1.00  0.00     0.000 HD 
BRANCH   9  11
HETATM   11  C   UNL     1      -9.220  15.408  65.883  1.00  0.00    -0.239 C  
HETATM   12  C   UNL     1     -10.514  16.169  66.160  1.00  0.00    -0.334 C  
HETATM   13  C   UNL     1     -10.181  17.649  66.235  1.00  0.00    -0.362 C  
HETATM   14  S   UNL     1      -8.589  17.748  67.094  1.00  0.00    -0.238 SA 
HETATM   15  C   UNL     1      -8.094  16.130  66.616  1.00  0.00    -0.288 C  
HETATM   16  O   UNL     1      -6.970  15.686  66.799  1.00  0.00    -0.203 OA 
ENDBRANCH   9  11
ENDBRANCH   6   7
ENDBRANCH   5   6
ENDBRANCH   4   5
TORSDOF 4
ENDMDL
MODEL      270
REMARK 921   NORMALIZED FREE ENERGY PREDICTED BY IDOCK:   -2.29 KCAL/MOL
REMARK 922        TOTAL FREE ENERGY PREDICTED BY IDOCK:   -3.14 KCAL/MOL
REMARK 923 INTER-LIGAND FREE ENERGY PREDICTED BY IDOCK:   -3.17 KCAL/MOL
REMARK 924 INTRA-LIGAND FREE ENERGY PREDICTED BY IDOCK:    0.03 KCAL/MOL
REMARK 927      BINDING AFFINITY PREDICTED BY RF-SCORE:    0.00 PKD
ROOT
HETATM    1  O   UNL     1     -12.057  11.667  67.667  1.00  0.00    -0.615 OA 
HETATM    2  C   UNL     1     -11.724  11.366  68.947  1.00  0.00    -0.343 C  
HETATM    3  O   UNL     1     -12.292  11.886  69.898  1.00  0.00    -0.201 OA 
HETATM    4  C   UNL     1     -10.665  10.292  69.089  1.00  0.00    -0.228 C  
ENDROOT
BRANCH   4   5
HETATM    5  S   UNL     1      -9.564  10.238  67.617  1.00  0.00    -0.153 SA 
BRANCH   5   6
HETATM    6  C   UNL     1      -8.019   9.718  68.426  1.00  0.00    -0.089 C  
BRANCH   6   7
HETATM    7  C   UNL     1      -8.235   8.437  69.204  1.00  0.00    -0.120 C  
HETATM    8  O   UNL     1      -8.032   7.334  68.704  1.00  0.00    -0.119 OA 
HETATM    9  N   UNL     1      -8.626   8.616  70.518  1.00  0.00    -0.143 N  
HETATM   10  H   UNL     1      -8.831   9.555  70.858  1.00  0.00     0.000 HD 
BRANCH   9  11
HETATM   11  C   UNL     1      -8.751   7.479  71.428  1.00  0.00    -0.124 C  
HETATM   12  C   UNL     1      -8.220   7.724  72.838  1.00  0.00    -0.179 C  
HETATM   13  C   UNL     1      -8.832   6.683  73.758  1.00  0.00    -0.137 C  
HETATM   14  S   UNL     1     -10.544   6.485  73.199  1.00  0.00    -0.280 SA 
HETATM   15  C   UNL     1     -10.195   7.003  71.556  1.00  0.00    -0.198 C  
HETATM   16  O   UNL     1     -10.998   6.921  70.637  1.00  0.00    -0.242 OA 
ENDBRANCH   9  11
ENDBRANCH   6   7
ENDBRANCH   5   6
ENDBRANCH   4   5
TORSDOF 4
ENDMDL
MODEL      271
REMARK 921   NORMALIZED FREE ENERGY PREDICTED BY IDOCK:   -2.28 KCAL/MOL
REMARK 922        TOTAL FREE ENERGY PREDICTED BY IDOCK:   -3.13 KCAL/MOL
REMARK 923 INTER-LIGAND FREE ENERGY PREDICTED BY IDOCK:   -3.40 KCAL/MOL
REMARK 924 INTRA-LIGAND FREE ENERGY PREDICTED BY IDOCK:    0.27 KCAL/MOL
REMARK 927      BINDING AFFINITY PREDICTED BY RF-SCORE:    0.00 PKD
ROOT
HETATM    1  O   UNL     1     -10.170  10.638  65.482  1.00  0.00    -0.264 OA 
HETATM    2  C   UNL     1     -10.394  10.694  66.819  1.00  0.00    -0.245 C  
HETATM    3  O   UNL     1     -10.684   9.696  67.465  1.00  0.00    -0.274 OA 
HETATM    4  C   UNL     1     -10.180  12.060  67.438  1.00  0.00    -0.200 C  
ENDROOT
BRANCH   4   5
HETATM    5  S   UNL     1     -10.453  13.403  66.212  1.00  0.00    -0.294 SA 
BRANCH   5   6
HETATM    6  C   UNL     1     -10.934  14.743  67.347  1.00  0.00    -0.313 C  
BRANCH   6   7
HETATM    7  C   UNL     1      -9.718  15.543  67.764  1.00  0.00    -0.211 C  
HETATM    8  O   UNL     1      -8.592  15.050  67.775  1.00  0.00    -0.152 OA 
HETATM    9  N   UNL     1      -9.973  16.865  68.077  1.00  0.00    -0.269 N  
HETATM   10  H   UNL     1     -10.936  17.198  68.102  1.00  0.00     0.000 HD 
BRANCH   9  11
HETATM   11  C   UNL     1      -8.883  17.792  68.375  1.00  0.00    -0.285 C  
HETATM   12  C   UNL     1      -7.871  17.285  69.398  1.00  0.00     0.247 C  
HETATM   13  C   UNL     1      -6.601  18.102  69.247  1.00  0.00    -0.234 C  
HETATM   14  S   UNL     1      -6.395  18.358  67.465  1.00  0.00    -0.187 SA 
HETATM   15  C   UNL     1      -8.111  18.190  67.121  1.00  0.00    -0.221 C  
HETATM   16  O   UNL     1      -8.607  18.430  66.029  1.00  0.00    -0.501 OA 
ENDBRANCH   9  11
ENDBRANCH   6   7
ENDBRANCH   5   6
ENDBRANCH   4   5
TORSDOF 4
ENDMDL
MODEL      272
REMARK 921   NORMALIZED FREE ENERGY PREDICTED BY IDOCK:   -2.27 KCAL/MOL
REMARK 922        TOTAL FREE ENERGY PREDICTED BY IDOCK:   -3.12 KCAL/MOL
REMARK 923 INTER-LIGAND FREE ENERGY PREDICTED BY IDOCK:   -3.40 KCAL/MOL
REMARK 924 INTRA-LIGAND FREE ENERGY PREDICTED BY IDOCK:    0.28 KCAL/MOL
REMARK 927      BINDING AFFINITY PREDICTED BY RF-SCORE:    0.00 PKD
ROOT
HETATM    1  O   UNL     1     -12.948  10.176  72.051  1.00  0.00    -0.424 OA 
HETATM    2  C   UNL     1     -13.343   8.920  72.380  1.00  0.00    -0.440 C  
HETATM    3  O   UNL     1     -14.371   8.714  73.012  1.00  0.00    -0.395 OA 
HETATM    4  C   UNL     1     -12.457   7.817  71.838  1.00  0.00    -0.314 C  
ENDROOT
BRANCH   4   5
HETATM    5  S   UNL     1     -10.734   8.405  71.584  1.00  0.00    -0.289 SA 
BRANCH   5   6
HETATM    6  C   UNL     1     -10.595   8.138  69.789  1.00  0.00    -0.231 C  
BRANCH   6   7
HETATM    7  C   UNL     1     -10.129   6.726  69.499  1.00  0.00    -0.178 C  
HETATM    8  O   UNL     1     -10.845   5.752  69.716  1.00  0.00    -0.324 OA 
HETATM    9  N   UNL     1      -8.871   6.636  68.934  1.00  0.00    -0.131 N  
HETATM   10  H   UNL     1      -8.305   7.477  68.830  1.00  0.00     0.000 HD 
BRANCH   9  11
HETATM   11  C   UNL     1      -8.339   5.351  68.484  1.00  0.00    -0.097 C  
HETATM   12  C   UNL     1      -8.498   4.206  69.480  1.00  0.00    -0.093 C  
HETATM   13  C   UNL     1      -8.353   2.900  68.721  1.00  0.00    -0.064 C  
HETATM   14  S   UNL     1      -9.192   3.162  67.135  1.00  0.00    -0.161 SA 
HETATM   15  C   UNL     1      -8.960   4.904  67.165  1.00  0.00    -0.110 C  
HETATM   16  O   UNL     1      -9.209   5.634  66.216  1.00  0.00    -0.150 OA 
ENDBRANCH   9  11
ENDBRANCH   6   7
ENDBRANCH   5   6
ENDBRANCH   4   5
TORSDOF 4
ENDMDL
MODEL      273
REMARK 921   NORMALIZED FREE ENERGY PREDICTED BY IDOCK:   -2.26 KCAL/MOL
REMARK 922        TOTAL FREE ENERGY PREDICTED BY IDOCK:   -3.11 KCAL/MOL
REMARK 923 INTER-LIGAND FREE ENERGY PREDICTED BY IDOCK:   -2.84 KCAL/MOL
REMARK 924 INTRA-LIGAND FREE ENERGY PREDICTED BY IDOCK:   -0.27 KCAL/MOL
REMARK 927      BINDING AFFINITY PREDICTED BY RF-SCORE:    0.00 PKD
ROOT
HETATM    1  O   UNL     1     -12.661  14.386  69.127  1.00  0.00    -0.094 OA 
HETATM    2  C   UNL     1     -12.236  13.651  70.185  1.00  0.00    -0.342 C  
HETATM    3  O   UNL     1     -12.127  14.137  71.303  1.00  0.00    -0.351 OA 
HETATM    4  C   UNL     1     -11.991  12.187  69.880  1.00  0.00    -0.309 C  
ENDROOT
BRANCH   4   5
HETATM    5  S   UNL     1     -11.558  11.934  68.111  1.00  0.00    -0.330 SA 
BRANCH   5   6
HETATM    6  C   UNL     1      -9.763  12.221  68.205  1.00  0.00    -0.213 C  
BRANCH   6   7
HETATM    7  C   UNL     1      -9.015  10.905  68.156  1.00  0.00    -0.144 C  
HETATM    8  O   UNL     1      -8.619  10.348  69.177  1.00  0.00    -0.149 OA 
HETATM    9  N   UNL     1      -8.864  10.370  66.890  1.00  0.00    -0.133 N  
HETATM   10  H   UNL     1      -9.166  10.908  66.078  1.00  0.00     0.000 HD 
BRANCH   9  11
HETATM   11  C   UNL     1      -8.275   9.046  66.698  1.00  0.00    -0.118 C  
HETATM   12  C   UNL     1      -9.276   7.894  66.693  1.00  0.00    -0.221 C  
HETATM   13  C   UNL     1      -8.615   6.701  66.028  1.00  0.00    -0.148 C  
HETATM   14  S   UNL     1      -7.649   7.382  64.654  1.00  0.00    -0.111 SA 
HETATM   15  C   UNL     1      -7.468   8.960  65.406  1.00  0.00    -0.086 C  
HETATM   16  O   UNL     1      -6.733   9.836  64.971  1.00  0.00    -0.094 OA 
ENDBRANCH   9  11
ENDBRANCH   6   7
ENDBRANCH   5   6
ENDBRANCH   4   5
TORSDOF 4
ENDMDL
MODEL      274
REMARK 921   NORMALIZED FREE ENERGY PREDICTED BY IDOCK:   -2.25 KCAL/MOL
REMARK 922        TOTAL FREE ENERGY PREDICTED BY IDOCK:   -3.10 KCAL/MOL
REMARK 923 INTER-LIGAND FREE ENERGY PREDICTED BY IDOCK:   -3.05 KCAL/MOL
REMARK 924 INTRA-LIGAND FREE ENERGY PREDICTED BY IDOCK:   -0.05 KCAL/MOL
REMARK 927      BINDING AFFINITY PREDICTED BY RF-SCORE:    0.00 PKD
ROOT
HETATM    1  O   UNL     1      -6.761  11.869  69.168  1.00  0.00    -0.094 OA 
HETATM    2  C   UNL     1      -5.911  11.979  68.117  1.00  0.00    -0.053 C  
HETATM    3  O   UNL     1      -5.301  13.015  67.889  1.00  0.00    -0.095 OA 
HETATM    4  C   UNL     1      -5.730  10.706  67.315  1.00  0.00    -0.045 C  
ENDROOT
BRANCH   4   5
HETATM    5  S   UNL     1      -7.210   9.622  67.434  1.00  0.00    -0.087 SA 
BRANCH   5   6
HETATM    6  C   UNL     1      -8.115  10.201  65.964  1.00  0.00    -0.129 C  
BRANCH   6   7
HETATM    7  C   UNL     1      -9.145  11.240  66.353  1.00  0.00    -0.192 C  
HETATM    8  O   UNL     1      -9.872  11.094  67.333  1.00  0.00    -0.172 OA 
HETATM    9  N   UNL     1      -9.163  12.367  65.553  1.00  0.00    -0.427 N  
HETATM   10  H   UNL     1      -8.572  12.403  64.723  1.00  0.00     0.000 HD 
BRANCH   9  11
HETATM   11  C   UNL     1     -10.014  13.509  65.880  1.00  0.00    -0.283 C  
HETATM   12  C   UNL     1     -11.495  13.179  66.044  1.00  0.00    -0.370 C  
HETATM   13  C   UNL     1     -12.145  14.308  66.824  1.00  0.00    -0.417 C  
HETATM   14  S   UNL     1     -10.934  14.790  68.084  1.00  0.00    -0.279 SA 
HETATM   15  C   UNL     1      -9.557  14.220  67.150  1.00  0.00    -0.245 C  
HETATM   16  O   UNL     1      -8.395  14.435  67.462  1.00  0.00    -0.161 OA 
ENDBRANCH   9  11
ENDBRANCH   6   7
ENDBRANCH   5   6
ENDBRANCH   4   5
TORSDOF 4
ENDMDL
MODEL      275
REMARK 921   NORMALIZED FREE ENERGY PREDICTED BY IDOCK:   -2.25 KCAL/MOL
REMARK 922        TOTAL FREE ENERGY PREDICTED BY IDOCK:   -3.09 KCAL/MOL
REMARK 923 INTER-LIGAND FREE ENERGY PREDICTED BY IDOCK:   -3.46 KCAL/MOL
REMARK 924 INTRA-LIGAND FREE ENERGY PREDICTED BY IDOCK:    0.37 KCAL/MOL
REMARK 927      BINDING AFFINITY PREDICTED BY RF-SCORE:    0.00 PKD
ROOT
HETATM    1  O   UNL     1     -10.286  18.219  65.678  1.00  0.00    -0.573 OA 
HETATM    2  C   UNL     1      -9.199  17.514  66.081  1.00  0.00    -0.135 C  
HETATM    3  O   UNL     1      -8.182  18.069  66.473  1.00  0.00    -0.254 OA 
HETATM    4  C   UNL     1      -9.384  16.010  66.076  1.00  0.00    -0.345 C  
ENDROOT
BRANCH   4   5
HETATM    5  S   UNL     1     -10.644  15.493  64.841  1.00  0.00    -0.225 SA 
BRANCH   5   6
HETATM    6  C   UNL     1     -10.504  13.687  65.017  1.00  0.00    -0.391 C  
BRANCH   6   7
HETATM    7  C   UNL     1     -10.841  13.266  66.432  1.00  0.00    -0.288 C  
HETATM    8  O   UNL     1     -10.050  12.630  67.124  1.00  0.00    -0.220 OA 
HETATM    9  N   UNL     1     -12.074  13.697  66.886  1.00  0.00    -0.399 N  
HETATM   10  H   UNL     1     -12.707  14.175  66.245  1.00  0.00     0.000 HD 
BRANCH   9  11
HETATM   11  C   UNL     1     -12.485  13.477  68.271  1.00  0.00     0.358 C  
HETATM   12  C   UNL     1     -11.916  12.217  68.917  1.00  0.00    -0.296 C  
HETATM   13  C   UNL     1     -12.024  12.371  70.423  1.00  0.00    -0.257 C  
HETATM   14  S   UNL     1     -11.633  14.107  70.765  1.00  0.00     0.068 SA 
HETATM   15  C   UNL     1     -12.127  14.657  69.170  1.00  0.00    -0.248 C  
HETATM   16  O   UNL     1     -12.227  15.837  68.863  1.00  0.00    -0.258 OA 
ENDBRANCH   9  11
ENDBRANCH   6   7
ENDBRANCH   5   6
ENDBRANCH   4   5
TORSDOF 4
ENDMDL
MODEL      276
REMARK 921   NORMALIZED FREE ENERGY PREDICTED BY IDOCK:   -2.24 KCAL/MOL
REMARK 922        TOTAL FREE ENERGY PREDICTED BY IDOCK:   -3.08 KCAL/MOL
REMARK 923 INTER-LIGAND FREE ENERGY PREDICTED BY IDOCK:   -2.77 KCAL/MOL
REMARK 924 INTRA-LIGAND FREE ENERGY PREDICTED BY IDOCK:   -0.31 KCAL/MOL
REMARK 927      BINDING AFFINITY PREDICTED BY RF-SCORE:    0.00 PKD
ROOT
HETATM    1  O   UNL     1      -7.639   2.420  67.716  1.00  0.00    -0.055 OA 
HETATM    2  C   UNL     1      -8.015   3.597  67.156  1.00  0.00    -0.087 C  
HETATM    3  O   UNL     1      -7.675   3.909  66.023  1.00  0.00    -0.087 OA 
HETATM    4  C   UNL     1      -8.940   4.438  68.014  1.00  0.00    -0.119 C  
ENDROOT
BRANCH   4   5
HETATM    5  S   UNL     1      -8.696   4.089  69.803  1.00  0.00    -0.080 SA 
BRANCH   5   6
HETATM    6  C   UNL     1      -7.608   5.486  70.227  1.00  0.00    -0.080 C  
BRANCH   6   7
HETATM    7  C   UNL     1      -8.323   6.450  71.150  1.00  0.00    -0.123 C  
HETATM    8  O   UNL     1      -7.738   7.024  72.065  1.00  0.00    -0.091 OA 
HETATM    9  N   UNL     1      -9.655   6.663  70.846  1.00  0.00    -0.175 N  
HETATM   10  H   UNL     1     -10.096   6.116  70.108  1.00  0.00     0.000 HD 
BRANCH   9  11
HETATM   11  C   UNL     1     -10.441   7.662  71.568  1.00  0.00    -0.204 C  
HETATM   12  C   UNL     1     -10.668   8.969  70.813  1.00  0.00    -0.301 C  
HETATM   13  C   UNL     1     -11.849   9.680  71.449  1.00  0.00    -0.406 C  
HETATM   14  S   UNL     1     -13.038   8.376  71.861  1.00  0.00    -0.361 SA 
HETATM   15  C   UNL     1     -11.808   7.126  71.982  1.00  0.00    -0.295 C  
HETATM   16  O   UNL     1     -12.029   6.000  72.407  1.00  0.00    -0.302 OA 
ENDBRANCH   9  11
ENDBRANCH   6   7
ENDBRANCH   5   6
ENDBRANCH   4   5
TORSDOF 4
ENDMDL
MODEL      277
REMARK 921   NORMALIZED FREE ENERGY PREDICTED BY IDOCK:   -2.23 KCAL/MOL
REMARK 922        TOTAL FREE ENERGY PREDICTED BY IDOCK:   -3.07 KCAL/MOL
REMARK 923 INTER-LIGAND FREE ENERGY PREDICTED BY IDOCK:   -2.76 KCAL/MOL
REMARK 924 INTRA-LIGAND FREE ENERGY PREDICTED BY IDOCK:   -0.31 KCAL/MOL
REMARK 927      BINDING AFFINITY PREDICTED BY RF-SCORE:    0.00 PKD
ROOT
HETATM    1  O   UNL     1      -9.014  14.554  68.758  1.00  0.00    -0.188 OA 
HETATM    2  C   UNL     1      -8.053  14.198  67.870  1.00  0.00    -0.154 C  
HETATM    3  O   UNL     1      -7.299  15.024  67.373  1.00  0.00    -0.189 OA 
HETATM    4  C   UNL     1      -7.949  12.708  67.615  1.00  0.00    -0.169 C  
ENDROOT
BRANCH   4   5
HETATM    5  S   UNL     1      -9.557  11.865  67.904  1.00  0.00    -0.199 SA 
BRANCH   5   6
HETATM    6  C   UNL     1      -9.249  10.325  66.983  1.00  0.00    -0.150 C  
BRANCH   6   7
HETATM    7  C   UNL     1      -9.312   9.132  67.914  1.00  0.00    -0.137 C  
HETATM    8  O   UNL     1      -9.174   7.983  67.502  1.00  0.00    -0.135 OA 
HETATM    9  N   UNL     1      -9.483   9.446  69.249  1.00  0.00    -0.158 N  
HETATM   10  H   UNL     1      -9.645  10.416  69.520  1.00  0.00     0.000 HD 
BRANCH   9  11
HETATM   11  C   UNL     1      -9.436   8.410  70.279  1.00  0.00    -0.164 C  
HETATM   12  C   UNL     1      -8.227   8.483  71.208  1.00  0.00    -0.176 C  
HETATM   13  C   UNL     1      -8.550   7.690  72.461  1.00  0.00    -0.124 C  
HETATM   14  S   UNL     1     -10.292   8.035  72.822  1.00  0.00    -0.324 SA 
HETATM   15  C   UNL     1     -10.688   8.410  71.150  1.00  0.00    -0.230 C  
HETATM   16  O   UNL     1     -11.830   8.580  70.749  1.00  0.00    -0.262 OA 
ENDBRANCH   9  11
ENDBRANCH   6   7
ENDBRANCH   5   6
ENDBRANCH   4   5
TORSDOF 4
ENDMDL
MODEL      278
REMARK 921   NORMALIZED FREE ENERGY PREDICTED BY IDOCK:   -2.21 KCAL/MOL
REMARK 922        TOTAL FREE ENERGY PREDICTED BY IDOCK:   -3.05 KCAL/MOL
REMARK 923 INTER-LIGAND FREE ENERGY PREDICTED BY IDOCK:   -2.71 KCAL/MOL
REMARK 924 INTRA-LIGAND FREE ENERGY PREDICTED BY IDOCK:   -0.33 KCAL/MOL
REMARK 927      BINDING AFFINITY PREDICTED BY RF-SCORE:    0.00 PKD
ROOT
HETATM    1  O   UNL     1      -9.157   5.841  65.349  1.00  0.00    -0.099 OA 
HETATM    2  C   UNL     1      -9.160   4.901  66.328  1.00  0.00    -0.127 C  
HETATM    3  O   UNL     1     -10.073   4.094  66.441  1.00  0.00    -0.206 OA 
HETATM    4  C   UNL     1      -7.921   4.893  67.200  1.00  0.00    -0.099 C  
ENDROOT
BRANCH   4   5
HETATM    5  S   UNL     1      -7.132   6.553  67.260  1.00  0.00    -0.078 SA 
BRANCH   5   6
HETATM    6  C   UNL     1      -6.454   6.493  68.948  1.00  0.00    -0.043 C  
BRANCH   6   7
HETATM    7  C   UNL     1      -7.531   6.097  69.936  1.00  0.00    -0.080 C  
HETATM    8  O   UNL     1      -7.358   5.197  70.755  1.00  0.00    -0.065 OA 
HETATM    9  N   UNL     1      -8.686   6.855  69.871  1.00  0.00    -0.141 N  
HETATM   10  H   UNL     1      -8.788   7.551  69.133  1.00  0.00     0.000 HD 
BRANCH   9  11
HETATM   11  C   UNL     1      -9.761   6.673  70.843  1.00  0.00    -0.179 C  
HETATM   12  C   UNL     1      -9.726   7.636  72.027  1.00  0.00    -0.209 C  
HETATM   13  C   UNL     1     -11.105   7.652  72.661  1.00  0.00    -0.359 C  
HETATM   14  S   UNL     1     -12.277   7.580  71.280  1.00  0.00    -0.320 SA 
HETATM   15  C   UNL     1     -11.140   6.785  70.200  1.00  0.00    -0.315 C  
HETATM   16  O   UNL     1     -11.452   6.329  69.109  1.00  0.00    -0.394 OA 
ENDBRANCH   9  11
ENDBRANCH   6   7
ENDBRANCH   5   6
ENDBRANCH   4   5
TORSDOF 4
ENDMDL
MODEL      279
REMARK 921   NORMALIZED FREE ENERGY PREDICTED BY IDOCK:   -2.20 KCAL/MOL
REMARK 922        TOTAL FREE ENERGY PREDICTED BY IDOCK:   -3.03 KCAL/MOL
REMARK 923 INTER-LIGAND FREE ENERGY PREDICTED BY IDOCK:   -2.68 KCAL/MOL
REMARK 924 INTRA-LIGAND FREE ENERGY PREDICTED BY IDOCK:   -0.35 KCAL/MOL
REMARK 927      BINDING AFFINITY PREDICTED BY RF-SCORE:    0.00 PKD
ROOT
HETATM    1  O   UNL     1      -7.293   8.841  74.045  1.00  0.00    -0.392 OA 
HETATM    2  C   UNL     1      -7.040   7.915  73.086  1.00  0.00    -0.094 C  
HETATM    3  O   UNL     1      -5.957   7.857  72.519  1.00  0.00    -0.040 OA 
HETATM    4  C   UNL     1      -8.167   6.932  72.843  1.00  0.00    -0.107 C  
ENDROOT
BRANCH   4   5
HETATM    5  S   UNL     1      -9.798   7.663  73.273  1.00  0.00    -0.305 SA 
BRANCH   5   6
HETATM    6  C   UNL     1     -10.686   7.333  71.718  1.00  0.00    -0.218 C  
BRANCH   6   7
HETATM    7  C   UNL     1     -10.201   8.263  70.626  1.00  0.00    -0.193 C  
HETATM    8  O   UNL     1     -10.428   9.470  70.656  1.00  0.00    -0.264 OA 
HETATM    9  N   UNL     1      -9.451   7.653  69.637  1.00  0.00    -0.157 N  
HETATM   10  H   UNL     1      -9.344   6.639  69.640  1.00  0.00     0.000 HD 
BRANCH   9  11
HETATM   11  C   UNL     1      -8.810   8.441  68.586  1.00  0.00    -0.136 C  
HETATM   12  C   UNL     1      -7.354   8.075  68.308  1.00  0.00    -0.095 C  
HETATM   13  C   UNL     1      -6.990   8.608  66.934  1.00  0.00    -0.077 C  
HETATM   14  S   UNL     1      -8.455   8.336  65.902  1.00  0.00    -0.147 SA 
HETATM   15  C   UNL     1      -9.566   8.357  67.264  1.00  0.00    -0.165 C  
HETATM   16  O   UNL     1     -10.783   8.369  67.142  1.00  0.00    -0.291 OA 
ENDBRANCH   9  11
ENDBRANCH   6   7
ENDBRANCH   5   6
ENDBRANCH   4   5
TORSDOF 4
ENDMDL
MODEL      280
REMARK 921   NORMALIZED FREE ENERGY PREDICTED BY IDOCK:   -2.19 KCAL/MOL
REMARK 922        TOTAL FREE ENERGY PREDICTED BY IDOCK:   -3.02 KCAL/MOL
REMARK 923 INTER-LIGAND FREE ENERGY PREDICTED BY IDOCK:   -2.70 KCAL/MOL
REMARK 924 INTRA-LIGAND FREE ENERGY PREDICTED BY IDOCK:   -0.32 KCAL/MOL
REMARK 927      BINDING AFFINITY PREDICTED BY RF-SCORE:    0.00 PKD
ROOT
HETATM    1  O   UNL     1     -12.141  11.674  67.908  1.00  0.00    -0.613 OA 
HETATM    2  C   UNL     1     -11.809  10.856  68.938  1.00  0.00    -0.270 C  
HETATM    3  O   UNL     1     -12.174  11.084  70.084  1.00  0.00    -0.305 OA 
HETATM    4  C   UNL     1     -11.028   9.621  68.538  1.00  0.00    -0.108 C  
ENDROOT
BRANCH   4   5
HETATM    5  S   UNL     1     -10.069   9.904  66.996  1.00  0.00    -0.231 SA 
BRANCH   5   6
HETATM    6  C   UNL     1      -8.432   9.343  67.561  1.00  0.00    -0.122 C  
BRANCH   6   7
HETATM    7  C   UNL     1      -8.369   7.830  67.576  1.00  0.00    -0.120 C  
HETATM    8  O   UNL     1      -8.318   7.175  66.537  1.00  0.00    -0.109 OA 
HETATM    9  N   UNL     1      -8.322   7.264  68.836  1.00  0.00    -0.125 N  
HETATM   10  H   UNL     1      -8.423   7.858  69.658  1.00  0.00     0.000 HD 
BRANCH   9  11
HETATM   11  C   UNL     1      -8.132   5.825  69.008  1.00  0.00    -0.101 C  
HETATM   12  C   UNL     1      -7.075   5.436  70.037  1.00  0.00    -0.062 C  
HETATM   13  C   UNL     1      -7.322   3.994  70.443  1.00  0.00    -0.042 C  
HETATM   14  S   UNL     1      -9.123   3.814  70.529  1.00  0.00    -0.134 SA 
HETATM   15  C   UNL     1      -9.428   5.117  69.389  1.00  0.00    -0.140 C  
HETATM   16  O   UNL     1     -10.533   5.362  68.924  1.00  0.00    -0.211 OA 
ENDBRANCH   9  11
ENDBRANCH   6   7
ENDBRANCH   5   6
ENDBRANCH   4   5
TORSDOF 4
ENDMDL
MODEL      281
REMARK 921   NORMALIZED FREE ENERGY PREDICTED BY IDOCK:   -2.18 KCAL/MOL
REMARK 922        TOTAL FREE ENERGY PREDICTED BY IDOCK:   -3.00 KCAL/MOL
REMARK 923 INTER-LIGAND FREE ENERGY PREDICTED BY IDOCK:   -2.76 KCAL/MOL
REMARK 924 INTRA-LIGAND FREE ENERGY PREDICTED BY IDOCK:   -0.25 KCAL/MOL
REMARK 927      BINDING AFFINITY PREDICTED BY RF-SCORE:    0.00 PKD
ROOT
HETATM    1  O   UNL     1      -9.014  14.679  68.676  1.00  0.00    -0.179 OA 
HETATM    2  C   UNL     1      -8.038  14.293  67.816  1.00  0.00    -0.170 C  
HETATM    3  O   UNL     1      -7.262  15.099  67.321  1.00  0.00    -0.202 OA 
HETATM    4  C   UNL     1      -7.950  12.797  67.591  1.00  0.00    -0.165 C  
ENDROOT
BRANCH   4   5
HETATM    5  S   UNL     1      -9.576  11.981  67.859  1.00  0.00    -0.201 SA 
BRANCH   5   6
HETATM    6  C   UNL     1      -9.074  10.246  67.632  1.00  0.00    -0.137 C  
BRANCH   6   7
HETATM    7  C   UNL     1      -9.089   9.515  68.958  1.00  0.00    -0.144 C  
HETATM    8  O   UNL     1      -8.580   9.996  69.968  1.00  0.00    -0.190 OA 
HETATM    9  N   UNL     1      -9.756   8.304  68.945  1.00  0.00    -0.161 N  
HETATM   10  H   UNL     1     -10.110   7.935  68.063  1.00  0.00     0.000 HD 
BRANCH   9  11
HETATM   11  C   UNL     1      -9.963   7.545  70.177  1.00  0.00    -0.192 C  
HETATM   12  C   UNL     1     -11.419   7.414  70.613  1.00  0.00    -0.307 C  
HETATM   13  C   UNL     1     -11.517   6.249  71.581  1.00  0.00    -0.296 C  
HETATM   14  S   UNL     1     -10.399   4.979  70.930  1.00  0.00    -0.144 SA 
HETATM   15  C   UNL     1      -9.381   6.138  70.087  1.00  0.00    -0.155 C  
HETATM   16  O   UNL     1      -8.316   5.844  69.563  1.00  0.00    -0.111 OA 
ENDBRANCH   9  11
ENDBRANCH   6   7
ENDBRANCH   5   6
ENDBRANCH   4   5
TORSDOF 4
ENDMDL
MODEL      282
REMARK 921   NORMALIZED FREE ENERGY PREDICTED BY IDOCK:   -2.17 KCAL/MOL
REMARK 922        TOTAL FREE ENERGY PREDICTED BY IDOCK:   -3.00 KCAL/MOL
REMARK 923 INTER-LIGAND FREE ENERGY PREDICTED BY IDOCK:   -3.13 KCAL/MOL
REMARK 924 INTRA-LIGAND FREE ENERGY PREDICTED BY IDOCK:    0.13 KCAL/MOL
REMARK 927      BINDING AFFINITY PREDICTED BY RF-SCORE:    0.00 PKD
ROOT
HETATM    1  O   UNL     1      -8.796   8.335  66.299  1.00  0.00    -0.143 OA 
HETATM    2  C   UNL     1      -9.985   8.390  66.949  1.00  0.00    -0.271 C  
HETATM    3  O   UNL     1     -10.449   9.449  67.351  1.00  0.00    -0.251 OA 
HETATM    4  C   UNL     1     -10.706   7.063  67.060  1.00  0.00    -0.353 C  
ENDROOT
BRANCH   4   5
HETATM    5  S   UNL     1      -9.526   5.653  67.028  1.00  0.00    -0.134 SA 
BRANCH   5   6
HETATM    6  C   UNL     1     -10.283   4.608  68.312  1.00  0.00     0.072 C  
BRANCH   6   7
HETATM    7  C   UNL     1     -10.040   5.198  69.685  1.00  0.00    -0.261 C  
HETATM    8  O   UNL     1      -8.923   5.206  70.197  1.00  0.00    -0.115 OA 
HETATM    9  N   UNL     1     -11.153   5.763  70.278  1.00  0.00    -0.287 N  
HETATM   10  H   UNL     1     -12.063   5.676  69.825  1.00  0.00     0.000 HD 
BRANCH   9  11
HETATM   11  C   UNL     1     -11.047   6.483  71.546  1.00  0.00    -0.265 C  
HETATM   12  C   UNL     1     -10.296   5.738  72.646  1.00  0.00    -0.229 C  
HETATM   13  C   UNL     1      -9.861   6.752  73.688  1.00  0.00    -0.243 C  
HETATM   14  S   UNL     1      -9.362   8.224  72.756  1.00  0.00    -0.247 SA 
HETATM   15  C   UNL     1     -10.385   7.846  71.377  1.00  0.00    -0.198 C  
HETATM   16  O   UNL     1     -10.579   8.618  70.448  1.00  0.00    -0.209 OA 
ENDBRANCH   9  11
ENDBRANCH   6   7
ENDBRANCH   5   6
ENDBRANCH   4   5
TORSDOF 4
ENDMDL
MODEL      283
REMARK 921   NORMALIZED FREE ENERGY PREDICTED BY IDOCK:   -2.17 KCAL/MOL
REMARK 922        TOTAL FREE ENERGY PREDICTED BY IDOCK:   -2.99 KCAL/MOL
REMARK 923 INTER-LIGAND FREE ENERGY PREDICTED BY IDOCK:   -3.20 KCAL/MOL
REMARK 924 INTRA-LIGAND FREE ENERGY PREDICTED BY IDOCK:    0.21 KCAL/MOL
REMARK 927      BINDING AFFINITY PREDICTED BY RF-SCORE:    0.00 PKD
ROOT
HETATM    1  O   UNL     1      -9.851  13.764  68.348  1.00  0.00    -0.224 OA 
HETATM    2  C   UNL     1      -9.386  12.502  68.525  1.00  0.00    -0.082 C  
HETATM    3  O   UNL     1     -10.143  11.542  68.597  1.00  0.00    -0.209 OA 
HETATM    4  C   UNL     1      -7.876  12.381  68.544  1.00  0.00    -0.112 C  
ENDROOT
BRANCH   4   5
HETATM    5  S   UNL     1      -7.086  13.941  69.112  1.00  0.00    -0.023 SA 
BRANCH   5   6
HETATM    6  C   UNL     1      -6.920  14.786  67.508  1.00  0.00    -0.172 C  
BRANCH   6   7
HETATM    7  C   UNL     1      -7.354  16.232  67.626  1.00  0.00    -0.140 C  
HETATM    8  O   UNL     1      -6.913  17.102  66.878  1.00  0.00    -0.170 OA 
HETATM    9  N   UNL     1      -8.308  16.475  68.596  1.00  0.00    -0.224 N  
HETATM   10  H   UNL     1      -8.593  15.720  69.220  1.00  0.00     0.000 HD 
BRANCH   9  11
HETATM   11  C   UNL     1      -8.915  17.796  68.742  1.00  0.00    -0.202 C  
HETATM   12  C   UNL     1      -7.990  18.966  68.420  1.00  0.00    -0.373 C  
HETATM   13  C   UNL     1      -8.852  20.187  68.153  1.00  0.00    -0.104 C  
HETATM   14  S   UNL     1     -10.288  19.577  67.231  1.00  0.00    -0.477 SA 
HETATM   15  C   UNL     1     -10.167  17.949  67.885  1.00  0.00    -0.371 C  
HETATM   16  O   UNL     1     -11.021  17.089  67.718  1.00  0.00    -0.316 OA 
ENDBRANCH   9  11
ENDBRANCH   6   7
ENDBRANCH   5   6
ENDBRANCH   4   5
TORSDOF 4
ENDMDL
MODEL      284
REMARK 921   NORMALIZED FREE ENERGY PREDICTED BY IDOCK:   -2.16 KCAL/MOL
REMARK 922        TOTAL FREE ENERGY PREDICTED BY IDOCK:   -2.98 KCAL/MOL
REMARK 923 INTER-LIGAND FREE ENERGY PREDICTED BY IDOCK:   -3.38 KCAL/MOL
REMARK 924 INTRA-LIGAND FREE ENERGY PREDICTED BY IDOCK:    0.40 KCAL/MOL
REMARK 927      BINDING AFFINITY PREDICTED BY RF-SCORE:    0.00 PKD
ROOT
HETATM    1  O   UNL     1      -8.629   8.932  72.438  1.00  0.00    -0.399 OA 
HETATM    2  C   UNL     1      -9.390   7.816  72.313  1.00  0.00    -0.158 C  
HETATM    3  O   UNL     1      -9.602   7.073  73.262  1.00  0.00    -0.152 OA 
HETATM    4  C   UNL     1     -10.003   7.619  70.942  1.00  0.00    -0.180 C  
ENDROOT
BRANCH   4   5
HETATM    5  S   UNL     1      -8.991   8.421  69.633  1.00  0.00    -0.146 SA 
BRANCH   5   6
HETATM    6  C   UNL     1      -9.614  10.125  69.784  1.00  0.00    -0.177 C  
BRANCH   6   7
HETATM    7  C   UNL     1      -9.975  10.677  68.421  1.00  0.00    -0.163 C  
HETATM    8  O   UNL     1     -10.314   9.944  67.495  1.00  0.00    -0.204 OA 
HETATM    9  N   UNL     1      -9.940  12.056  68.327  1.00  0.00    -0.200 N  
HETATM   10  H   UNL     1      -9.598  12.605  69.115  1.00  0.00     0.000 HD 
BRANCH   9  11
HETATM   11  C   UNL     1     -10.385  12.739  67.114  1.00  0.00    -0.233 C  
HETATM   12  C   UNL     1     -11.780  12.348  66.632  1.00  0.00    -0.438 C  
HETATM   13  C   UNL     1     -12.277  13.437  65.699  1.00  0.00    -0.463 C  
HETATM   14  S   UNL     1     -11.715  14.998  66.428  1.00  0.00    -0.013 SA 
HETATM   15  C   UNL     1     -10.360  14.256  67.268  1.00  0.00    -0.260 C  
HETATM   16  O   UNL     1      -9.487  14.896  67.838  1.00  0.00    -0.196 OA 
ENDBRANCH   9  11
ENDBRANCH   6   7
ENDBRANCH   5   6
ENDBRANCH   4   5
TORSDOF 4
ENDMDL
MODEL      285
REMARK 921   NORMALIZED FREE ENERGY PREDICTED BY IDOCK:   -2.16 KCAL/MOL
REMARK 922        TOTAL FREE ENERGY PREDICTED BY IDOCK:   -2.98 KCAL/MOL
REMARK 923 INTER-LIGAND FREE ENERGY PREDICTED BY IDOCK:   -3.24 KCAL/MOL
REMARK 924 INTRA-LIGAND FREE ENERGY PREDICTED BY IDOCK:    0.26 KCAL/MOL
REMARK 927      BINDING AFFINITY PREDICTED BY RF-SCORE:    0.00 PKD
ROOT
HETATM    1  O   UNL     1      -9.021  11.464  65.902  1.00  0.00    -0.207 OA 
HETATM    2  C   UNL     1      -8.166  10.608  65.289  1.00  0.00    -0.105 C  
HETATM    3  O   UNL     1      -8.178  10.446  64.076  1.00  0.00    -0.162 OA 
HETATM    4  C   UNL     1      -7.166   9.943  66.213  1.00  0.00    -0.102 C  
ENDROOT
BRANCH   4   5
HETATM    5  S   UNL     1      -7.818   9.820  67.928  1.00  0.00    -0.090 SA 
BRANCH   5   6
HETATM    6  C   UNL     1      -9.153   8.615  67.648  1.00  0.00    -0.134 C  
BRANCH   6   7
HETATM    7  C   UNL     1      -9.953   8.409  68.918  1.00  0.00    -0.187 C  
HETATM    8  O   UNL     1     -10.531   7.351  69.153  1.00  0.00    -0.207 OA 
HETATM    9  N   UNL     1      -9.934   9.477  69.795  1.00  0.00    -0.199 N  
HETATM   10  H   UNL     1      -9.480  10.347  69.517  1.00  0.00     0.000 HD 
BRANCH   9  11
HETATM   11  C   UNL     1     -10.554   9.379  71.115  1.00  0.00    -0.333 C  
HETATM   12  C   UNL     1     -11.970   8.810  71.117  1.00  0.00    -0.331 C  
HETATM   13  C   UNL     1     -12.282   8.333  72.524  1.00  0.00    -0.307 C  
HETATM   14  S   UNL     1     -10.748   7.587  73.137  1.00  0.00    -0.378 SA 
HETATM   15  C   UNL     1      -9.719   8.542  72.079  1.00  0.00    -0.307 C  
HETATM   16  O   UNL     1      -8.500   8.569  72.167  1.00  0.00    -0.194 OA 
ENDBRANCH   9  11
ENDBRANCH   6   7
ENDBRANCH   5   6
ENDBRANCH   4   5
TORSDOF 4
ENDMDL
MODEL      286
REMARK 921   NORMALIZED FREE ENERGY PREDICTED BY IDOCK:   -2.14 KCAL/MOL
REMARK 922        TOTAL FREE ENERGY PREDICTED BY IDOCK:   -2.96 KCAL/MOL
REMARK 923 INTER-LIGAND FREE ENERGY PREDICTED BY IDOCK:   -2.52 KCAL/MOL
REMARK 924 INTRA-LIGAND FREE ENERGY PREDICTED BY IDOCK:   -0.44 KCAL/MOL
REMARK 927      BINDING AFFINITY PREDICTED BY RF-SCORE:    0.00 PKD
ROOT
HETATM    1  O   UNL     1      -7.421   7.494  67.012  1.00  0.00    -0.094 OA 
HETATM    2  C   UNL     1      -8.366   7.529  66.040  1.00  0.00    -0.136 C  
HETATM    3  O   UNL     1      -8.982   8.554  65.778  1.00  0.00    -0.182 OA 
HETATM    4  C   UNL     1      -8.531   6.234  65.272  1.00  0.00    -0.111 C  
ENDROOT
BRANCH   4   5
HETATM    5  S   UNL     1      -8.044   4.783  66.292  1.00  0.00    -0.107 SA 
BRANCH   5   6
HETATM    6  C   UNL     1      -9.544   4.625  67.311  1.00  0.00    -0.175 C  
BRANCH   6   7
HETATM    7  C   UNL     1      -9.219   4.875  68.769  1.00  0.00    -0.119 C  
HETATM    8  O   UNL     1      -8.060   4.956  69.169  1.00  0.00    -0.078 OA 
HETATM    9  N   UNL     1     -10.320   5.049  69.587  1.00  0.00    -0.246 N  
HETATM   10  H   UNL     1     -11.256   4.915  69.205  1.00  0.00     0.000 HD 
BRANCH   9  11
HETATM   11  C   UNL     1     -10.164   5.422  70.991  1.00  0.00    -0.229 C  
HETATM   12  C   UNL     1     -11.096   6.532  71.468  1.00  0.00    -0.310 C  
HETATM   13  C   UNL     1     -11.159   6.474  72.984  1.00  0.00    -0.198 C  
HETATM   14  S   UNL     1     -11.170   4.712  73.404  1.00  0.00    -0.300 SA 
HETATM   15  C   UNL     1     -10.350   4.231  71.925  1.00  0.00    -0.070 C  
HETATM   16  O   UNL     1      -9.934   3.099  71.722  1.00  0.00    -0.170 OA 
ENDBRANCH   9  11
ENDBRANCH   6   7
ENDBRANCH   5   6
ENDBRANCH   4   5
TORSDOF 4
ENDMDL
MODEL      287
REMARK 921   NORMALIZED FREE ENERGY PREDICTED BY IDOCK:   -2.13 KCAL/MOL
REMARK 922        TOTAL FREE ENERGY PREDICTED BY IDOCK:   -2.95 KCAL/MOL
REMARK 923 INTER-LIGAND FREE ENERGY PREDICTED BY IDOCK:   -2.46 KCAL/MOL
REMARK 924 INTRA-LIGAND FREE ENERGY PREDICTED BY IDOCK:   -0.50 KCAL/MOL
REMARK 927      BINDING AFFINITY PREDICTED BY RF-SCORE:    0.00 PKD
ROOT
HETATM    1  O   UNL     1      -9.038   7.995  66.417  1.00  0.00    -0.164 OA 
HETATM    2  C   UNL     1     -10.269   7.952  66.985  1.00  0.00    -0.312 C  
HETATM    3  O   UNL     1     -10.830   8.964  67.383  1.00  0.00    -0.218 OA 
HETATM    4  C   UNL     1     -10.905   6.577  67.010  1.00  0.00    -0.395 C  
ENDROOT
BRANCH   4   5
HETATM    5  S   UNL     1      -9.633   5.249  67.021  1.00  0.00    -0.155 SA 
BRANCH   5   6
HETATM    6  C   UNL     1     -10.030   4.475  68.620  1.00  0.00    -0.041 C  
BRANCH   6   7
HETATM    7  C   UNL     1      -9.931   5.492  69.737  1.00  0.00    -0.212 C  
HETATM    8  O   UNL     1     -10.844   5.660  70.542  1.00  0.00    -0.283 OA 
HETATM    9  N   UNL     1      -8.725   6.166  69.803  1.00  0.00    -0.134 N  
HETATM   10  H   UNL     1      -8.028   6.021  69.073  1.00  0.00     0.000 HD 
BRANCH   9  11
HETATM   11  C   UNL     1      -8.435   7.085  70.902  1.00  0.00    -0.134 C  
HETATM   12  C   UNL     1      -7.762   6.445  72.112  1.00  0.00    -0.099 C  
HETATM   13  C   UNL     1      -7.110   7.548  72.926  1.00  0.00    -0.072 C  
HETATM   14  S   UNL     1      -6.422   8.706  71.713  1.00  0.00    -0.073 SA 
HETATM   15  C   UNL     1      -7.564   8.255  70.456  1.00  0.00    -0.076 C  
HETATM   16  O   UNL     1      -7.675   8.857  69.397  1.00  0.00    -0.088 OA 
ENDBRANCH   9  11
ENDBRANCH   6   7
ENDBRANCH   5   6
ENDBRANCH   4   5
TORSDOF 4
ENDMDL
MODEL      288
REMARK 921   NORMALIZED FREE ENERGY PREDICTED BY IDOCK:   -2.09 KCAL/MOL
REMARK 922        TOTAL FREE ENERGY PREDICTED BY IDOCK:   -2.90 KCAL/MOL
REMARK 923 INTER-LIGAND FREE ENERGY PREDICTED BY IDOCK:   -2.58 KCAL/MOL
REMARK 924 INTRA-LIGAND FREE ENERGY PREDICTED BY IDOCK:   -0.31 KCAL/MOL
REMARK 927      BINDING AFFINITY PREDICTED BY RF-SCORE:    0.00 PKD
ROOT
HETATM    1  O   UNL     1      -9.049   9.459  70.940  1.00  0.00    -0.236 OA 
HETATM    2  C   UNL     1     -10.098   9.388  70.083  1.00  0.00    -0.233 C  
HETATM    3  O   UNL     1     -10.555  10.386  69.542  1.00  0.00    -0.217 OA 
HETATM    4  C   UNL     1     -10.590   7.983  69.801  1.00  0.00    -0.238 C  
ENDROOT
BRANCH   4   5
HETATM    5  S   UNL     1     -10.228   6.852  71.205  1.00  0.00    -0.197 SA 
BRANCH   5   6
HETATM    6  C   UNL     1      -8.727   6.052  70.558  1.00  0.00    -0.138 C  
BRANCH   6   7
HETATM    7  C   UNL     1      -9.091   4.997  69.534  1.00  0.00    -0.109 C  
HETATM    8  O   UNL     1      -9.757   4.008  69.833  1.00  0.00    -0.203 OA 
HETATM    9  N   UNL     1      -8.659   5.263  68.248  1.00  0.00    -0.099 N  
HETATM   10  H   UNL     1      -8.064   6.072  68.076  1.00  0.00     0.000 HD 
BRANCH   9  11
HETATM   11  C   UNL     1      -9.043   4.401  67.132  1.00  0.00    -0.131 C  
HETATM   12  C   UNL     1     -10.318   4.820  66.407  1.00  0.00    -0.312 C  
HETATM   13  C   UNL     1     -10.322   4.157  65.041  1.00  0.00    -0.192 C  
HETATM   14  S   UNL     1      -8.605   4.220  64.464  1.00  0.00    -0.132 SA 
HETATM   15  C   UNL     1      -7.935   4.288  66.089  1.00  0.00    -0.098 C  
HETATM   16  O   UNL     1      -6.741   4.188  66.331  1.00  0.00    -0.048 OA 
ENDBRANCH   9  11
ENDBRANCH   6   7
ENDBRANCH   5   6
ENDBRANCH   4   5
TORSDOF 4
ENDMDL
MODEL      289
REMARK 921   NORMALIZED FREE ENERGY PREDICTED BY IDOCK:   -2.08 KCAL/MOL
REMARK 922        TOTAL FREE ENERGY PREDICTED BY IDOCK:   -2.89 KCAL/MOL
REMARK 923 INTER-LIGAND FREE ENERGY PREDICTED BY IDOCK:   -2.27 KCAL/MOL
REMARK 924 INTRA-LIGAND FREE ENERGY PREDICTED BY IDOCK:   -0.61 KCAL/MOL
REMARK 927      BINDING AFFINITY PREDICTED BY RF-SCORE:    0.00 PKD
ROOT
HETATM    1  O   UNL     1     -10.612   7.198  70.907  1.00  0.00    -0.217 OA 
HETATM    2  C   UNL     1     -11.457   6.488  71.695  1.00  0.00    -0.297 C  
HETATM    3  O   UNL     1     -12.632   6.805  71.828  1.00  0.00    -0.357 OA 
HETATM    4  C   UNL     1     -10.848   5.250  72.321  1.00  0.00    -0.207 C  
ENDROOT
BRANCH   4   5
HETATM    5  S   UNL     1      -9.029   5.427  72.525  1.00  0.00    -0.133 SA 
BRANCH   5   6
HETATM    6  C   UNL     1      -8.486   3.949  71.611  1.00  0.00    -0.085 C  
BRANCH   6   7
HETATM    7  C   UNL     1      -8.942   4.023  70.169  1.00  0.00    -0.096 C  
HETATM    8  O   UNL     1      -9.652   3.154  69.670  1.00  0.00    -0.149 OA 
HETATM    9  N   UNL     1      -8.538   5.158  69.491  1.00  0.00    -0.092 N  
HETATM   10  H   UNL     1      -7.904   5.815  69.944  1.00  0.00     0.000 HD 
BRANCH   9  11
HETATM   11  C   UNL     1      -9.005   5.430  68.133  1.00  0.00    -0.108 C  
HETATM   12  C   UNL     1      -9.521   6.847  67.903  1.00  0.00    -0.120 C  
HETATM   13  C   UNL     1      -9.511   7.115  66.409  1.00  0.00    -0.123 C  
HETATM   14  S   UNL     1      -8.000   6.332  65.784  1.00  0.00    -0.123 SA 
HETATM   15  C   UNL     1      -7.925   5.158  67.090  1.00  0.00    -0.100 C  
HETATM   16  O   UNL     1      -7.145   4.216  67.107  1.00  0.00    -0.064 OA 
ENDBRANCH   9  11
ENDBRANCH   6   7
ENDBRANCH   5   6
ENDBRANCH   4   5
TORSDOF 4
ENDMDL
MODEL      290
REMARK 921   NORMALIZED FREE ENERGY PREDICTED BY IDOCK:   -2.07 KCAL/MOL
REMARK 922        TOTAL FREE ENERGY PREDICTED BY IDOCK:   -2.87 KCAL/MOL
REMARK 923 INTER-LIGAND FREE ENERGY PREDICTED BY IDOCK:   -3.10 KCAL/MOL
REMARK 924 INTRA-LIGAND FREE ENERGY PREDICTED BY IDOCK:    0.23 KCAL/MOL
REMARK 927      BINDING AFFINITY PREDICTED BY RF-SCORE:    0.00 PKD
ROOT
HETATM    1  O   UNL     1     -10.598  12.274  68.992  1.00  0.00    -0.175 OA 
HETATM    2  C   UNL     1     -11.564  12.236  69.944  1.00  0.00    -0.203 C  
HETATM    3  O   UNL     1     -11.957  13.252  70.502  1.00  0.00    -0.325 OA 
HETATM    4  C   UNL     1     -12.154  10.862  70.192  1.00  0.00    -0.349 C  
ENDROOT
BRANCH   4   5
HETATM    5  S   UNL     1     -10.953   9.532  69.779  1.00  0.00    -0.197 SA 
BRANCH   5   6
HETATM    6  C   UNL     1     -11.597   8.212  70.854  1.00  0.00    -0.267 C  
BRANCH   6   7
HETATM    7  C   UNL     1     -10.457   7.451  71.496  1.00  0.00    -0.201 C  
HETATM    8  O   UNL     1      -9.427   7.188  70.880  1.00  0.00    -0.160 OA 
HETATM    9  N   UNL     1     -10.651   7.128  72.826  1.00  0.00    -0.244 N  
HETATM   10  H   UNL     1     -11.550   7.326  73.265  1.00  0.00     0.000 HD 
BRANCH   9  11
HETATM   11  C   UNL     1      -9.588   6.506  73.613  1.00  0.00    -0.175 C  
HETATM   12  C   UNL     1      -9.108   5.155  73.089  1.00  0.00    -0.127 C  
HETATM   13  C   UNL     1      -7.742   4.878  73.688  1.00  0.00    -0.095 C  
HETATM   14  S   UNL     1      -6.881   6.472  73.699  1.00  0.00    -0.077 SA 
HETATM   15  C   UNL     1      -8.367   7.410  73.743  1.00  0.00    -0.158 C  
HETATM   16  O   UNL     1      -8.397   8.620  73.923  1.00  0.00    -0.349 OA 
ENDBRANCH   9  11
ENDBRANCH   6   7
ENDBRANCH   5   6
ENDBRANCH   4   5
TORSDOF 4
ENDMDL
MODEL      291
REMARK 921   NORMALIZED FREE ENERGY PREDICTED BY IDOCK:   -2.04 KCAL/MOL
REMARK 922        TOTAL FREE ENERGY PREDICTED BY IDOCK:   -2.84 KCAL/MOL
REMARK 923 INTER-LIGAND FREE ENERGY PREDICTED BY IDOCK:   -2.67 KCAL/MOL
REMARK 924 INTRA-LIGAND FREE ENERGY PREDICTED BY IDOCK:   -0.17 KCAL/MOL
REMARK 927      BINDING AFFINITY PREDICTED BY RF-SCORE:    0.00 PKD
ROOT
HETATM    1  O   UNL     1      -9.649   7.978  70.700  1.00  0.00    -0.165 OA 
HETATM    2  C   UNL     1      -9.706   8.281  72.021  1.00  0.00    -0.252 C  
HETATM    3  O   UNL     1      -8.737   8.729  72.620  1.00  0.00    -0.408 OA 
HETATM    4  C   UNL     1     -11.069   8.091  72.655  1.00  0.00    -0.387 C  
ENDROOT
BRANCH   4   5
HETATM    5  S   UNL     1     -12.048   6.812  71.769  1.00  0.00    -0.354 SA 
BRANCH   5   6
HETATM    6  C   UNL     1     -11.638   5.365  72.796  1.00  0.00    -0.226 C  
BRANCH   6   7
HETATM    7  C   UNL     1     -10.221   4.907  72.520  1.00  0.00    -0.195 C  
HETATM    8  O   UNL     1      -9.471   4.547  73.424  1.00  0.00    -0.118 OA 
HETATM    9  N   UNL     1      -9.869   4.884  71.183  1.00  0.00    -0.181 N  
HETATM   10  H   UNL     1     -10.518   5.247  70.486  1.00  0.00     0.000 HD 
BRANCH   9  11
HETATM   11  C   UNL     1      -8.580   4.346  70.754  1.00  0.00    -0.091 C  
HETATM   12  C   UNL     1      -7.362   5.020  71.380  1.00  0.00    -0.077 C  
HETATM   13  C   UNL     1      -6.177   4.084  71.228  1.00  0.00    -0.015 C  
HETATM   14  S   UNL     1      -6.832   2.418  71.509  1.00  0.00    -0.031 SA 
HETATM   15  C   UNL     1      -8.466   2.848  71.022  1.00  0.00    -0.062 C  
HETATM   16  O   UNL     1      -9.360   2.030  70.860  1.00  0.00    -0.107 OA 
ENDBRANCH   9  11
ENDBRANCH   6   7
ENDBRANCH   5   6
ENDBRANCH   4   5
TORSDOF 4
ENDMDL
MODEL      292
REMARK 921   NORMALIZED FREE ENERGY PREDICTED BY IDOCK:   -2.04 KCAL/MOL
REMARK 922        TOTAL FREE ENERGY PREDICTED BY IDOCK:   -2.83 KCAL/MOL
REMARK 923 INTER-LIGAND FREE ENERGY PREDICTED BY IDOCK:   -2.57 KCAL/MOL
REMARK 924 INTRA-LIGAND FREE ENERGY PREDICTED BY IDOCK:   -0.26 KCAL/MOL
REMARK 927      BINDING AFFINITY PREDICTED BY RF-SCORE:    0.00 PKD
ROOT
HETATM    1  O   UNL     1      -8.031  13.868  68.761  1.00  0.00    -0.129 OA 
HETATM    2  C   UNL     1      -7.024  13.558  67.907  1.00  0.00    -0.144 C  
HETATM    3  O   UNL     1      -6.405  14.422  67.301  1.00  0.00    -0.298 OA 
HETATM    4  C   UNL     1      -6.690  12.081  67.834  1.00  0.00    -0.080 C  
ENDROOT
BRANCH   4   5
HETATM    5  S   UNL     1      -8.148  11.042  68.251  1.00  0.00    -0.135 SA 
BRANCH   5   6
HETATM    6  C   UNL     1      -9.196  11.417  66.810  1.00  0.00    -0.177 C  
BRANCH   6   7
HETATM    7  C   UNL     1      -9.453  10.161  66.004  1.00  0.00    -0.197 C  
HETATM    8  O   UNL     1      -9.846  10.208  64.841  1.00  0.00    -0.307 OA 
HETATM    9  N   UNL     1      -9.164   8.980  66.662  1.00  0.00    -0.157 N  
HETATM   10  H   UNL     1      -8.893   9.006  67.645  1.00  0.00     0.000 HD 
BRANCH   9  11
HETATM   11  C   UNL     1      -9.241   7.694  65.971  1.00  0.00    -0.063 C  
HETATM   12  C   UNL     1      -7.896   7.019  65.720  1.00  0.00    -0.109 C  
HETATM   13  C   UNL     1      -8.152   5.547  65.452  1.00  0.00    -0.123 C  
HETATM   14  S   UNL     1      -9.478   5.068  66.591  1.00  0.00    -0.161 SA 
HETATM   15  C   UNL     1     -10.126   6.697  66.712  1.00  0.00    -0.175 C  
HETATM   16  O   UNL     1     -11.184   6.964  67.265  1.00  0.00    -0.317 OA 
ENDBRANCH   9  11
ENDBRANCH   6   7
ENDBRANCH   5   6
ENDBRANCH   4   5
TORSDOF 4
ENDMDL
MODEL      293
REMARK 921   NORMALIZED FREE ENERGY PREDICTED BY IDOCK:   -2.00 KCAL/MOL
REMARK 922        TOTAL FREE ENERGY PREDICTED BY IDOCK:   -2.79 KCAL/MOL
REMARK 923 INTER-LIGAND FREE ENERGY PREDICTED BY IDOCK:   -2.50 KCAL/MOL
REMARK 924 INTRA-LIGAND FREE ENERGY PREDICTED BY IDOCK:   -0.29 KCAL/MOL
REMARK 927      BINDING AFFINITY PREDICTED BY RF-SCORE:    0.00 PKD
ROOT
HETATM    1  O   UNL     1      -8.752  13.207  67.178  1.00  0.00    -0.205 OA 
HETATM    2  C   UNL     1     -10.054  13.098  66.811  1.00  0.00    -0.253 C  
HETATM    3  O   UNL     1     -10.781  14.078  66.724  1.00  0.00    -0.282 OA 
HETATM    4  C   UNL     1     -10.494  11.694  66.450  1.00  0.00    -0.244 C  
ENDROOT
BRANCH   4   5
HETATM    5  S   UNL     1      -9.479  10.430  67.318  1.00  0.00    -0.155 SA 
BRANCH   5   6
HETATM    6  C   UNL     1     -10.781   9.215  67.693  1.00  0.00    -0.189 C  
BRANCH   6   7
HETATM    7  C   UNL     1     -10.293   7.811  67.405  1.00  0.00    -0.284 C  
HETATM    8  O   UNL     1     -10.995   6.826  67.618  1.00  0.00    -0.273 OA 
HETATM    9  N   UNL     1      -9.031   7.739  66.844  1.00  0.00    -0.128 N  
HETATM   10  H   UNL     1      -8.478   8.590  66.743  1.00  0.00     0.000 HD 
BRANCH   9  11
HETATM   11  C   UNL     1      -8.478   6.463  66.395  1.00  0.00    -0.123 C  
HETATM   12  C   UNL     1      -8.081   6.419  64.922  1.00  0.00    -0.120 C  
HETATM   13  C   UNL     1      -7.120   5.260  64.730  1.00  0.00    -0.057 C  
HETATM   14  S   UNL     1      -6.061   5.255  66.200  1.00  0.00    -0.031 SA 
HETATM   15  C   UNL     1      -7.260   6.047  67.213  1.00  0.00    -0.076 C  
HETATM   16  O   UNL     1      -7.142   6.176  68.424  1.00  0.00    -0.077 OA 
ENDBRANCH   9  11
ENDBRANCH   6   7
ENDBRANCH   5   6
ENDBRANCH   4   5
TORSDOF 4
ENDMDL
MODEL      294
REMARK 921   NORMALIZED FREE ENERGY PREDICTED BY IDOCK:   -1.99 KCAL/MOL
REMARK 922        TOTAL FREE ENERGY PREDICTED BY IDOCK:   -2.78 KCAL/MOL
REMARK 923 INTER-LIGAND FREE ENERGY PREDICTED BY IDOCK:   -2.59 KCAL/MOL
REMARK 924 INTRA-LIGAND FREE ENERGY PREDICTED BY IDOCK:   -0.19 KCAL/MOL
REMARK 927      BINDING AFFINITY PREDICTED BY RF-SCORE:    0.00 PKD
ROOT
HETATM    1  O   UNL     1      -8.875   5.863  67.687  1.00  0.00    -0.109 OA 
HETATM    2  C   UNL     1      -9.006   4.758  68.463  1.00  0.00    -0.111 C  
HETATM    3  O   UNL     1      -8.381   3.732  68.232  1.00  0.00    -0.088 OA 
HETATM    4  C   UNL     1      -9.916   4.933  69.662  1.00  0.00    -0.231 C  
ENDROOT
BRANCH   4   5
HETATM    5  S   UNL     1     -11.184   6.229  69.358  1.00  0.00    -0.365 SA 
BRANCH   5   6
HETATM    6  C   UNL     1     -10.546   7.528  70.463  1.00  0.00    -0.225 C  
BRANCH   6   7
HETATM    7  C   UNL     1      -9.911   8.642  69.657  1.00  0.00    -0.191 C  
HETATM    8  O   UNL     1     -10.454   9.736  69.528  1.00  0.00    -0.204 OA 
HETATM    9  N   UNL     1      -8.668   8.342  69.132  1.00  0.00    -0.142 N  
HETATM   10  H   UNL     1      -8.297   7.397  69.229  1.00  0.00     0.000 HD 
BRANCH   9  11
HETATM   11  C   UNL     1      -7.879   9.358  68.439  1.00  0.00    -0.090 C  
HETATM   12  C   UNL     1      -8.571  10.003  67.242  1.00  0.00    -0.125 C  
HETATM   13  C   UNL     1      -7.866  11.312  66.940  1.00  0.00    -0.156 C  
HETATM   14  S   UNL     1      -7.465  12.033  68.554  1.00  0.00    -0.115 SA 
HETATM   15  C   UNL     1      -7.439  10.479  69.376  1.00  0.00    -0.141 C  
HETATM   16  O   UNL     1      -7.053  10.330  70.526  1.00  0.00    -0.298 OA 
ENDBRANCH   9  11
ENDBRANCH   6   7
ENDBRANCH   5   6
ENDBRANCH   4   5
TORSDOF 4
ENDMDL
MODEL      295
REMARK 921   NORMALIZED FREE ENERGY PREDICTED BY IDOCK:   -1.99 KCAL/MOL
REMARK 922        TOTAL FREE ENERGY PREDICTED BY IDOCK:   -2.77 KCAL/MOL
REMARK 923 INTER-LIGAND FREE ENERGY PREDICTED BY IDOCK:   -2.93 KCAL/MOL
REMARK 924 INTRA-LIGAND FREE ENERGY PREDICTED BY IDOCK:    0.15 KCAL/MOL
REMARK 927      BINDING AFFINITY PREDICTED BY RF-SCORE:    0.00 PKD
ROOT
HETATM    1  O   UNL     1      -7.426   7.206  67.625  1.00  0.00    -0.096 OA 
HETATM    2  C   UNL     1      -8.705   7.133  68.070  1.00  0.00    -0.127 C  
HETATM    3  O   UNL     1      -9.187   6.084  68.474  1.00  0.00    -0.116 OA 
HETATM    4  C   UNL     1      -9.442   8.457  68.093  1.00  0.00    -0.138 C  
ENDROOT
BRANCH   4   5
HETATM    5  S   UNL     1      -8.771   9.621  66.839  1.00  0.00    -0.131 SA 
BRANCH   5   6
HETATM    6  C   UNL     1      -8.165  10.931  67.948  1.00  0.00    -0.114 C  
BRANCH   6   7
HETATM    7  C   UNL     1      -8.752  12.270  67.555  1.00  0.00    -0.177 C  
HETATM    8  O   UNL     1      -8.050  13.269  67.419  1.00  0.00    -0.169 OA 
HETATM    9  N   UNL     1     -10.114  12.258  67.318  1.00  0.00    -0.203 N  
HETATM   10  H   UNL     1     -10.649  11.410  67.501  1.00  0.00     0.000 HD 
BRANCH   9  11
HETATM   11  C   UNL     1     -10.800  13.444  66.808  1.00  0.00    -0.282 C  
HETATM   12  C   UNL     1     -10.614  14.704  67.650  1.00  0.00    -0.256 C  
HETATM   13  C   UNL     1     -10.955  15.902  66.783  1.00  0.00    -0.151 C  
HETATM   14  S   UNL     1     -10.297  15.518  65.139  1.00  0.00    -0.291 SA 
HETATM   15  C   UNL     1     -10.382  13.779  65.380  1.00  0.00    -0.333 C  
HETATM   16  O   UNL     1     -10.192  12.964  64.488  1.00  0.00    -0.345 OA 
ENDBRANCH   9  11
ENDBRANCH   6   7
ENDBRANCH   5   6
ENDBRANCH   4   5
TORSDOF 4
ENDMDL
MODEL      296
REMARK 921   NORMALIZED FREE ENERGY PREDICTED BY IDOCK:   -1.88 KCAL/MOL
REMARK 922        TOTAL FREE ENERGY PREDICTED BY IDOCK:   -2.64 KCAL/MOL
REMARK 923 INTER-LIGAND FREE ENERGY PREDICTED BY IDOCK:   -2.85 KCAL/MOL
REMARK 924 INTRA-LIGAND FREE ENERGY PREDICTED BY IDOCK:    0.21 KCAL/MOL
REMARK 927      BINDING AFFINITY PREDICTED BY RF-SCORE:    0.00 PKD
ROOT
HETATM    1  O   UNL     1      -7.835   6.517  67.443  1.00  0.00    -0.109 OA 
HETATM    2  C   UNL     1      -9.145   6.582  67.791  1.00  0.00    -0.112 C  
HETATM    3  O   UNL     1      -9.780   5.582  68.097  1.00  0.00    -0.121 OA 
HETATM    4  C   UNL     1      -9.716   7.984  67.841  1.00  0.00    -0.160 C  
ENDROOT
BRANCH   4   5
HETATM    5  S   UNL     1      -8.813   9.117  66.708  1.00  0.00    -0.130 SA 
BRANCH   5   6
HETATM    6  C   UNL     1      -8.198  10.321  67.927  1.00  0.00    -0.109 C  
BRANCH   6   7
HETATM    7  C   UNL     1      -8.647  11.720  67.559  1.00  0.00    -0.157 C  
HETATM    8  O   UNL     1      -9.259  11.950  66.519  1.00  0.00    -0.205 OA 
HETATM    9  N   UNL     1      -8.356  12.689  68.502  1.00  0.00    -0.311 N  
HETATM   10  H   UNL     1      -7.797  12.443  69.319  1.00  0.00     0.000 HD 
BRANCH   9  11
HETATM   11  C   UNL     1      -8.837  14.060  68.346  1.00  0.00    -0.180 C  
HETATM   12  C   UNL     1      -8.456  14.727  67.027  1.00  0.00    -0.250 C  
HETATM   13  C   UNL     1      -9.389  15.904  66.810  1.00  0.00    -0.240 C  
HETATM   14  S   UNL     1     -11.017  15.348  67.381  1.00  0.00    -0.297 SA 
HETATM   15  C   UNL     1     -10.353  14.155  68.489  1.00  0.00    -0.249 C  
HETATM   16  O   UNL     1     -11.028  13.542  69.305  1.00  0.00    -0.216 OA 
ENDBRANCH   9  11
ENDBRANCH   6   7
ENDBRANCH   5   6
ENDBRANCH   4   5
TORSDOF 4
ENDMDL
MODEL      297
REMARK 921   NORMALIZED FREE ENERGY PREDICTED BY IDOCK:   -1.80 KCAL/MOL
REMARK 922        TOTAL FREE ENERGY PREDICTED BY IDOCK:   -2.54 KCAL/MOL
REMARK 923 INTER-LIGAND FREE ENERGY PREDICTED BY IDOCK:   -2.34 KCAL/MOL
REMARK 924 INTRA-LIGAND FREE ENERGY PREDICTED BY IDOCK:   -0.20 KCAL/MOL
REMARK 927      BINDING AFFINITY PREDICTED BY RF-SCORE:    0.00 PKD
ROOT
HETATM    1  O   UNL     1      -8.327   9.414  65.974  1.00  0.00    -0.116 OA 
HETATM    2  C   UNL     1      -8.755   9.339  67.259  1.00  0.00    -0.128 C  
HETATM    3  O   UNL     1      -9.607   8.532  67.607  1.00  0.00    -0.146 OA 
HETATM    4  C   UNL     1      -8.043  10.270  68.218  1.00  0.00    -0.107 C  
ENDROOT
BRANCH   4   5
HETATM    5  S   UNL     1      -7.395  11.757  67.352  1.00  0.00    -0.146 SA 
BRANCH   5   6
HETATM    6  C   UNL     1      -8.741  12.924  67.727  1.00  0.00    -0.188 C  
BRANCH   6   7
HETATM    7  C   UNL     1      -8.340  14.333  67.342  1.00  0.00    -0.198 C  
HETATM    8  O   UNL     1      -8.547  14.779  66.216  1.00  0.00    -0.054 OA 
HETATM    9  N   UNL     1      -7.778  15.076  68.364  1.00  0.00    -0.108 N  
HETATM   10  H   UNL     1      -7.583  14.630  69.260  1.00  0.00     0.000 HD 
BRANCH   9  11
HETATM   11  C   UNL     1      -7.458  16.489  68.179  1.00  0.00    -0.159 C  
HETATM   12  C   UNL     1      -8.606  17.451  68.471  1.00  0.00    -0.270 C  
HETATM   13  C   UNL     1      -8.016  18.831  68.701  1.00  0.00    -0.336 C  
HETATM   14  S   UNL     1      -6.487  18.558  69.635  1.00  0.00    -0.089 SA 
HETATM   15  C   UNL     1      -6.266  16.923  69.027  1.00  0.00    -0.187 C  
HETATM   16  O   UNL     1      -5.253  16.264  69.215  1.00  0.00    -0.110 OA 
ENDBRANCH   9  11
ENDBRANCH   6   7
ENDBRANCH   5   6
ENDBRANCH   4   5
TORSDOF 4
ENDMDL
MODEL      298
REMARK 921   NORMALIZED FREE ENERGY PREDICTED BY IDOCK:   -1.80 KCAL/MOL
REMARK 922        TOTAL FREE ENERGY PREDICTED BY IDOCK:   -2.54 KCAL/MOL
REMARK 923 INTER-LIGAND FREE ENERGY PREDICTED BY IDOCK:   -2.19 KCAL/MOL
REMARK 924 INTRA-LIGAND FREE ENERGY PREDICTED BY IDOCK:   -0.36 KCAL/MOL
REMARK 927      BINDING AFFINITY PREDICTED BY RF-SCORE:    0.00 PKD
ROOT
HETATM    1  O   UNL     1     -10.308   7.188  69.081  1.00  0.00    -0.188 OA 
HETATM    2  C   UNL     1     -10.987   6.519  70.046  1.00  0.00    -0.332 C  
HETATM    3  O   UNL     1     -12.071   6.910  70.458  1.00  0.00    -0.353 OA 
HETATM    4  C   UNL     1     -10.333   5.230  70.501  1.00  0.00    -0.266 C  
ENDROOT
BRANCH   4   5
HETATM    5  S   UNL     1      -8.511   5.282  70.263  1.00  0.00    -0.112 SA 
BRANCH   5   6
HETATM    6  C   UNL     1      -8.235   3.563  69.731  1.00  0.00    -0.052 C  
BRANCH   6   7
HETATM    7  C   UNL     1      -8.716   3.367  68.309  1.00  0.00    -0.103 C  
HETATM    8  O   UNL     1      -9.694   2.671  68.047  1.00  0.00    -0.129 OA 
HETATM    9  N   UNL     1      -8.002   4.067  67.353  1.00  0.00    -0.091 N  
HETATM   10  H   UNL     1      -7.168   4.583  67.629  1.00  0.00     0.000 HD 
BRANCH   9  11
HETATM   11  C   UNL     1      -8.426   4.077  65.955  1.00  0.00    -0.109 C  
HETATM   12  C   UNL     1      -8.282   5.423  65.250  1.00  0.00    -0.133 C  
HETATM   13  C   UNL     1      -8.294   5.173  63.753  1.00  0.00    -0.130 C  
HETATM   14  S   UNL     1      -7.350   3.646  63.506  1.00  0.00    -0.051 SA 
HETATM   15  C   UNL     1      -7.680   3.039  65.122  1.00  0.00    -0.081 C  
HETATM   16  O   UNL     1      -7.398   1.906  65.489  1.00  0.00    -0.055 OA 
ENDBRANCH   9  11
ENDBRANCH   6   7
ENDBRANCH   5   6
ENDBRANCH   4   5
TORSDOF 4
ENDMDL
MODEL      299
REMARK 921   NORMALIZED FREE ENERGY PREDICTED BY IDOCK:   -1.80 KCAL/MOL
REMARK 922        TOTAL FREE ENERGY PREDICTED BY IDOCK:   -2.54 KCAL/MOL
REMARK 923 INTER-LIGAND FREE ENERGY PREDICTED BY IDOCK:   -2.74 KCAL/MOL
REMARK 924 INTRA-LIGAND FREE ENERGY PREDICTED BY IDOCK:    0.20 KCAL/MOL
REMARK 927      BINDING AFFINITY PREDICTED BY RF-SCORE:    0.00 PKD
ROOT
HETATM    1  O   UNL     1     -11.048  13.386  68.183  1.00  0.00    -0.240 OA 
HETATM    2  C   UNL     1      -9.717  13.392  67.920  1.00  0.00    -0.226 C  
HETATM    3  O   UNL     1      -9.159  14.375  67.451  1.00  0.00    -0.183 OA 
HETATM    4  C   UNL     1      -8.987  12.128  68.324  1.00  0.00    -0.186 C  
ENDROOT
BRANCH   4   5
HETATM    5  S   UNL     1     -10.111  10.672  68.314  1.00  0.00    -0.165 SA 
BRANCH   5   6
HETATM    6  C   UNL     1      -9.731  10.020  66.658  1.00  0.00    -0.194 C  
BRANCH   6   7
HETATM    7  C   UNL     1      -9.193   8.607  66.758  1.00  0.00    -0.169 C  
HETATM    8  O   UNL     1      -8.182   8.345  67.405  1.00  0.00    -0.118 OA 
HETATM    9  N   UNL     1      -9.953   7.650  66.112  1.00  0.00    -0.440 N  
HETATM   10  H   UNL     1     -10.751   7.940  65.547  1.00  0.00     0.000 HD 
BRANCH   9  11
HETATM   11  C   UNL     1      -9.630   6.230  66.225  1.00  0.00    -0.075 C  
HETATM   12  C   UNL     1      -8.194   5.867  65.858  1.00  0.00    -0.127 C  
HETATM   13  C   UNL     1      -7.883   4.510  66.464  1.00  0.00    -0.099 C  
HETATM   14  S   UNL     1      -8.684   4.507  68.090  1.00  0.00    -0.106 SA 
HETATM   15  C   UNL     1      -9.898   5.692  67.628  1.00  0.00    -0.135 C  
HETATM   16  O   UNL     1     -10.858   5.982  68.326  1.00  0.00    -0.275 OA 
ENDBRANCH   9  11
ENDBRANCH   6   7
ENDBRANCH   5   6
ENDBRANCH   4   5
TORSDOF 4
ENDMDL
MODEL      300
REMARK 921   NORMALIZED FREE ENERGY PREDICTED BY IDOCK:   -1.75 KCAL/MOL
REMARK 922        TOTAL FREE ENERGY PREDICTED BY IDOCK:   -2.48 KCAL/MOL
REMARK 923 INTER-LIGAND FREE ENERGY PREDICTED BY IDOCK:   -2.70 KCAL/MOL
REMARK 924 INTRA-LIGAND FREE ENERGY PREDICTED BY IDOCK:    0.21 KCAL/MOL
REMARK 927      BINDING AFFINITY PREDICTED BY RF-SCORE:    0.00 PKD
ROOT
HETATM    1  O   UNL     1     -10.879  11.556  64.818  1.00  0.00    -0.305 OA 
HETATM    2  C   UNL     1      -9.891  10.671  64.532  1.00  0.00    -0.327 C  
HETATM    3  O   UNL     1      -9.624  10.356  63.380  1.00  0.00    -0.299 OA 
HETATM    4  C   UNL     1      -9.114  10.180  65.737  1.00  0.00    -0.171 C  
ENDROOT
BRANCH   4   5
HETATM    5  S   UNL     1     -10.135  10.244  67.265  1.00  0.00    -0.214 SA 
BRANCH   5   6
HETATM    6  C   UNL     1     -10.830   8.562  67.223  1.00  0.00    -0.006 C  
BRANCH   6   7
HETATM    7  C   UNL     1     -10.433   7.796  68.468  1.00  0.00    -0.168 C  
HETATM    8  O   UNL     1     -11.019   6.773  68.812  1.00  0.00    -0.239 OA 
HETATM    9  N   UNL     1      -9.342   8.312  69.143  1.00  0.00    -0.151 N  
HETATM   10  H   UNL     1      -8.933   9.194  68.837  1.00  0.00     0.000 HD 
BRANCH   9  11
HETATM   11  C   UNL     1      -8.765   7.610  70.288  1.00  0.00    -0.144 C  
HETATM   12  C   UNL     1      -9.666   7.542  71.518  1.00  0.00    -0.184 C  
HETATM   13  C   UNL     1      -9.160   6.421  72.408  1.00  0.00    -0.137 C  
HETATM   14  S   UNL     1      -8.658   5.092  71.282  1.00  0.00    -0.128 SA 
HETATM   15  C   UNL     1      -8.353   6.184  69.939  1.00  0.00    -0.128 C  
HETATM   16  O   UNL     1      -7.817   5.837  68.895  1.00  0.00    -0.094 OA 
ENDBRANCH   9  11
ENDBRANCH   6   7
ENDBRANCH   5   6
ENDBRANCH   4   5
TORSDOF 4
ENDMDL
MODEL      301
REMARK 921   NORMALIZED FREE ENERGY PREDICTED BY IDOCK:   -1.73 KCAL/MOL
REMARK 922        TOTAL FREE ENERGY PREDICTED BY IDOCK:   -2.46 KCAL/MOL
REMARK 923 INTER-LIGAND FREE ENERGY PREDICTED BY IDOCK:   -2.17 KCAL/MOL
REMARK 924 INTRA-LIGAND FREE ENERGY PREDICTED BY IDOCK:   -0.29 KCAL/MOL
REMARK 927      BINDING AFFINITY PREDICTED BY RF-SCORE:    0.00 PKD
ROOT
HETATM    1  O   UNL     1     -10.348  10.779  65.559  1.00  0.00    -0.265 OA 
HETATM    2  C   UNL     1      -9.587   9.711  65.905  1.00  0.00    -0.257 C  
HETATM    3  O   UNL     1      -9.543   8.702  65.215  1.00  0.00     0.092 OA 
HETATM    4  C   UNL     1      -8.753   9.908  67.155  1.00  0.00    -0.131 C  
ENDROOT
BRANCH   4   5
HETATM    5  S   UNL     1      -9.525  11.132  68.290  1.00  0.00    -0.188 SA 
BRANCH   5   6
HETATM    6  C   UNL     1     -10.220   9.990  69.524  1.00  0.00    -0.234 C  
BRANCH   6   7
HETATM    7  C   UNL     1      -9.218   8.907  69.865  1.00  0.00    -0.166 C  
HETATM    8  O   UNL     1      -8.105   9.173  70.313  1.00  0.00    -0.112 OA 
HETATM    9  N   UNL     1      -9.674   7.615  69.679  1.00  0.00    -0.170 N  
HETATM   10  H   UNL     1     -10.587   7.461  69.253  1.00  0.00     0.000 HD 
BRANCH   9  11
HETATM   11  C   UNL     1      -8.866   6.466  70.084  1.00  0.00    -0.150 C  
HETATM   12  C   UNL     1      -9.479   5.608  71.187  1.00  0.00    -0.191 C  
HETATM   13  C   UNL     1      -8.798   4.251  71.159  1.00  0.00    -0.110 C  
HETATM   14  S   UNL     1      -8.561   3.861  69.406  1.00  0.00    -0.078 SA 
HETATM   15  C   UNL     1      -8.548   5.547  68.908  1.00  0.00    -0.100 C  
HETATM   16  O   UNL     1      -8.254   5.916  67.780  1.00  0.00    -0.105 OA 
ENDBRANCH   9  11
ENDBRANCH   6   7
ENDBRANCH   5   6
ENDBRANCH   4   5
TORSDOF 4
ENDMDL
MODEL      302
REMARK 921   NORMALIZED FREE ENERGY PREDICTED BY IDOCK:   -1.73 KCAL/MOL
REMARK 922        TOTAL FREE ENERGY PREDICTED BY IDOCK:   -2.45 KCAL/MOL
REMARK 923 INTER-LIGAND FREE ENERGY PREDICTED BY IDOCK:   -2.24 KCAL/MOL
REMARK 924 INTRA-LIGAND FREE ENERGY PREDICTED BY IDOCK:   -0.22 KCAL/MOL
REMARK 927      BINDING AFFINITY PREDICTED BY RF-SCORE:    0.00 PKD
ROOT
HETATM    1  O   UNL     1      -8.364  12.484  68.352  1.00  0.00    -0.167 OA 
HETATM    2  C   UNL     1      -9.634  12.302  67.911  1.00  0.00    -0.203 C  
HETATM    3  O   UNL     1     -10.404  13.241  67.760  1.00  0.00    -0.226 OA 
HETATM    4  C   UNL     1      -9.980  10.870  67.555  1.00  0.00    -0.174 C  
ENDROOT
BRANCH   4   5
HETATM    5  S   UNL     1      -8.956   9.676  68.508  1.00  0.00    -0.125 SA 
BRANCH   5   6
HETATM    6  C   UNL     1      -9.847   8.140  68.106  1.00  0.00    -0.168 C  
BRANCH   6   7
HETATM    7  C   UNL     1      -8.930   7.171  67.390  1.00  0.00    -0.122 C  
HETATM    8  O   UNL     1      -8.152   6.444  68.003  1.00  0.00    -0.113 OA 
HETATM    9  N   UNL     1      -9.078   7.140  66.016  1.00  0.00    -0.322 N  
HETATM   10  H   UNL     1      -9.702   7.806  65.563  1.00  0.00     0.000 HD 
BRANCH   9  11
HETATM   11  C   UNL     1      -8.353   6.165  65.203  1.00  0.00    -0.129 C  
HETATM   12  C   UNL     1      -9.007   4.789  65.114  1.00  0.00    -0.152 C  
HETATM   13  C   UNL     1      -8.433   4.073  63.905  1.00  0.00    -0.096 C  
HETATM   14  S   UNL     1      -8.262   5.342  62.623  1.00  0.00    -0.109 SA 
HETATM   15  C   UNL     1      -8.129   6.661  63.778  1.00  0.00    -0.003 C  
HETATM   16  O   UNL     1      -7.830   7.805  63.465  1.00  0.00    -0.129 OA 
ENDBRANCH   9  11
ENDBRANCH   6   7
ENDBRANCH   5   6
ENDBRANCH   4   5
TORSDOF 4
ENDMDL
MODEL      303
REMARK 921   NORMALIZED FREE ENERGY PREDICTED BY IDOCK:   -1.57 KCAL/MOL
REMARK 922        TOTAL FREE ENERGY PREDICTED BY IDOCK:   -2.25 KCAL/MOL
REMARK 923 INTER-LIGAND FREE ENERGY PREDICTED BY IDOCK:   -2.55 KCAL/MOL
REMARK 924 INTRA-LIGAND FREE ENERGY PREDICTED BY IDOCK:    0.30 KCAL/MOL
REMARK 927      BINDING AFFINITY PREDICTED BY RF-SCORE:    0.00 PKD
ROOT
HETATM    1  O   UNL     1      -7.368  11.693  69.203  1.00  0.00    -0.102 OA 
HETATM    2  C   UNL     1      -7.544  12.127  67.930  1.00  0.00    -0.123 C  
HETATM    3  O   UNL     1      -7.069  13.185  67.540  1.00  0.00    -0.148 OA 
HETATM    4  C   UNL     1      -8.298  11.166  67.033  1.00  0.00    -0.144 C  
ENDROOT
BRANCH   4   5
HETATM    5  S   UNL     1      -9.433  10.093  68.004  1.00  0.00    -0.146 SA 
BRANCH   5   6
HETATM    6  C   UNL     1     -10.264   9.230  66.633  1.00  0.00    -0.253 C  
BRANCH   6   7
HETATM    7  C   UNL     1     -10.119   7.731  66.788  1.00  0.00    -0.270 C  
HETATM    8  O   UNL     1     -11.095   6.998  66.929  1.00  0.00    -0.359 OA 
HETATM    9  N   UNL     1      -8.820   7.263  66.708  1.00  0.00    -0.128 N  
HETATM   10  H   UNL     1      -8.050   7.927  66.646  1.00  0.00     0.000 HD 
BRANCH   9  11
HETATM   11  C   UNL     1      -8.536   5.829  66.713  1.00  0.00    -0.112 C  
HETATM   12  C   UNL     1      -9.352   5.016  67.714  1.00  0.00    -0.146 C  
HETATM   13  C   UNL     1      -9.307   3.561  67.285  1.00  0.00    -0.205 C  
HETATM   14  S   UNL     1      -9.408   3.583  65.476  1.00  0.00    -0.146 SA 
HETATM   15  C   UNL     1      -8.735   5.201  65.338  1.00  0.00    -0.149 C  
HETATM   16  O   UNL     1      -8.413   5.710  64.273  1.00  0.00    -0.122 OA 
ENDBRANCH   9  11
ENDBRANCH   6   7
ENDBRANCH   5   6
ENDBRANCH   4   5
TORSDOF 4
ENDMDL
MODEL      304
REMARK 921   NORMALIZED FREE ENERGY PREDICTED BY IDOCK:   -1.53 KCAL/MOL
REMARK 922        TOTAL FREE ENERGY PREDICTED BY IDOCK:   -2.21 KCAL/MOL
REMARK 923 INTER-LIGAND FREE ENERGY PREDICTED BY IDOCK:   -1.93 KCAL/MOL
REMARK 924 INTRA-LIGAND FREE ENERGY PREDICTED BY IDOCK:   -0.28 KCAL/MOL
REMARK 927      BINDING AFFINITY PREDICTED BY RF-SCORE:    0.00 PKD
ROOT
HETATM    1  O   UNL     1      -8.891   6.785  66.036  1.00  0.00    -0.153 OA 
HETATM    2  C   UNL     1      -7.849   7.152  65.249  1.00  0.00    -0.121 C  
HETATM    3  O   UNL     1      -8.005   7.454  64.074  1.00  0.00    -0.136 OA 
HETATM    4  C   UNL     1      -6.514   7.227  65.963  1.00  0.00    -0.045 C  
ENDROOT
BRANCH   4   5
HETATM    5  S   UNL     1      -6.464   6.096  67.412  1.00  0.00    -0.048 SA 
BRANCH   5   6
HETATM    6  C   UNL     1      -5.506   7.134  68.560  1.00  0.00    -0.021 C  
BRANCH   6   7
HETATM    7  C   UNL     1      -6.370   7.570  69.724  1.00  0.00    -0.031 C  
HETATM    8  O   UNL     1      -5.929   7.634  70.869  1.00  0.00    -0.034 OA 
HETATM    9  N   UNL     1      -7.661   7.932  69.384  1.00  0.00    -0.100 N  
HETATM   10  H   UNL     1      -7.982   7.805  68.425  1.00  0.00     0.000 HD 
BRANCH   9  11
HETATM   11  C   UNL     1      -8.572   8.494  70.379  1.00  0.00    -0.143 C  
HETATM   12  C   UNL     1      -9.585   9.495  69.830  1.00  0.00    -0.235 C  
HETATM   13  C   UNL     1     -10.718   9.614  70.832  1.00  0.00    -0.332 C  
HETATM   14  S   UNL     1     -10.993   7.936  71.459  1.00  0.00    -0.237 SA 
HETATM   15  C   UNL     1      -9.349   7.412  71.121  1.00  0.00    -0.155 C  
HETATM   16  O   UNL     1      -8.890   6.343  71.499  1.00  0.00    -0.137 OA 
ENDBRANCH   9  11
ENDBRANCH   6   7
ENDBRANCH   5   6
ENDBRANCH   4   5
TORSDOF 4
ENDMDL
MODEL      305
REMARK 921   NORMALIZED FREE ENERGY PREDICTED BY IDOCK:   -1.43 KCAL/MOL
REMARK 922        TOTAL FREE ENERGY PREDICTED BY IDOCK:   -2.09 KCAL/MOL
REMARK 923 INTER-LIGAND FREE ENERGY PREDICTED BY IDOCK:   -2.21 KCAL/MOL
REMARK 924 INTRA-LIGAND FREE ENERGY PREDICTED BY IDOCK:    0.12 KCAL/MOL
REMARK 927      BINDING AFFINITY PREDICTED BY RF-SCORE:    0.00 PKD
ROOT
HETATM    1  O   UNL     1      -7.404   7.809  65.646  1.00  0.00    -0.070 OA 
HETATM    2  C   UNL     1      -7.565   8.808  66.549  1.00  0.00    -0.095 C  
HETATM    3  O   UNL     1      -7.785   9.961  66.200  1.00  0.00    -0.102 OA 
HETATM    4  C   UNL     1      -7.527   8.364  67.997  1.00  0.00    -0.097 C  
ENDROOT
BRANCH   4   5
HETATM    5  S   UNL     1      -6.526   6.836  68.204  1.00  0.00    -0.055 SA 
BRANCH   5   6
HETATM    6  C   UNL     1      -7.869   5.644  68.500  1.00  0.00    -0.096 C  
BRANCH   6   7
HETATM    7  C   UNL     1      -8.412   5.799  69.905  1.00  0.00    -0.123 C  
HETATM    8  O   UNL     1      -7.747   5.497  70.893  1.00  0.00    -0.087 OA 
HETATM    9  N   UNL     1      -9.679   6.348  69.980  1.00  0.00    -0.164 N  
HETATM   10  H   UNL     1     -10.200   6.527  69.122  1.00  0.00     0.000 HD 
BRANCH   9  11
HETATM   11  C   UNL     1     -10.283   6.675  71.270  1.00  0.00    -0.200 C  
HETATM   12  C   UNL     1     -10.381   5.508  72.247  1.00  0.00    -0.257 C  
HETATM   13  C   UNL     1     -10.565   6.077  73.642  1.00  0.00    -0.264 C  
HETATM   14  S   UNL     1      -9.502   7.543  73.715  1.00  0.00    -0.230 SA 
HETATM   15  C   UNL     1      -9.545   7.808  71.977  1.00  0.00    -0.168 C  
HETATM   16  O   UNL     1      -9.096   8.808  71.435  1.00  0.00    -0.201 OA 
ENDBRANCH   9  11
ENDBRANCH   6   7
ENDBRANCH   5   6
ENDBRANCH   4   5
TORSDOF 4
ENDMDL
MODEL      306
REMARK 921   NORMALIZED FREE ENERGY PREDICTED BY IDOCK:   -1.41 KCAL/MOL
REMARK 922        TOTAL FREE ENERGY PREDICTED BY IDOCK:   -2.06 KCAL/MOL
REMARK 923 INTER-LIGAND FREE ENERGY PREDICTED BY IDOCK:   -2.28 KCAL/MOL
REMARK 924 INTRA-LIGAND FREE ENERGY PREDICTED BY IDOCK:    0.22 KCAL/MOL
REMARK 927      BINDING AFFINITY PREDICTED BY RF-SCORE:    0.00 PKD
ROOT
HETATM    1  O   UNL     1     -10.653   5.891  66.486  1.00  0.00    -0.243 OA 
HETATM    2  C   UNL     1     -10.106   4.717  66.888  1.00  0.00    -0.191 C  
HETATM    3  O   UNL     1      -9.973   3.773  66.120  1.00  0.00    -0.124 OA 
HETATM    4  C   UNL     1      -9.615   4.706  68.322  1.00  0.00    -0.149 C  
ENDROOT
BRANCH   4   5
HETATM    5  S   UNL     1     -10.545   5.907  69.358  1.00  0.00    -0.335 SA 
BRANCH   5   6
HETATM    6  C   UNL     1      -9.439   7.344  69.204  1.00  0.00    -0.149 C  
BRANCH   6   7
HETATM    7  C   UNL     1      -8.344   7.282  70.248  1.00  0.00    -0.135 C  
HETATM    8  O   UNL     1      -7.261   7.839  70.084  1.00  0.00    -0.060 OA 
HETATM    9  N   UNL     1      -8.681   6.598  71.402  1.00  0.00    -0.129 N  
HETATM   10  H   UNL     1      -9.575   6.111  71.454  1.00  0.00     0.000 HD 
BRANCH   9  11
HETATM   11  C   UNL     1      -7.774   6.562  72.547  1.00  0.00    -0.099 C  
HETATM   12  C   UNL     1      -6.397   5.972  72.257  1.00  0.00    -0.050 C  
HETATM   13  C   UNL     1      -5.450   6.428  73.353  1.00  0.00    -0.038 C  
HETATM   14  S   UNL     1      -5.907   8.145  73.709  1.00  0.00    -0.085 SA 
HETATM   15  C   UNL     1      -7.564   7.945  73.156  1.00  0.00    -0.129 C  
HETATM   16  O   UNL     1      -8.434   8.790  73.310  1.00  0.00    -0.366 OA 
ENDBRANCH   9  11
ENDBRANCH   6   7
ENDBRANCH   5   6
ENDBRANCH   4   5
TORSDOF 4
ENDMDL
MODEL      307
REMARK 921   NORMALIZED FREE ENERGY PREDICTED BY IDOCK:   -1.31 KCAL/MOL
REMARK 922        TOTAL FREE ENERGY PREDICTED BY IDOCK:   -1.93 KCAL/MOL
REMARK 923 INTER-LIGAND FREE ENERGY PREDICTED BY IDOCK:   -2.18 KCAL/MOL
REMARK 924 INTRA-LIGAND FREE ENERGY PREDICTED BY IDOCK:    0.24 KCAL/MOL
REMARK 927      BINDING AFFINITY PREDICTED BY RF-SCORE:    0.00 PKD
ROOT
HETATM    1  O   UNL     1      -8.036  12.589  68.827  1.00  0.00    -0.050 OA 
HETATM    2  C   UNL     1      -9.147  12.573  68.049  1.00  0.00    -0.200 C  
HETATM    3  O   UNL     1      -9.619  13.601  67.580  1.00  0.00    -0.210 OA 
HETATM    4  C   UNL     1      -9.694  11.191  67.756  1.00  0.00    -0.171 C  
ENDROOT
BRANCH   4   5
HETATM    5  S   UNL     1      -9.257  10.001  69.088  1.00  0.00    -0.201 SA 
BRANCH   5   6
HETATM    6  C   UNL     1     -10.565   8.764  68.815  1.00  0.00    -0.145 C  
BRANCH   6   7
HETATM    7  C   UNL     1     -10.066   7.380  69.176  1.00  0.00    -0.189 C  
HETATM    8  O   UNL     1     -10.714   6.629  69.901  1.00  0.00    -0.216 OA 
HETATM    9  N   UNL     1      -8.866   7.025  68.590  1.00  0.00    -0.129 N  
HETATM   10  H   UNL     1      -8.351   7.714  68.042  1.00  0.00     0.000 HD 
BRANCH   9  11
HETATM   11  C   UNL     1      -8.324   5.677  68.743  1.00  0.00    -0.103 C  
HETATM   12  C   UNL     1      -8.247   5.176  70.182  1.00  0.00    -0.086 C  
HETATM   13  C   UNL     1      -8.133   3.662  70.148  1.00  0.00    -0.046 C  
HETATM   14  S   UNL     1      -9.223   3.122  68.805  1.00  0.00    -0.167 SA 
HETATM   15  C   UNL     1      -9.110   4.647  67.938  1.00  0.00    -0.119 C  
HETATM   16  O   UNL     1      -9.553   4.817  66.811  1.00  0.00    -0.145 OA 
ENDBRANCH   9  11
ENDBRANCH   6   7
ENDBRANCH   5   6
ENDBRANCH   4   5
TORSDOF 4
ENDMDL
MODEL      308
REMARK 921   NORMALIZED FREE ENERGY PREDICTED BY IDOCK:   -1.28 KCAL/MOL
REMARK 922        TOTAL FREE ENERGY PREDICTED BY IDOCK:   -1.89 KCAL/MOL
REMARK 923 INTER-LIGAND FREE ENERGY PREDICTED BY IDOCK:   -1.86 KCAL/MOL
REMARK 924 INTRA-LIGAND FREE ENERGY PREDICTED BY IDOCK:   -0.03 KCAL/MOL
REMARK 927      BINDING AFFINITY PREDICTED BY RF-SCORE:    0.00 PKD
ROOT
HETATM    1  O   UNL     1      -7.828   6.887  67.193  1.00  0.00    -0.105 OA 
HETATM    2  C   UNL     1      -8.380   7.082  65.970  1.00  0.00    -0.134 C  
HETATM    3  O   UNL     1      -8.943   8.129  65.678  1.00  0.00    -0.158 OA 
HETATM    4  C   UNL     1      -8.172   5.943  64.993  1.00  0.00    -0.138 C  
ENDROOT
BRANCH   4   5
HETATM    5  S   UNL     1      -7.959   4.340  65.868  1.00  0.00    -0.095 SA 
BRANCH   5   6
HETATM    6  C   UNL     1      -9.593   4.218  66.659  1.00  0.00    -0.201 C  
BRANCH   6   7
HETATM    7  C   UNL     1      -9.445   3.885  68.129  1.00  0.00    -0.161 C  
HETATM    8  O   UNL     1      -9.659   2.755  68.561  1.00  0.00    -0.172 OA 
HETATM    9  N   UNL     1      -9.008   4.932  68.920  1.00  0.00    -0.103 N  
HETATM   10  H   UNL     1      -8.901   5.860  68.511  1.00  0.00     0.000 HD 
BRANCH   9  11
HETATM   11  C   UNL     1      -8.698   4.729  70.333  1.00  0.00    -0.098 C  
HETATM   12  C   UNL     1      -9.878   4.284  71.192  1.00  0.00    -0.250 C  
HETATM   13  C   UNL     1      -9.327   3.670  72.466  1.00  0.00    -0.119 C  
HETATM   14  S   UNL     1      -7.861   2.731  71.961  1.00  0.00    -0.054 SA 
HETATM   15  C   UNL     1      -7.574   3.716  70.534  1.00  0.00    -0.041 C  
HETATM   16  O   UNL     1      -6.567   3.630  69.845  1.00  0.00    -0.032 OA 
ENDBRANCH   9  11
ENDBRANCH   6   7
ENDBRANCH   5   6
ENDBRANCH   4   5
TORSDOF 4
ENDMDL
MODEL      309
REMARK 921   NORMALIZED FREE ENERGY PREDICTED BY IDOCK:   -1.21 KCAL/MOL
REMARK 922        TOTAL FREE ENERGY PREDICTED BY IDOCK:   -1.81 KCAL/MOL
REMARK 923 INTER-LIGAND FREE ENERGY PREDICTED BY IDOCK:   -2.03 KCAL/MOL
REMARK 924 INTRA-LIGAND FREE ENERGY PREDICTED BY IDOCK:    0.22 KCAL/MOL
REMARK 927      BINDING AFFINITY PREDICTED BY RF-SCORE:    0.00 PKD
ROOT
HETATM    1  O   UNL     1      -8.365  12.442  68.357  1.00  0.00    -0.167 OA 
HETATM    2  C   UNL     1      -9.665  12.294  68.000  1.00  0.00    -0.205 C  
HETATM    3  O   UNL     1     -10.393  13.258  67.808  1.00  0.00    -0.226 OA 
HETATM    4  C   UNL     1     -10.103  10.859  67.788  1.00  0.00    -0.177 C  
ENDROOT
BRANCH   4   5
HETATM    5  S   UNL     1      -9.089   9.694  68.787  1.00  0.00    -0.138 SA 
BRANCH   5   6
HETATM    6  C   UNL     1     -10.200   8.253  68.773  1.00  0.00    -0.210 C  
BRANCH   6   7
HETATM    7  C   UNL     1      -9.522   7.070  68.114  1.00  0.00    -0.123 C  
HETATM    8  O   UNL     1      -8.948   7.173  67.033  1.00  0.00    -0.123 OA 
HETATM    9  N   UNL     1      -9.563   5.897  68.846  1.00  0.00    -0.129 N  
HETATM   10  H   UNL     1     -10.103   5.862  69.710  1.00  0.00     0.000 HD 
BRANCH   9  11
HETATM   11  C   UNL     1      -8.844   4.706  68.398  1.00  0.00    -0.105 C  
HETATM   12  C   UNL     1      -9.246   4.194  67.018  1.00  0.00    -0.173 C  
HETATM   13  C   UNL     1      -8.133   3.297  66.507  1.00  0.00    -0.088 C  
HETATM   14  S   UNL     1      -6.589   4.091  67.027  1.00  0.00    -0.047 SA 
HETATM   15  C   UNL     1      -7.333   4.917  68.389  1.00  0.00    -0.066 C  
HETATM   16  O   UNL     1      -6.698   5.520  69.242  1.00  0.00    -0.052 OA 
ENDBRANCH   9  11
ENDBRANCH   6   7
ENDBRANCH   5   6
ENDBRANCH   4   5
TORSDOF 4
ENDMDL
MODEL      310
REMARK 921   NORMALIZED FREE ENERGY PREDICTED BY IDOCK:   -1.06 KCAL/MOL
REMARK 922        TOTAL FREE ENERGY PREDICTED BY IDOCK:   -1.63 KCAL/MOL
REMARK 923 INTER-LIGAND FREE ENERGY PREDICTED BY IDOCK:   -1.86 KCAL/MOL
REMARK 924 INTRA-LIGAND FREE ENERGY PREDICTED BY IDOCK:    0.24 KCAL/MOL
REMARK 927      BINDING AFFINITY PREDICTED BY RF-SCORE:    0.00 PKD
ROOT
HETATM    1  O   UNL     1     -10.210   5.942  67.041  1.00  0.00    -0.163 OA 
HETATM    2  C   UNL     1      -9.605   5.106  67.921  1.00  0.00    -0.135 C  
HETATM    3  O   UNL     1      -9.178   4.012  67.578  1.00  0.00    -0.138 OA 
HETATM    4  C   UNL     1      -9.438   5.670  69.317  1.00  0.00    -0.130 C  
ENDROOT
BRANCH   4   5
HETATM    5  S   UNL     1     -10.728   6.926  69.692  1.00  0.00    -0.258 SA 
BRANCH   5   6
HETATM    6  C   UNL     1      -9.743   8.438  69.452  1.00  0.00    -0.177 C  
BRANCH   6   7
HETATM    7  C   UNL     1      -8.696   8.563  70.538  1.00  0.00    -0.152 C  
HETATM    8  O   UNL     1      -8.976   8.975  71.662  1.00  0.00    -0.317 OA 
HETATM    9  N   UNL     1      -7.432   8.136  70.177  1.00  0.00    -0.060 N  
HETATM   10  H   UNL     1      -7.252   7.857  69.213  1.00  0.00     0.000 HD 
BRANCH   9  11
HETATM   11  C   UNL     1      -6.348   8.078  71.156  1.00  0.00    -0.034 C  
HETATM   12  C   UNL     1      -6.002   9.413  71.810  1.00  0.00    -0.008 C  
HETATM   13  C   UNL     1      -5.239   9.126  73.090  1.00  0.00    -0.082 C  
HETATM   14  S   UNL     1      -6.036   7.669  73.816  1.00  0.00    -0.071 SA 
HETATM   15  C   UNL     1      -6.637   7.080  72.273  1.00  0.00    -0.057 C  
HETATM   16  O   UNL     1      -7.155   5.982  72.124  1.00  0.00    -0.080 OA 
ENDBRANCH   9  11
ENDBRANCH   6   7
ENDBRANCH   5   6
ENDBRANCH   4   5
TORSDOF 4
ENDMDL
MODEL      311
REMARK 921   NORMALIZED FREE ENERGY PREDICTED BY IDOCK:    5.03 KCAL/MOL
REMARK 922        TOTAL FREE ENERGY PREDICTED BY IDOCK:    5.88 KCAL/MOL
REMARK 923 INTER-LIGAND FREE ENERGY PREDICTED BY IDOCK:    4.78 KCAL/MOL
REMARK 924 INTRA-LIGAND FREE ENERGY PREDICTED BY IDOCK:    1.11 KCAL/MOL
REMARK 927      BINDING AFFINITY PREDICTED BY RF-SCORE:    0.00 PKD
ROOT
HETATM    1  O   UNL     1      -8.739  19.195  70.429  1.00  0.00     1.533 OA 
HETATM    2  C   UNL     1      -8.061  19.149  69.255  1.00  0.00    -0.026 C  
HETATM    3  O   UNL     1      -6.870  19.421  69.189  1.00  0.00    -0.314 OA 
HETATM    4  C   UNL     1      -8.877  18.664  68.073  1.00  0.00    -0.306 C  
ENDROOT
BRANCH   4   5
HETATM    5  S   UNL     1     -10.667  19.013  68.305  1.00  0.00     0.139 SA 
BRANCH   5   6
HETATM    6  C   UNL     1     -10.932  18.145  69.883  1.00  0.00     1.951 C  
BRANCH   6   7
HETATM    7  C   UNL     1     -11.803  16.924  69.674  1.00  0.00     1.314 C  
HETATM    8  O   UNL     1     -12.889  16.800  70.236  1.00  0.00     2.044 OA 
HETATM    9  N   UNL     1     -11.303  16.002  68.773  1.00  0.00    -0.365 N  
HETATM   10  H   UNL     1     -10.372  16.137  68.381  1.00  0.00     0.000 HD 
BRANCH   9  11
HETATM   11  C   UNL     1     -12.089  14.837  68.373  1.00  0.00    -0.167 C  
HETATM   12  C   UNL     1     -11.665  14.198  67.054  1.00  0.00    -0.430 C  
HETATM   13  C   UNL     1     -12.219  12.785  67.017  1.00  0.00    -0.013 C  
HETATM   14  S   UNL     1     -12.044  12.148  68.705  1.00  0.00     0.078 SA 
HETATM   15  C   UNL     1     -12.078  13.745  69.439  1.00  0.00    -0.328 C  
HETATM   16  O   UNL     1     -12.150  13.932  70.645  1.00  0.00    -0.332 OA 
ENDBRANCH   9  11
ENDBRANCH   6   7
ENDBRANCH   5   6
ENDBRANCH   4   5
TORSDOF 4
ENDMDL
MODEL      312
REMARK 921   NORMALIZED FREE ENERGY PREDICTED BY IDOCK:   16.81 KCAL/MOL
REMARK 922        TOTAL FREE ENERGY PREDICTED BY IDOCK:   20.42 KCAL/MOL
REMARK 923 INTER-LIGAND FREE ENERGY PREDICTED BY IDOCK:   17.40 KCAL/MOL
REMARK 924 INTRA-LIGAND FREE ENERGY PREDICTED BY IDOCK:    3.03 KCAL/MOL
REMARK 927      BINDING AFFINITY PREDICTED BY RF-SCORE:    0.00 PKD
ROOT
HETATM    1  O   UNL     1      -7.817  19.917  73.451  1.00  0.00     2.680 OA 
HETATM    2  C   UNL     1      -7.654  19.949  72.105  1.00  0.00     2.277 C  
HETATM    3  O   UNL     1      -6.577  20.223  71.593  1.00  0.00    -0.399 OA 
HETATM    4  C   UNL     1      -8.880  19.546  71.311  1.00  0.00     3.454 C  
ENDROOT
BRANCH   4   5
HETATM    5  S   UNL     1     -10.426  19.882  72.248  1.00  0.00     5.197 SA 
BRANCH   5   6
HETATM    6  C   UNL     1     -10.281  18.593  73.525  1.00  0.00     4.508 C  
BRANCH   6   7
HETATM    7  C   UNL     1     -11.482  17.673  73.486  1.00  0.00     1.191 C  
HETATM    8  O   UNL     1     -12.179  17.477  74.479  1.00  0.00    -0.342 OA 
HETATM    9  N   UNL     1     -11.751  17.122  72.247  1.00  0.00    -0.014 N  
HETATM   10  H   UNL     1     -11.104  17.281  71.476  1.00  0.00     0.000 HD 
BRANCH   9  11
HETATM   11  C   UNL     1     -12.950  16.316  72.026  1.00  0.00     0.261 C  
HETATM   12  C   UNL     1     -12.953  15.514  70.728  1.00  0.00    -0.490 C  
HETATM   13  C   UNL     1     -13.983  14.407  70.862  1.00  0.00     0.151 C  
HETATM   14  S   UNL     1     -13.845  13.818  72.571  1.00  0.00    -0.417 SA 
HETATM   15  C   UNL     1     -13.205  15.342  73.171  1.00  0.00    -0.501 C  
HETATM   16  O   UNL     1     -13.055  15.590  74.359  1.00  0.00    -0.159 OA 
ENDBRANCH   9  11
ENDBRANCH   6   7
ENDBRANCH   5   6
ENDBRANCH   4   5
TORSDOF 4
ENDMDL
