MODEL        1
REMARK 921   NORMALIZED FREE ENERGY PREDICTED BY IDOCK:   -8.25 KCAL/MOL
REMARK 922        TOTAL FREE ENERGY PREDICTED BY IDOCK:   -9.21 KCAL/MOL
REMARK 923 INTER-LIGAND FREE ENERGY PREDICTED BY IDOCK:   -8.74 KCAL/MOL
REMARK 924 INTRA-LIGAND FREE ENERGY PREDICTED BY IDOCK:   -0.47 KCAL/MOL
REMARK 927      BINDING AFFINITY PREDICTED BY RF-SCORE:    0.00 PKD
ROOT
HETATM    1  C   UNL     1     -12.271  12.153  65.164  1.00  0.00    -0.218 C  
HETATM    2  C   UNL     1     -11.200  12.315  64.076  1.00  0.00    -0.456 C  
HETATM    3  C   UNL     1     -10.419  11.001  63.829  1.00  0.00    -0.408 C  
HETATM    4  C   UNL     1     -10.320  13.525  64.370  1.00  0.00    -0.306 C  
HETATM    5  C   UNL     1      -9.558  10.506  64.978  1.00  0.00    -0.331 C  
HETATM    6  C   UNL     1      -9.499  11.133  62.609  1.00  0.00    -0.310 C  
HETATM    7  C   UNL     1      -9.769   9.351  65.633  1.00  0.00    -0.336 C  
HETATM    8  C   UNL     1      -8.751   8.601  66.485  1.00  0.00    -0.143 C  
HETATM    9  C   UNL     1      -8.421   9.056  67.976  1.00  0.00    -0.125 C  
HETATM   10  C   UNL     1      -7.499   8.337  65.635  1.00  0.00    -0.081 C  
HETATM   11  C   UNL     1      -7.828  10.463  68.043  1.00  0.00    -0.104 C  
HETATM   12  C   UNL     1      -8.974  11.394  68.418  1.00  0.00    -0.172 C  
HETATM   13  C   UNL     1     -10.239  10.518  68.611  1.00  0.00    -0.197 C  
HETATM   14  C   UNL     1     -11.213  11.072  69.645  1.00  0.00    -0.345 C  
HETATM   15  C   UNL     1     -11.901   9.968  70.392  1.00  0.00    -0.343 C  
HETATM   16  C   UNL     1     -11.414  12.387  69.879  1.00  0.00    -0.172 C  
HETATM   17  C   UNL     1     -10.519   7.835  68.656  1.00  0.00    -0.199 C  
HETATM   18  C   UNL     1     -10.849   9.208  71.213  1.00  0.00    -0.402 C  
HETATM   19  C   UNL     1      -9.662   9.093  68.941  1.00  0.00    -0.165 C  
HETATM   20  C   UNL     1      -9.457   9.104  70.493  1.00  0.00    -0.291 C  
ENDROOT
BRANCH  16  21
HETATM   21  C   UNL     1     -12.353  12.893  70.868  1.00  0.00    -0.365 C  
HETATM   22  C   UNL     1     -12.620  14.161  71.201  1.00  0.00    -0.439 C  
HETATM   23  C   UNL     1     -13.688  14.429  72.255  1.00  0.00    -0.569 C  
HETATM   24  C   UNL     1     -13.134  15.256  73.416  1.00  0.00    -0.488 C  
HETATM   25  C   UNL     1     -12.460  16.531  72.904  1.00  0.00    -0.220 C  
HETATM   26  O   UNL     1     -12.211  14.483  74.185  1.00  0.00    -0.441 OA 
HETATM   27  C   UNL     1     -11.413  16.237  71.817  1.00  0.00    -0.317 C  
HETATM   28  H   UNL     1     -11.867  14.997  74.907  1.00  0.00     0.000 HD 
HETATM   29  C   UNL     1     -11.953  15.357  70.724  1.00  0.00    -0.402 C  
HETATM   30  C   UNL     1     -11.881  15.671  69.423  1.00  0.00    -0.391 C  
ENDBRANCH  16  21
TORSDOF 1
ENDMDL
MODEL        2
REMARK 921   NORMALIZED FREE ENERGY PREDICTED BY IDOCK:   -8.10 KCAL/MOL
REMARK 922        TOTAL FREE ENERGY PREDICTED BY IDOCK:   -9.04 KCAL/MOL
REMARK 923 INTER-LIGAND FREE ENERGY PREDICTED BY IDOCK:   -8.21 KCAL/MOL
REMARK 924 INTRA-LIGAND FREE ENERGY PREDICTED BY IDOCK:   -0.83 KCAL/MOL
REMARK 927      BINDING AFFINITY PREDICTED BY RF-SCORE:    0.00 PKD
ROOT
HETATM    1  C   UNL     1      -6.106  13.444  67.654  1.00  0.00    -0.129 C  
HETATM    2  C   UNL     1      -5.769  12.150  68.412  1.00  0.00    -0.053 C  
HETATM    3  C   UNL     1      -6.083  10.887  67.573  1.00  0.00    -0.049 C  
HETATM    4  C   UNL     1      -6.406  12.161  69.796  1.00  0.00    -0.102 C  
HETATM    5  C   UNL     1      -7.548  10.638  67.259  1.00  0.00    -0.100 C  
HETATM    6  C   UNL     1      -5.555   9.626  68.266  1.00  0.00    -0.040 C  
HETATM    7  C   UNL     1      -8.064  10.648  66.018  1.00  0.00    -0.159 C  
HETATM    8  C   UNL     1      -9.385  10.019  65.587  1.00  0.00    -0.257 C  
HETATM    9  C   UNL     1     -10.778  10.742  65.864  1.00  0.00    -0.143 C  
HETATM   10  C   UNL     1      -9.376   8.536  65.988  1.00  0.00    -0.266 C  
HETATM   11  C   UNL     1     -11.054  10.931  67.356  1.00  0.00    -0.373 C  
HETATM   12  C   UNL     1     -10.675  12.369  67.683  1.00  0.00    -0.248 C  
HETATM   13  C   UNL     1     -10.211  13.039  66.364  1.00  0.00    -0.283 C  
HETATM   14  C   UNL     1     -10.505  14.534  66.302  1.00  0.00    -0.303 C  
HETATM   15  C   UNL     1     -10.834  14.967  64.904  1.00  0.00    -0.430 C  
HETATM   16  C   UNL     1     -10.495  15.360  67.370  1.00  0.00    -0.277 C  
HETATM   17  C   UNL     1     -10.291  12.137  63.822  1.00  0.00    -0.465 C  
HETATM   18  C   UNL     1     -12.148  14.292  64.484  1.00  0.00    -0.499 C  
HETATM   19  C   UNL     1     -10.905  12.181  65.243  1.00  0.00    -0.336 C  
HETATM   20  C   UNL     1     -12.312  12.841  65.060  1.00  0.00    -0.559 C  
ENDROOT
BRANCH  16  21
HETATM   21  C   UNL     1     -10.773  16.786  67.286  1.00  0.00    -0.213 C  
HETATM   22  C   UNL     1      -9.918  17.799  67.111  1.00  0.00    -0.322 C  
HETATM   23  C   UNL     1     -10.474  19.216  67.020  1.00  0.00    -0.530 C  
HETATM   24  C   UNL     1      -9.843  20.134  68.066  1.00  0.00    -0.363 C  
HETATM   25  C   UNL     1      -8.315  20.080  67.988  1.00  0.00    -0.253 C  
HETATM   26  O   UNL     1     -10.283  19.776  69.377  1.00  0.00    -0.641 OA 
HETATM   27  C   UNL     1      -7.781  18.640  68.046  1.00  0.00    -0.282 C  
HETATM   28  H   UNL     1      -9.891  20.347  70.027  1.00  0.00     0.000 HD 
HETATM   29  C   UNL     1      -8.469  17.733  67.064  1.00  0.00    -0.245 C  
HETATM   30  C   UNL     1      -7.812  16.971  66.180  1.00  0.00    -0.295 C  
ENDBRANCH  16  21
TORSDOF 1
ENDMDL
MODEL        3
REMARK 921   NORMALIZED FREE ENERGY PREDICTED BY IDOCK:   -7.87 KCAL/MOL
REMARK 922        TOTAL FREE ENERGY PREDICTED BY IDOCK:   -8.80 KCAL/MOL
REMARK 923 INTER-LIGAND FREE ENERGY PREDICTED BY IDOCK:   -8.32 KCAL/MOL
REMARK 924 INTRA-LIGAND FREE ENERGY PREDICTED BY IDOCK:   -0.48 KCAL/MOL
REMARK 927      BINDING AFFINITY PREDICTED BY RF-SCORE:    0.00 PKD
ROOT
HETATM    1  C   UNL     1     -11.034  10.501  66.212  1.00  0.00     0.031 C  
HETATM    2  C   UNL     1      -9.662  10.186  65.597  1.00  0.00    -0.322 C  
HETATM    3  C   UNL     1      -9.284   8.693  65.753  1.00  0.00    -0.245 C  
HETATM    4  C   UNL     1      -8.609  11.160  66.113  1.00  0.00    -0.172 C  
HETATM    5  C   UNL     1      -9.058   8.204  67.173  1.00  0.00    -0.163 C  
HETATM    6  C   UNL     1      -8.013   8.365  64.961  1.00  0.00    -0.139 C  
HETATM    7  C   UNL     1      -9.819   7.278  67.781  1.00  0.00    -0.181 C  
HETATM    8  C   UNL     1      -9.430   6.453  69.003  1.00  0.00    -0.131 C  
HETATM    9  C   UNL     1      -9.502   7.064  70.473  1.00  0.00    -0.166 C  
HETATM   10  C   UNL     1      -8.109   5.729  68.706  1.00  0.00    -0.102 C  
HETATM   11  C   UNL     1      -8.566   8.259  70.658  1.00  0.00    -0.139 C  
HETATM   12  C   UNL     1      -9.430   9.505  70.509  1.00  0.00    -0.306 C  
HETATM   13  C   UNL     1     -10.888   9.034  70.275  1.00  0.00    -0.269 C  
HETATM   14  C   UNL     1     -11.936   9.995  70.827  1.00  0.00    -0.426 C  
HETATM   15  C   UNL     1     -13.138   9.257  71.337  1.00  0.00    -0.387 C  
HETATM   16  C   UNL     1     -11.793  11.338  70.875  1.00  0.00    -0.177 C  
HETATM   17  C   UNL     1     -11.972   6.567  70.400  1.00  0.00    -0.295 C  
HETATM   18  C   UNL     1     -12.711   8.409  72.543  1.00  0.00    -0.286 C  
HETATM   19  C   UNL     1     -10.921   7.591  70.897  1.00  0.00    -0.267 C  
HETATM   20  C   UNL     1     -11.260   7.824  72.407  1.00  0.00    -0.392 C  
ENDROOT
BRANCH  16  21
HETATM   21  C   UNL     1     -12.809  12.236  71.401  1.00  0.00    -0.373 C  
HETATM   22  C   UNL     1     -12.895  13.566  71.285  1.00  0.00    -0.420 C  
HETATM   23  C   UNL     1     -14.094  14.276  71.904  1.00  0.00    -0.586 C  
HETATM   24  C   UNL     1     -13.656  15.358  72.892  1.00  0.00    -0.514 C  
HETATM   25  C   UNL     1     -12.657  16.318  72.240  1.00  0.00    -0.277 C  
HETATM   26  O   UNL     1     -13.083  14.767  74.059  1.00  0.00    -0.387 OA 
HETATM   27  C   UNL     1     -11.477  15.576  71.592  1.00  0.00    -0.496 C  
HETATM   28  H   UNL     1     -12.811  15.440  74.673  1.00  0.00     0.000 HD 
HETATM   29  C   UNL     1     -11.926  14.464  70.686  1.00  0.00    -0.393 C  
HETATM   30  C   UNL     1     -11.519  14.339  69.416  1.00  0.00    -0.337 C  
ENDBRANCH  16  21
TORSDOF 1
ENDMDL
MODEL        4
REMARK 921   NORMALIZED FREE ENERGY PREDICTED BY IDOCK:   -7.47 KCAL/MOL
REMARK 922        TOTAL FREE ENERGY PREDICTED BY IDOCK:   -8.37 KCAL/MOL
REMARK 923 INTER-LIGAND FREE ENERGY PREDICTED BY IDOCK:   -7.35 KCAL/MOL
REMARK 924 INTRA-LIGAND FREE ENERGY PREDICTED BY IDOCK:   -1.03 KCAL/MOL
REMARK 927      BINDING AFFINITY PREDICTED BY RF-SCORE:    0.00 PKD
ROOT
HETATM    1  C   UNL     1     -10.620   5.473  67.472  1.00  0.00    -0.252 C  
HETATM    2  C   UNL     1      -9.778   4.584  68.399  1.00  0.00    -0.188 C  
HETATM    3  C   UNL     1     -10.258   4.658  69.869  1.00  0.00    -0.156 C  
HETATM    4  C   UNL     1      -8.293   4.869  68.207  1.00  0.00    -0.091 C  
HETATM    5  C   UNL     1     -10.091   5.998  70.563  1.00  0.00    -0.244 C  
HETATM    6  C   UNL     1      -9.536   3.617  70.733  1.00  0.00    -0.249 C  
HETATM    7  C   UNL     1     -11.115   6.752  71.000  1.00  0.00    -0.317 C  
HETATM    8  C   UNL     1     -11.034   7.865  72.039  1.00  0.00    -0.329 C  
HETATM    9  C   UNL     1     -10.500   9.318  71.659  1.00  0.00    -0.328 C  
HETATM   10  C   UNL     1     -10.401   7.297  73.318  1.00  0.00    -0.389 C  
HETATM   11  C   UNL     1      -9.048   9.303  71.181  1.00  0.00    -0.197 C  
HETATM   12  C   UNL     1      -9.099   9.338  69.658  1.00  0.00    -0.173 C  
HETATM   13  C   UNL     1     -10.591   9.415  69.245  1.00  0.00    -0.239 C  
HETATM   14  C   UNL     1     -10.826  10.175  67.944  1.00  0.00    -0.336 C  
HETATM   15  C   UNL     1     -12.125  10.925  67.977  1.00  0.00     0.376 C  
HETATM   16  C   UNL     1      -9.966  10.193  66.903  1.00  0.00    -0.259 C  
HETATM   17  C   UNL     1     -12.806   9.764  70.745  1.00  0.00    -0.230 C  
HETATM   18  C   UNL     1     -12.027  12.015  69.055  1.00  0.00    -0.321 C  
HETATM   19  C   UNL     1     -11.300  10.030  70.507  1.00  0.00    -0.409 C  
HETATM   20  C   UNL     1     -11.184  11.578  70.305  1.00  0.00     0.130 C  
ENDROOT
BRANCH  16  21
HETATM   21  C   UNL     1     -10.213  10.920  65.668  1.00  0.00    -0.323 C  
HETATM   22  C   UNL     1     -10.136  12.236  65.439  1.00  0.00    -0.292 C  
HETATM   23  C   UNL     1     -10.411  12.749  64.029  1.00  0.00    -0.433 C  
HETATM   24  C   UNL     1     -11.530  13.791  64.020  1.00  0.00    -0.216 C  
HETATM   25  C   UNL     1     -11.238  14.910  65.023  1.00  0.00    -0.408 C  
HETATM   26  O   UNL     1     -12.786  13.179  64.315  1.00  0.00    -0.658 OA 
HETATM   27  C   UNL     1     -10.930  14.367  66.427  1.00  0.00    -0.319 C  
HETATM   28  H   UNL     1     -13.481  13.827  64.309  1.00  0.00     0.000 HD 
HETATM   29  C   UNL     1      -9.884  13.287  66.406  1.00  0.00    -0.281 C  
HETATM   30  C   UNL     1      -8.782  13.313  67.168  1.00  0.00    -0.215 C  
ENDBRANCH  16  21
TORSDOF 1
ENDMDL
MODEL        5
REMARK 921   NORMALIZED FREE ENERGY PREDICTED BY IDOCK:   -7.39 KCAL/MOL
REMARK 922        TOTAL FREE ENERGY PREDICTED BY IDOCK:   -8.29 KCAL/MOL
REMARK 923 INTER-LIGAND FREE ENERGY PREDICTED BY IDOCK:   -7.46 KCAL/MOL
REMARK 924 INTRA-LIGAND FREE ENERGY PREDICTED BY IDOCK:   -0.83 KCAL/MOL
REMARK 927      BINDING AFFINITY PREDICTED BY RF-SCORE:    0.00 PKD
ROOT
HETATM    1  C   UNL     1     -10.790  10.150  70.579  1.00  0.00    -0.340 C  
HETATM    2  C   UNL     1     -11.289   9.102  71.586  1.00  0.00    -0.446 C  
HETATM    3  C   UNL     1     -10.124   8.292  72.206  1.00  0.00    -0.370 C  
HETATM    4  C   UNL     1     -12.390   8.249  70.967  1.00  0.00    -0.145 C  
HETATM    5  C   UNL     1      -9.348   7.399  71.256  1.00  0.00    -0.158 C  
HETATM    6  C   UNL     1     -10.627   7.399  73.347  1.00  0.00    -0.427 C  
HETATM    7  C   UNL     1      -8.048   7.568  70.956  1.00  0.00    -0.100 C  
HETATM    8  C   UNL     1      -7.116   6.516  70.365  1.00  0.00    -0.072 C  
HETATM    9  C   UNL     1      -7.135   6.171  68.809  1.00  0.00    -0.082 C  
HETATM   10  C   UNL     1      -7.144   5.273  71.266  1.00  0.00    -0.064 C  
HETATM   11  C   UNL     1      -8.482   5.613  68.348  1.00  0.00    -0.105 C  
HETATM   12  C   UNL     1      -9.232   6.776  67.712  1.00  0.00    -0.111 C  
HETATM   13  C   UNL     1      -8.300   8.014  67.765  1.00  0.00    -0.129 C  
HETATM   14  C   UNL     1      -8.506   8.983  66.606  1.00  0.00    -0.126 C  
HETATM   15  C   UNL     1      -7.214   9.629  66.199  1.00  0.00    -0.098 C  
HETATM   16  C   UNL     1      -9.692   9.214  66.003  1.00  0.00    -0.358 C  
HETATM   17  C   UNL     1      -5.709   8.224  68.486  1.00  0.00    -0.037 C  
HETATM   18  C   UNL     1      -6.284   8.543  65.641  1.00  0.00    -0.048 C  
HETATM   19  C   UNL     1      -6.858   7.395  67.861  1.00  0.00    -0.074 C  
HETATM   20  C   UNL     1      -6.432   7.162  66.373  1.00  0.00    -0.051 C  
ENDROOT
BRANCH  16  21
HETATM   21  C   UNL     1      -9.867  10.148  64.901  1.00  0.00    -0.390 C  
HETATM   22  C   UNL     1     -10.292  11.416  64.935  1.00  0.00    -0.347 C  
HETATM   23  C   UNL     1     -10.350  12.201  63.629  1.00  0.00    -0.482 C  
HETATM   24  C   UNL     1     -11.752  12.753  63.368  1.00  0.00    -0.488 C  
HETATM   25  C   UNL     1     -12.256  13.550  64.574  1.00  0.00    -0.445 C  
HETATM   26  O   UNL     1     -12.659  11.691  63.064  1.00  0.00    -0.950 OA 
HETATM   27  C   UNL     1     -12.154  12.751  65.882  1.00  0.00    -0.485 C  
HETATM   28  H   UNL     1     -13.530  12.034  62.902  1.00  0.00     0.000 HD 
HETATM   29  C   UNL     1     -10.791  12.149  66.083  1.00  0.00    -0.317 C  
HETATM   30  C   UNL     1     -10.067  12.320  67.197  1.00  0.00    -0.218 C  
ENDBRANCH  16  21
TORSDOF 1
ENDMDL
MODEL        6
REMARK 921   NORMALIZED FREE ENERGY PREDICTED BY IDOCK:   -7.37 KCAL/MOL
REMARK 922        TOTAL FREE ENERGY PREDICTED BY IDOCK:   -8.27 KCAL/MOL
REMARK 923 INTER-LIGAND FREE ENERGY PREDICTED BY IDOCK:   -7.21 KCAL/MOL
REMARK 924 INTRA-LIGAND FREE ENERGY PREDICTED BY IDOCK:   -1.06 KCAL/MOL
REMARK 927      BINDING AFFINITY PREDICTED BY RF-SCORE:    0.00 PKD
ROOT
HETATM    1  C   UNL     1      -6.109  16.469  69.603  1.00  0.00    -0.213 C  
HETATM    2  C   UNL     1      -5.775  17.821  68.955  1.00  0.00    -0.188 C  
HETATM    3  C   UNL     1      -6.993  18.777  68.945  1.00  0.00    -0.335 C  
HETATM    4  C   UNL     1      -5.126  17.613  67.592  1.00  0.00    -0.128 C  
HETATM    5  C   UNL     1      -8.170  18.354  68.085  1.00  0.00    -0.303 C  
HETATM    6  C   UNL     1      -6.583  20.179  68.479  1.00  0.00    -0.337 C  
HETATM    7  C   UNL     1      -9.388  18.054  68.571  1.00  0.00    -0.312 C  
HETATM    8  C   UNL     1     -10.691  18.028  67.781  1.00  0.00    -0.350 C  
HETATM    9  C   UNL     1     -11.072  16.791  66.850  1.00  0.00     0.223 C  
HETATM   10  C   UNL     1     -10.876  19.389  67.094  1.00  0.00    -0.561 C  
HETATM   11  C   UNL     1     -10.073  16.585  65.711  1.00  0.00    -0.328 C  
HETATM   12  C   UNL     1      -9.138  15.470  66.160  1.00  0.00    -0.359 C  
HETATM   13  C   UNL     1      -9.617  14.994  67.555  1.00  0.00    -0.203 C  
HETATM   14  C   UNL     1      -9.347  13.518  67.823  1.00  0.00    -0.213 C  
HETATM   15  C   UNL     1     -10.430  12.908  68.663  1.00  0.00    -0.231 C  
HETATM   16  C   UNL     1      -8.282  12.836  67.346  1.00  0.00    -0.186 C  
HETATM   17  C   UNL     1     -11.834  15.631  68.954  1.00  0.00    -0.368 C  
HETATM   18  C   UNL     1     -11.737  12.927  67.856  1.00  0.00    -0.405 C  
HETATM   19  C   UNL     1     -11.135  15.406  67.591  1.00  0.00    -0.316 C  
HETATM   20  C   UNL     1     -11.884  14.195  66.942  1.00  0.00    -0.458 C  
ENDROOT
BRANCH  16  21
HETATM   21  C   UNL     1      -8.041  11.428  67.619  1.00  0.00    -0.124 C  
HETATM   22  C   UNL     1      -8.628  10.354  67.076  1.00  0.00    -0.130 C  
HETATM   23  C   UNL     1      -8.163   8.970  67.513  1.00  0.00    -0.109 C  
HETATM   24  C   UNL     1      -9.323   8.132  68.051  1.00  0.00    -0.135 C  
HETATM   25  C   UNL     1     -10.477   8.092  67.046  1.00  0.00    -0.410 C  
HETATM   26  O   UNL     1      -9.777   8.651  69.302  1.00  0.00    -0.168 OA 
HETATM   27  C   UNL     1     -10.904   9.497  66.594  1.00  0.00     0.018 C  
HETATM   28  H   UNL     1     -10.498   8.131  69.637  1.00  0.00     0.000 HD 
HETATM   29  C   UNL     1      -9.738  10.334  66.143  1.00  0.00    -0.266 C  
HETATM   30  C   UNL     1      -9.695  10.960  64.960  1.00  0.00    -0.319 C  
ENDBRANCH  16  21
TORSDOF 1
ENDMDL
MODEL        7
REMARK 921   NORMALIZED FREE ENERGY PREDICTED BY IDOCK:   -7.37 KCAL/MOL
REMARK 922        TOTAL FREE ENERGY PREDICTED BY IDOCK:   -8.27 KCAL/MOL
REMARK 923 INTER-LIGAND FREE ENERGY PREDICTED BY IDOCK:   -7.43 KCAL/MOL
REMARK 924 INTRA-LIGAND FREE ENERGY PREDICTED BY IDOCK:   -0.84 KCAL/MOL
REMARK 927      BINDING AFFINITY PREDICTED BY RF-SCORE:    0.00 PKD
ROOT
HETATM    1  C   UNL     1     -10.956   8.886  71.235  1.00  0.00    -0.363 C  
HETATM    2  C   UNL     1     -11.660   7.702  71.915  1.00  0.00    -0.321 C  
HETATM    3  C   UNL     1     -10.755   6.447  71.980  1.00  0.00    -0.261 C  
HETATM    4  C   UNL     1     -13.027   7.461  71.284  1.00  0.00    -0.358 C  
HETATM    5  C   UNL     1     -10.392   5.813  70.650  1.00  0.00    -0.310 C  
HETATM    6  C   UNL     1     -11.403   5.351  72.835  1.00  0.00    -0.365 C  
HETATM    7  C   UNL     1      -9.139   5.742  70.166  1.00  0.00    -0.155 C  
HETATM    8  C   UNL     1      -8.645   4.791  69.082  1.00  0.00    -0.094 C  
HETATM    9  C   UNL     1      -8.919   5.077  67.539  1.00  0.00    -0.113 C  
HETATM   10  C   UNL     1      -8.976   3.352  69.505  1.00  0.00    -0.177 C  
HETATM   11  C   UNL     1     -10.411   5.102  67.202  1.00  0.00    -0.246 C  
HETATM   12  C   UNL     1     -10.814   6.570  67.156  1.00  0.00    -0.472 C  
HETATM   13  C   UNL     1      -9.541   7.411  67.427  1.00  0.00    -0.184 C  
HETATM   14  C   UNL     1      -9.541   8.764  66.724  1.00  0.00    -0.267 C  
HETATM   15  C   UNL     1      -8.157   9.160  66.303  1.00  0.00    -0.111 C  
HETATM   16  C   UNL     1     -10.647   9.502  66.487  1.00  0.00    -0.133 C  
HETATM   17  C   UNL     1      -6.958   6.658  67.636  1.00  0.00    -0.083 C  
HETATM   18  C   UNL     1      -7.671   8.166  65.238  1.00  0.00    -0.101 C  
HETATM   19  C   UNL     1      -8.363   6.452  67.018  1.00  0.00    -0.112 C  
HETATM   20  C   UNL     1      -8.175   6.699  65.483  1.00  0.00    -0.138 C  
ENDROOT
BRANCH  16  21
HETATM   21  C   UNL     1     -10.623  10.794  65.819  1.00  0.00    -0.204 C  
HETATM   22  C   UNL     1     -10.592  12.018  66.359  1.00  0.00    -0.278 C  
HETATM   23  C   UNL     1     -10.533  13.224  65.428  1.00  0.00    -0.306 C  
HETATM   24  C   UNL     1     -11.688  14.191  65.689  1.00  0.00    -0.357 C  
HETATM   25  C   UNL     1     -11.754  14.574  67.169  1.00  0.00    -0.420 C  
HETATM   26  O   UNL     1     -12.927  13.613  65.273  1.00  0.00    -0.719 OA 
HETATM   27  C   UNL     1     -11.777  13.342  68.088  1.00  0.00    -0.397 C  
HETATM   28  H   UNL     1     -13.645  14.214  65.435  1.00  0.00     0.000 HD 
HETATM   29  C   UNL     1     -10.680  12.365  67.764  1.00  0.00    -0.247 C  
HETATM   30  C   UNL     1      -9.819  11.896  68.677  1.00  0.00    -0.139 C  
ENDBRANCH  16  21
TORSDOF 1
ENDMDL
MODEL        8
REMARK 921   NORMALIZED FREE ENERGY PREDICTED BY IDOCK:   -7.37 KCAL/MOL
REMARK 922        TOTAL FREE ENERGY PREDICTED BY IDOCK:   -8.27 KCAL/MOL
REMARK 923 INTER-LIGAND FREE ENERGY PREDICTED BY IDOCK:   -7.59 KCAL/MOL
REMARK 924 INTRA-LIGAND FREE ENERGY PREDICTED BY IDOCK:   -0.67 KCAL/MOL
REMARK 927      BINDING AFFINITY PREDICTED BY RF-SCORE:    0.00 PKD
ROOT
HETATM    1  C   UNL     1      -9.871   7.274  66.861  1.00  0.00    -0.279 C  
HETATM    2  C   UNL     1      -8.772   6.248  67.174  1.00  0.00    -0.109 C  
HETATM    3  C   UNL     1      -9.255   5.165  68.171  1.00  0.00    -0.136 C  
HETATM    4  C   UNL     1      -7.485   6.952  67.584  1.00  0.00    -0.098 C  
HETATM    5  C   UNL     1      -9.579   5.644  69.575  1.00  0.00    -0.192 C  
HETATM    6  C   UNL     1      -8.214   4.048  68.311  1.00  0.00    -0.095 C  
HETATM    7  C   UNL     1     -10.806   5.595  70.123  1.00  0.00    -0.356 C  
HETATM    8  C   UNL     1     -11.131   5.660  71.611  1.00  0.00    -0.249 C  
HETATM    9  C   UNL     1     -11.147   7.047  72.397  1.00  0.00    -0.294 C  
HETATM   10  C   UNL     1     -10.344   4.557  72.333  1.00  0.00    -0.256 C  
HETATM   11  C   UNL     1      -9.782   7.736  72.399  1.00  0.00    -0.249 C  
HETATM   12  C   UNL     1      -9.835   8.792  71.303  1.00  0.00    -0.336 C  
HETATM   13  C   UNL     1     -11.255   8.747  70.682  1.00  0.00    -0.294 C  
HETATM   14  C   UNL     1     -11.738  10.097  70.165  1.00  0.00    -0.330 C  
HETATM   15  C   UNL     1     -13.219  10.254  70.348  1.00  0.00     0.011 C  
HETATM   16  C   UNL     1     -10.936  11.044  69.632  1.00  0.00    -0.286 C  
HETATM   17  C   UNL     1     -13.457   7.389  71.448  1.00  0.00    -0.405 C  
HETATM   18  C   UNL     1     -13.521  10.281  71.853  1.00  0.00    -0.403 C  
HETATM   19  C   UNL     1     -12.142   8.118  71.818  1.00  0.00    -0.357 C  
HETATM   20  C   UNL     1     -12.584   9.340  72.691  1.00  0.00    -0.143 C  
ENDROOT
BRANCH  16  21
HETATM   21  C   UNL     1     -11.420  12.324  69.139  1.00  0.00    -0.352 C  
HETATM   22  C   UNL     1     -11.300  12.853  67.916  1.00  0.00    -0.336 C  
HETATM   23  C   UNL     1     -11.937  14.211  67.642  1.00  0.00    -0.405 C  
HETATM   24  C   UNL     1     -10.909  15.218  67.125  1.00  0.00    -0.322 C  
HETATM   25  C   UNL     1     -10.152  14.653  65.920  1.00  0.00    -0.341 C  
HETATM   26  O   UNL     1      -9.993  15.574  68.161  1.00  0.00    -0.215 OA 
HETATM   27  C   UNL     1      -9.550  13.269  66.209  1.00  0.00    -0.244 C  
HETATM   28  H   UNL     1      -9.354  16.200  67.840  1.00  0.00     0.000 HD 
HETATM   29  C   UNL     1     -10.557  12.316  66.791  1.00  0.00    -0.251 C  
HETATM   30  C   UNL     1     -10.796  11.098  66.287  1.00  0.00    -0.266 C  
ENDBRANCH  16  21
TORSDOF 1
ENDMDL
MODEL        9
REMARK 921   NORMALIZED FREE ENERGY PREDICTED BY IDOCK:   -7.31 KCAL/MOL
REMARK 922        TOTAL FREE ENERGY PREDICTED BY IDOCK:   -8.21 KCAL/MOL
REMARK 923 INTER-LIGAND FREE ENERGY PREDICTED BY IDOCK:   -7.16 KCAL/MOL
REMARK 924 INTRA-LIGAND FREE ENERGY PREDICTED BY IDOCK:   -1.05 KCAL/MOL
REMARK 927      BINDING AFFINITY PREDICTED BY RF-SCORE:    0.00 PKD
ROOT
HETATM    1  C   UNL     1     -10.480  11.348  63.581  1.00  0.00    -0.472 C  
HETATM    2  C   UNL     1     -11.438  12.547  63.541  1.00  0.00    -0.570 C  
HETATM    3  C   UNL     1     -10.970  13.696  64.468  1.00  0.00    -0.405 C  
HETATM    4  C   UNL     1     -12.874  12.092  63.778  1.00  0.00    -0.451 C  
HETATM    5  C   UNL     1     -10.977  13.400  65.958  1.00  0.00    -0.281 C  
HETATM    6  C   UNL     1     -11.828  14.950  64.260  1.00  0.00    -0.312 C  
HETATM    7  C   UNL     1      -9.872  13.368  66.724  1.00  0.00    -0.265 C  
HETATM    8  C   UNL     1      -9.826  13.490  68.243  1.00  0.00    -0.233 C  
HETATM    9  C   UNL     1     -10.169  12.252  69.185  1.00  0.00     0.177 C  
HETATM   10  C   UNL     1     -10.541  14.786  68.653  1.00  0.00    -0.255 C  
HETATM   11  C   UNL     1     -11.606  11.759  69.008  1.00  0.00    -0.372 C  
HETATM   12  C   UNL     1     -11.532  10.549  68.085  1.00  0.00    -0.255 C  
HETATM   13  C   UNL     1     -10.037  10.309  67.753  1.00  0.00    -0.213 C  
HETATM   14  C   UNL     1      -9.693   8.843  67.514  1.00  0.00    -0.216 C  
HETATM   15  C   UNL     1      -8.311   8.520  68.002  1.00  0.00    -0.127 C  
HETATM   16  C   UNL     1     -10.531   7.941  66.959  1.00  0.00    -0.419 C  
HETATM   17  C   UNL     1      -7.814  11.462  68.756  1.00  0.00    -0.128 C  
HETATM   18  C   UNL     1      -8.284   8.685  69.528  1.00  0.00    -0.115 C  
HETATM   19  C   UNL     1      -9.272  10.981  68.952  1.00  0.00    -0.139 C  
HETATM   20  C   UNL     1      -9.191   9.860  70.041  1.00  0.00    -0.224 C  
ENDROOT
BRANCH  16  21
HETATM   21  C   UNL     1     -10.179   6.547  66.735  1.00  0.00    -0.257 C  
HETATM   22  C   UNL     1     -10.110   5.546  67.621  1.00  0.00    -0.217 C  
HETATM   23  C   UNL     1      -9.750   4.152  67.119  1.00  0.00    -0.224 C  
HETATM   24  C   UNL     1      -8.526   3.593  67.846  1.00  0.00    -0.094 C  
HETATM   25  C   UNL     1      -8.719   3.657  69.363  1.00  0.00    -0.131 C  
HETATM   26  O   UNL     1      -7.349   4.309  67.468  1.00  0.00    -0.067 OA 
HETATM   27  C   UNL     1      -9.116   5.063  69.840  1.00  0.00    -0.162 C  
HETATM   28  H   UNL     1      -6.589   3.961  67.920  1.00  0.00     0.000 HD 
HETATM   29  C   UNL     1     -10.271   5.628  69.060  1.00  0.00    -0.291 C  
HETATM   30  C   UNL     1     -11.380   6.113  69.633  1.00  0.00    -0.442 C  
ENDBRANCH  16  21
TORSDOF 1
ENDMDL
MODEL       10
REMARK 921   NORMALIZED FREE ENERGY PREDICTED BY IDOCK:   -7.31 KCAL/MOL
REMARK 922        TOTAL FREE ENERGY PREDICTED BY IDOCK:   -8.21 KCAL/MOL
REMARK 923 INTER-LIGAND FREE ENERGY PREDICTED BY IDOCK:   -7.13 KCAL/MOL
REMARK 924 INTRA-LIGAND FREE ENERGY PREDICTED BY IDOCK:   -1.08 KCAL/MOL
REMARK 927      BINDING AFFINITY PREDICTED BY RF-SCORE:    0.00 PKD
ROOT
HETATM    1  C   UNL     1     -10.550   8.528  72.128  1.00  0.00    -0.419 C  
HETATM    2  C   UNL     1     -10.976   7.062  71.957  1.00  0.00    -0.264 C  
HETATM    3  C   UNL     1      -9.913   6.234  71.194  1.00  0.00    -0.210 C  
HETATM    4  C   UNL     1     -12.380   6.979  71.368  1.00  0.00    -0.419 C  
HETATM    5  C   UNL     1      -9.680   6.615  69.743  1.00  0.00    -0.168 C  
HETATM    6  C   UNL     1     -10.267   4.742  71.212  1.00  0.00    -0.229 C  
HETATM    7  C   UNL     1      -8.520   7.102  69.269  1.00  0.00    -0.133 C  
HETATM    8  C   UNL     1      -8.078   7.116  67.810  1.00  0.00    -0.115 C  
HETATM    9  C   UNL     1      -8.625   8.210  66.788  1.00  0.00    -0.136 C  
HETATM   10  C   UNL     1      -8.144   5.682  67.264  1.00  0.00    -0.102 C  
HETATM   11  C   UNL     1     -10.141   8.131  66.600  1.00  0.00    -0.344 C  
HETATM   12  C   UNL     1     -10.739   9.214  67.489  1.00  0.00    -0.255 C  
HETATM   13  C   UNL     1      -9.562   9.957  68.170  1.00  0.00    -0.153 C  
HETATM   14  C   UNL     1      -9.852  11.427  68.457  1.00  0.00    -0.200 C  
HETATM   15  C   UNL     1      -8.616  12.265  68.315  1.00  0.00    -0.172 C  
HETATM   16  C   UNL     1     -11.070  11.919  68.773  1.00  0.00    -0.296 C  
HETATM   17  C   UNL     1      -6.902   9.769  67.763  1.00  0.00    -0.081 C  
HETATM   18  C   UNL     1      -8.174  12.232  66.845  1.00  0.00    -0.112 C  
HETATM   19  C   UNL     1      -8.346   9.699  67.208  1.00  0.00    -0.114 C  
HETATM   20  C   UNL     1      -8.433  10.849  66.150  1.00  0.00    -0.171 C  
ENDROOT
BRANCH  16  21
HETATM   21  C   UNL     1     -11.323  13.325  69.048  1.00  0.00    -0.334 C  
HETATM   22  C   UNL     1     -11.486  14.333  68.184  1.00  0.00    -0.336 C  
HETATM   23  C   UNL     1     -11.780  15.724  68.734  1.00  0.00    -0.387 C  
HETATM   24  C   UNL     1     -10.756  16.748  68.246  1.00  0.00    -0.364 C  
HETATM   25  C   UNL     1     -10.638  16.715  66.720  1.00  0.00    -0.214 C  
HETATM   26  O   UNL     1      -9.482  16.506  68.845  1.00  0.00    -0.245 OA 
HETATM   27  C   UNL     1     -10.376  15.298  66.188  1.00  0.00    -0.314 C  
HETATM   28  H   UNL     1      -8.845  17.143  68.542  1.00  0.00     0.000 HD 
HETATM   29  C   UNL     1     -11.346  14.290  66.741  1.00  0.00    -0.357 C  
HETATM   30  C   UNL     1     -12.065  13.461  65.973  1.00  0.00    -0.487 C  
ENDBRANCH  16  21
TORSDOF 1
ENDMDL
MODEL       11
REMARK 921   NORMALIZED FREE ENERGY PREDICTED BY IDOCK:   -7.28 KCAL/MOL
REMARK 922        TOTAL FREE ENERGY PREDICTED BY IDOCK:   -8.18 KCAL/MOL
REMARK 923 INTER-LIGAND FREE ENERGY PREDICTED BY IDOCK:   -7.14 KCAL/MOL
REMARK 924 INTRA-LIGAND FREE ENERGY PREDICTED BY IDOCK:   -1.04 KCAL/MOL
REMARK 927      BINDING AFFINITY PREDICTED BY RF-SCORE:    0.00 PKD
ROOT
HETATM    1  C   UNL     1      -5.176  11.733  67.051  1.00  0.00    -0.115 C  
HETATM    2  C   UNL     1      -5.248  10.363  67.741  1.00  0.00    -0.037 C  
HETATM    3  C   UNL     1      -6.321   9.447  67.104  1.00  0.00    -0.066 C  
HETATM    4  C   UNL     1      -5.379  10.532  69.250  1.00  0.00    -0.038 C  
HETATM    5  C   UNL     1      -7.763   9.897  67.257  1.00  0.00    -0.095 C  
HETATM    6  C   UNL     1      -6.236   8.026  67.675  1.00  0.00    -0.052 C  
HETATM    7  C   UNL     1      -8.557  10.243  66.228  1.00  0.00    -0.144 C  
HETATM    8  C   UNL     1     -10.080  10.302  66.246  1.00  0.00    -0.300 C  
HETATM    9  C   UNL     1     -10.856  11.538  66.887  1.00  0.00    -0.331 C  
HETATM   10  C   UNL     1     -10.618   8.938  66.705  1.00  0.00    -0.212 C  
HETATM   11  C   UNL     1     -10.572  11.697  68.381  1.00  0.00    -0.235 C  
HETATM   12  C   UNL     1      -9.514  12.787  68.502  1.00  0.00    -0.094 C  
HETATM   13  C   UNL     1      -9.206  13.295  67.070  1.00  0.00    -0.237 C  
HETATM   14  C   UNL     1      -8.805  14.766  67.018  1.00  0.00    -0.258 C  
HETATM   15  C   UNL     1      -9.297  15.421  65.761  1.00  0.00    -0.265 C  
HETATM   16  C   UNL     1      -8.117  15.406  67.988  1.00  0.00    -0.143 C  
HETATM   17  C   UNL     1     -10.415  12.749  64.721  1.00  0.00    -0.357 C  
HETATM   18  C   UNL     1     -10.832  15.434  65.790  1.00  0.00    -0.349 C  
HETATM   19  C   UNL     1     -10.502  12.934  66.256  1.00  0.00    -0.282 C  
HETATM   20  C   UNL     1     -11.451  14.160  66.467  1.00  0.00    -0.368 C  
ENDROOT
BRANCH  16  21
HETATM   21  C   UNL     1      -7.741  16.809  67.915  1.00  0.00    -0.178 C  
HETATM   22  C   UNL     1      -8.503  17.894  68.093  1.00  0.00    -0.268 C  
HETATM   23  C   UNL     1      -7.850  19.268  67.997  1.00  0.00    -0.333 C  
HETATM   24  C   UNL     1      -8.538  20.144  66.950  1.00  0.00    -0.324 C  
HETATM   25  C   UNL     1     -10.047  20.209  67.200  1.00  0.00    -0.590 C  
HETATM   26  O   UNL     1      -8.277  19.650  65.635  1.00  0.00    -0.398 OA 
HETATM   27  C   UNL     1     -10.675  18.813  67.328  1.00  0.00    -0.490 C  
HETATM   28  H   UNL     1      -8.704  20.194  64.984  1.00  0.00     0.000 HD 
HETATM   29  C   UNL     1      -9.937  17.939  68.305  1.00  0.00    -0.360 C  
HETATM   30  C   UNL     1     -10.535  17.301  69.320  1.00  0.00    -0.220 C  
ENDBRANCH  16  21
TORSDOF 1
ENDMDL
MODEL       12
REMARK 921   NORMALIZED FREE ENERGY PREDICTED BY IDOCK:   -7.26 KCAL/MOL
REMARK 922        TOTAL FREE ENERGY PREDICTED BY IDOCK:   -8.15 KCAL/MOL
REMARK 923 INTER-LIGAND FREE ENERGY PREDICTED BY IDOCK:   -7.41 KCAL/MOL
REMARK 924 INTRA-LIGAND FREE ENERGY PREDICTED BY IDOCK:   -0.74 KCAL/MOL
REMARK 927      BINDING AFFINITY PREDICTED BY RF-SCORE:    0.00 PKD
ROOT
HETATM    1  C   UNL     1     -10.408   9.812  70.752  1.00  0.00    -0.298 C  
HETATM    2  C   UNL     1     -11.058   8.859  71.766  1.00  0.00    -0.433 C  
HETATM    3  C   UNL     1     -10.066   7.783  72.272  1.00  0.00    -0.277 C  
HETATM    4  C   UNL     1     -12.364   8.300  71.211  1.00  0.00    -0.285 C  
HETATM    5  C   UNL     1      -9.579   6.782  71.241  1.00  0.00    -0.172 C  
HETATM    6  C   UNL     1     -10.677   6.975  73.424  1.00  0.00    -0.379 C  
HETATM    7  C   UNL     1      -8.298   6.670  70.846  1.00  0.00    -0.125 C  
HETATM    8  C   UNL     1      -7.671   5.464  70.156  1.00  0.00    -0.077 C  
HETATM    9  C   UNL     1      -7.876   5.200  68.597  1.00  0.00    -0.079 C  
HETATM   10  C   UNL     1      -7.915   4.220  71.023  1.00  0.00    -0.071 C  
HETATM   11  C   UNL     1      -9.342   4.976  68.228  1.00  0.00    -0.160 C  
HETATM   12  C   UNL     1      -9.853   6.304  67.683  1.00  0.00    -0.135 C  
HETATM   13  C   UNL     1      -8.665   7.299  67.697  1.00  0.00    -0.125 C  
HETATM   14  C   UNL     1      -8.727   8.340  66.583  1.00  0.00    -0.150 C  
HETATM   15  C   UNL     1      -7.355   8.699  66.095  1.00  0.00    -0.085 C  
HETATM   16  C   UNL     1      -9.870   8.855  66.081  1.00  0.00    -0.326 C  
HETATM   17  C   UNL     1      -6.050   6.896  68.220  1.00  0.00    -0.033 C  
HETATM   18  C   UNL     1      -6.734   7.458  65.438  1.00  0.00    -0.048 C  
HETATM   19  C   UNL     1      -7.396   6.371  67.665  1.00  0.00    -0.088 C  
HETATM   20  C   UNL     1      -7.138   6.114  66.142  1.00  0.00    -0.067 C  
ENDROOT
BRANCH  16  21
HETATM   21  C   UNL     1      -9.906   9.852  65.022  1.00  0.00    -0.323 C  
HETATM   22  C   UNL     1     -10.270  11.137  65.090  1.00  0.00    -0.347 C  
HETATM   23  C   UNL     1     -10.180  11.989  63.829  1.00  0.00    -0.447 C  
HETATM   24  C   UNL     1     -11.526  12.627  63.485  1.00  0.00    -0.491 C  
HETATM   25  C   UNL     1     -12.090  13.388  64.688  1.00  0.00    -0.456 C  
HETATM   26  O   UNL     1     -12.455  11.632  63.051  1.00  0.00    -0.972 OA 
HETATM   27  C   UNL     1     -12.138  12.519  65.955  1.00  0.00    -0.420 C  
HETATM   28  H   UNL     1     -13.292  12.028  62.838  1.00  0.00     0.000 HD 
HETATM   29  C   UNL     1     -10.827  11.837  66.232  1.00  0.00    -0.325 C  
HETATM   30  C   UNL     1     -10.192  11.912  67.409  1.00  0.00    -0.214 C  
ENDBRANCH  16  21
TORSDOF 1
ENDMDL
MODEL       13
REMARK 921   NORMALIZED FREE ENERGY PREDICTED BY IDOCK:   -7.15 KCAL/MOL
REMARK 922        TOTAL FREE ENERGY PREDICTED BY IDOCK:   -8.04 KCAL/MOL
REMARK 923 INTER-LIGAND FREE ENERGY PREDICTED BY IDOCK:   -7.34 KCAL/MOL
REMARK 924 INTRA-LIGAND FREE ENERGY PREDICTED BY IDOCK:   -0.70 KCAL/MOL
REMARK 927      BINDING AFFINITY PREDICTED BY RF-SCORE:    0.00 PKD
ROOT
HETATM    1  C   UNL     1     -10.419   9.821  70.827  1.00  0.00    -0.339 C  
HETATM    2  C   UNL     1     -11.163   8.848  71.754  1.00  0.00    -0.432 C  
HETATM    3  C   UNL     1     -10.377   7.531  71.966  1.00  0.00    -0.236 C  
HETATM    4  C   UNL     1     -12.600   8.655  71.282  1.00  0.00    -0.266 C  
HETATM    5  C   UNL     1     -10.202   6.650  70.742  1.00  0.00    -0.221 C  
HETATM    6  C   UNL     1     -11.041   6.667  73.046  1.00  0.00    -0.238 C  
HETATM    7  C   UNL     1      -9.012   6.366  70.184  1.00  0.00    -0.154 C  
HETATM    8  C   UNL     1      -8.713   5.201  69.247  1.00  0.00    -0.108 C  
HETATM    9  C   UNL     1      -9.103   5.256  67.703  1.00  0.00    -0.113 C  
HETATM   10  C   UNL     1      -9.135   3.895  69.937  1.00  0.00    -0.190 C  
HETATM   11  C   UNL     1     -10.611   5.386  67.483  1.00  0.00    -0.204 C  
HETATM   12  C   UNL     1     -10.878   6.861  67.213  1.00  0.00    -0.426 C  
HETATM   13  C   UNL     1      -9.512   7.593  67.236  1.00  0.00    -0.185 C  
HETATM   14  C   UNL     1      -9.452   8.803  66.310  1.00  0.00    -0.300 C  
HETATM   15  C   UNL     1      -8.083   8.973  65.721  1.00  0.00    -0.109 C  
HETATM   16  C   UNL     1     -10.502   9.608  66.034  1.00  0.00    -0.047 C  
HETATM   17  C   UNL     1      -7.003   6.610  67.372  1.00  0.00    -0.078 C  
HETATM   18  C   UNL     1      -7.795   7.770  64.811  1.00  0.00    -0.129 C  
HETATM   19  C   UNL     1      -8.473   6.458  66.909  1.00  0.00    -0.110 C  
HETATM   20  C   UNL     1      -8.407   6.426  65.346  1.00  0.00    -0.141 C  
ENDROOT
BRANCH  16  21
HETATM   21  C   UNL     1     -10.420  10.761  65.152  1.00  0.00    -0.299 C  
HETATM   22  C   UNL     1     -10.636  12.051  65.434  1.00  0.00    -0.319 C  
HETATM   23  C   UNL     1     -10.445  13.082  64.327  1.00  0.00    -0.424 C  
HETATM   24  C   UNL     1     -11.709  13.916  64.114  1.00  0.00    -0.340 C  
HETATM   25  C   UNL     1     -12.184  14.529  65.434  1.00  0.00    -0.294 C  
HETATM   26  O   UNL     1     -12.745  13.117  63.539  1.00  0.00    -0.711 OA 
HETATM   27  C   UNL     1     -12.334  13.476  66.543  1.00  0.00    -0.382 C  
HETATM   28  H   UNL     1     -13.530  13.636  63.407  1.00  0.00     0.000 HD 
HETATM   29  C   UNL     1     -11.110  12.613  66.684  1.00  0.00    -0.314 C  
HETATM   30  C   UNL     1     -10.474  12.422  67.847  1.00  0.00    -0.227 C  
ENDBRANCH  16  21
TORSDOF 1
ENDMDL
MODEL       14
REMARK 921   NORMALIZED FREE ENERGY PREDICTED BY IDOCK:   -7.04 KCAL/MOL
REMARK 922        TOTAL FREE ENERGY PREDICTED BY IDOCK:   -7.93 KCAL/MOL
REMARK 923 INTER-LIGAND FREE ENERGY PREDICTED BY IDOCK:   -7.11 KCAL/MOL
REMARK 924 INTRA-LIGAND FREE ENERGY PREDICTED BY IDOCK:   -0.82 KCAL/MOL
REMARK 927      BINDING AFFINITY PREDICTED BY RF-SCORE:    0.00 PKD
ROOT
HETATM    1  C   UNL     1     -10.448   4.648  65.912  1.00  0.00    -0.305 C  
HETATM    2  C   UNL     1      -9.455   3.576  66.384  1.00  0.00    -0.164 C  
HETATM    3  C   UNL     1      -9.527   3.350  67.915  1.00  0.00    -0.220 C  
HETATM    4  C   UNL     1      -8.057   3.875  65.857  1.00  0.00    -0.101 C  
HETATM    5  C   UNL     1      -9.094   4.516  68.785  1.00  0.00    -0.166 C  
HETATM    6  C   UNL     1      -8.677   2.144  68.330  1.00  0.00    -0.125 C  
HETATM    7  C   UNL     1      -9.914   5.176  69.622  1.00  0.00    -0.313 C  
HETATM    8  C   UNL     1      -9.487   6.049  70.797  1.00  0.00    -0.189 C  
HETATM    9  C   UNL     1      -8.975   7.542  70.579  1.00  0.00    -0.152 C  
HETATM   10  C   UNL     1      -8.581   5.221  71.720  1.00  0.00    -0.131 C  
HETATM   11  C   UNL     1      -7.703   7.608  69.732  1.00  0.00    -0.098 C  
HETATM   12  C   UNL     1      -8.149   7.958  68.318  1.00  0.00    -0.123 C  
HETATM   13  C   UNL     1      -9.688   8.137  68.347  1.00  0.00    -0.172 C  
HETATM   14  C   UNL     1     -10.204   9.153  67.333  1.00  0.00    -0.310 C  
HETATM   15  C   UNL     1     -11.394   9.897  67.862  1.00  0.00     0.053 C  
HETATM   16  C   UNL     1      -9.648   9.374  66.122  1.00  0.00    -0.311 C  
HETATM   17  C   UNL     1     -11.404   8.197  70.428  1.00  0.00    -0.181 C  
HETATM   18  C   UNL     1     -10.944  10.739  69.064  1.00  0.00    -0.289 C  
HETATM   19  C   UNL     1      -9.998   8.487  69.849  1.00  0.00    -0.189 C  
HETATM   20  C   UNL     1      -9.834  10.042  69.930  1.00  0.00    -0.266 C  
ENDROOT
BRANCH  16  21
HETATM   21  C   UNL     1     -10.160  10.345  65.167  1.00  0.00    -0.379 C  
HETATM   22  C   UNL     1     -10.140  11.681  65.235  1.00  0.00    -0.305 C  
HETATM   23  C   UNL     1     -10.716  12.479  64.071  1.00  0.00    -0.449 C  
HETATM   24  C   UNL     1     -11.814  13.436  64.536  1.00  0.00    -0.398 C  
HETATM   25  C   UNL     1     -11.316  14.317  65.684  1.00  0.00    -0.317 C  
HETATM   26  O   UNL     1     -12.974  12.707  64.940  1.00  0.00    -0.830 OA 
HETATM   27  C   UNL     1     -10.708  13.492  66.829  1.00  0.00    -0.278 C  
HETATM   28  H   UNL     1     -13.656  13.302  65.229  1.00  0.00     0.000 HD 
HETATM   29  C   UNL     1      -9.687  12.501  66.342  1.00  0.00    -0.253 C  
HETATM   30  C   UNL     1      -8.447  12.416  66.840  1.00  0.00    -0.147 C  
ENDBRANCH  16  21
TORSDOF 1
ENDMDL
MODEL       15
REMARK 921   NORMALIZED FREE ENERGY PREDICTED BY IDOCK:   -6.73 KCAL/MOL
REMARK 922        TOTAL FREE ENERGY PREDICTED BY IDOCK:   -7.60 KCAL/MOL
REMARK 923 INTER-LIGAND FREE ENERGY PREDICTED BY IDOCK:   -6.57 KCAL/MOL
REMARK 924 INTRA-LIGAND FREE ENERGY PREDICTED BY IDOCK:   -1.03 KCAL/MOL
REMARK 927      BINDING AFFINITY PREDICTED BY RF-SCORE:    0.00 PKD
ROOT
HETATM    1  C   UNL     1     -12.019  12.584  69.120  1.00  0.00    -0.287 C  
HETATM    2  C   UNL     1     -11.423  13.665  68.205  1.00  0.00    -0.348 C  
HETATM    3  C   UNL     1     -11.292  13.178  66.741  1.00  0.00    -0.353 C  
HETATM    4  C   UNL     1     -10.135  14.219  68.802  1.00  0.00    -0.217 C  
HETATM    5  C   UNL     1     -10.307  12.049  66.495  1.00  0.00    -0.240 C  
HETATM    6  C   UNL     1     -10.886  14.332  65.816  1.00  0.00    -0.303 C  
HETATM    7  C   UNL     1     -10.657  10.827  66.056  1.00  0.00    -0.224 C  
HETATM    8  C   UNL     1      -9.731   9.805  65.406  1.00  0.00    -0.383 C  
HETATM    9  C   UNL     1      -8.753   8.898  66.279  1.00  0.00    -0.162 C  
HETATM   10  C   UNL     1      -9.042  10.463  64.202  1.00  0.00    -0.272 C  
HETATM   11  C   UNL     1      -7.725   9.723  67.055  1.00  0.00    -0.095 C  
HETATM   12  C   UNL     1      -8.261   9.846  68.475  1.00  0.00    -0.106 C  
HETATM   13  C   UNL     1      -9.592   9.054  68.540  1.00  0.00    -0.161 C  
HETATM   14  C   UNL     1      -9.873   8.444  69.909  1.00  0.00    -0.186 C  
HETATM   15  C   UNL     1     -10.587   7.130  69.784  1.00  0.00    -0.250 C  
HETATM   16  C   UNL     1      -9.507   8.999  71.084  1.00  0.00    -0.348 C  
HETATM   17  C   UNL     1     -10.752   7.430  66.725  1.00  0.00    -0.202 C  
HETATM   18  C   UNL     1      -9.645   6.131  69.095  1.00  0.00    -0.154 C  
HETATM   19  C   UNL     1      -9.470   8.016  67.365  1.00  0.00    -0.187 C  
HETATM   20  C   UNL     1      -8.733   6.791  68.001  1.00  0.00    -0.118 C  
ENDROOT
BRANCH  16  21
HETATM   21  C   UNL     1      -9.791   8.401  72.380  1.00  0.00    -0.378 C  
HETATM   22  C   UNL     1      -9.200   7.355  72.970  1.00  0.00    -0.211 C  
HETATM   23  C   UNL     1      -9.664   6.946  74.363  1.00  0.00    -0.264 C  
HETATM   24  C   UNL     1     -10.107   5.483  74.398  1.00  0.00    -0.266 C  
HETATM   25  C   UNL     1      -9.017   4.570  73.833  1.00  0.00    -0.102 C  
HETATM   26  O   UNL     1     -11.323   5.312  73.668  1.00  0.00    -0.455 OA 
HETATM   27  C   UNL     1      -8.541   5.024  72.444  1.00  0.00    -0.124 C  
HETATM   28  H   UNL     1     -11.599   4.402  73.690  1.00  0.00     0.000 HD 
HETATM   29  C   UNL     1      -8.184   6.485  72.409  1.00  0.00    -0.105 C  
HETATM   30  C   UNL     1      -7.010   6.945  71.957  1.00  0.00    -0.069 C  
ENDBRANCH  16  21
TORSDOF 1
ENDMDL
MODEL       16
REMARK 921   NORMALIZED FREE ENERGY PREDICTED BY IDOCK:   -6.72 KCAL/MOL
REMARK 922        TOTAL FREE ENERGY PREDICTED BY IDOCK:   -7.58 KCAL/MOL
REMARK 923 INTER-LIGAND FREE ENERGY PREDICTED BY IDOCK:   -6.54 KCAL/MOL
REMARK 924 INTRA-LIGAND FREE ENERGY PREDICTED BY IDOCK:   -1.04 KCAL/MOL
REMARK 927      BINDING AFFINITY PREDICTED BY RF-SCORE:    0.00 PKD
ROOT
HETATM    1  C   UNL     1      -6.367  15.851  70.064  1.00  0.00    -0.090 C  
HETATM    2  C   UNL     1      -5.944  17.118  69.306  1.00  0.00    -0.207 C  
HETATM    3  C   UNL     1      -7.143  18.056  69.027  1.00  0.00    -0.241 C  
HETATM    4  C   UNL     1      -5.129  16.753  68.071  1.00  0.00    -0.121 C  
HETATM    5  C   UNL     1      -8.206  17.524  68.082  1.00  0.00    -0.251 C  
HETATM    6  C   UNL     1      -6.667  19.396  68.452  1.00  0.00    -0.305 C  
HETATM    7  C   UNL     1      -9.477  17.275  68.442  1.00  0.00    -0.283 C  
HETATM    8  C   UNL     1     -10.670  17.144  67.502  1.00  0.00    -0.276 C  
HETATM    9  C   UNL     1     -10.940  15.802  66.685  1.00  0.00    -0.179 C  
HETATM   10  C   UNL     1     -10.756  18.412  66.640  1.00  0.00    -0.249 C  
HETATM   11  C   UNL     1      -9.806  15.468  65.715  1.00  0.00    -0.392 C  
HETATM   12  C   UNL     1      -8.943  14.422  66.409  1.00  0.00    -0.122 C  
HETATM   13  C   UNL     1      -9.599  14.114  67.779  1.00  0.00    -0.219 C  
HETATM   14  C   UNL     1      -9.376  12.682  68.254  1.00  0.00    -0.195 C  
HETATM   15  C   UNL     1     -10.562  12.169  69.017  1.00  0.00    -0.117 C  
HETATM   16  C   UNL     1      -8.265  11.956  68.001  1.00  0.00    -0.157 C  
HETATM   17  C   UNL     1     -11.971  14.897  68.800  1.00  0.00    -0.284 C  
HETATM   18  C   UNL     1     -11.756  12.081  68.055  1.00  0.00    -0.398 C  
HETATM   19  C   UNL     1     -11.106  14.515  67.573  1.00  0.00    -0.316 C  
HETATM   20  C   UNL     1     -11.776  13.229  66.984  1.00  0.00    -0.439 C  
ENDROOT
BRANCH  16  21
HETATM   21  C   UNL     1      -8.071  10.593  68.470  1.00  0.00    -0.125 C  
HETATM   22  C   UNL     1      -8.508   9.449  67.929  1.00  0.00    -0.116 C  
HETATM   23  C   UNL     1      -8.132   8.134  68.603  1.00  0.00    -0.124 C  
HETATM   24  C   UNL     1      -9.371   7.313  68.959  1.00  0.00    -0.148 C  
HETATM   25  C   UNL     1     -10.272   7.128  67.735  1.00  0.00    -0.234 C  
HETATM   26  O   UNL     1     -10.098   7.939  70.018  1.00  0.00    -0.193 OA 
HETATM   27  C   UNL     1     -10.607   8.464  67.054  1.00  0.00    -0.316 C  
HETATM   28  H   UNL     1     -10.869   7.428  70.239  1.00  0.00     0.000 HD 
HETATM   29  C   UNL     1      -9.382   9.293  66.783  1.00  0.00    -0.202 C  
HETATM   30  C   UNL     1      -9.086   9.797  65.578  1.00  0.00    -0.242 C  
ENDBRANCH  16  21
TORSDOF 1
ENDMDL
MODEL       17
REMARK 921   NORMALIZED FREE ENERGY PREDICTED BY IDOCK:   -6.59 KCAL/MOL
REMARK 922        TOTAL FREE ENERGY PREDICTED BY IDOCK:   -7.44 KCAL/MOL
REMARK 923 INTER-LIGAND FREE ENERGY PREDICTED BY IDOCK:   -6.40 KCAL/MOL
REMARK 924 INTRA-LIGAND FREE ENERGY PREDICTED BY IDOCK:   -1.05 KCAL/MOL
REMARK 927      BINDING AFFINITY PREDICTED BY RF-SCORE:    0.00 PKD
ROOT
HETATM    1  C   UNL     1     -11.895  12.408  68.396  1.00  0.00    -0.361 C  
HETATM    2  C   UNL     1     -11.224  13.442  67.478  1.00  0.00    -0.309 C  
HETATM    3  C   UNL     1     -10.943  12.870  66.067  1.00  0.00    -0.301 C  
HETATM    4  C   UNL     1     -10.008  14.053  68.164  1.00  0.00    -0.242 C  
HETATM    5  C   UNL     1      -9.926  11.746  65.989  1.00  0.00    -0.258 C  
HETATM    6  C   UNL     1     -10.461  13.973  65.117  1.00  0.00    -0.415 C  
HETATM    7  C   UNL     1     -10.217  10.494  65.594  1.00  0.00    -0.315 C  
HETATM    8  C   UNL     1      -9.220   9.450  65.103  1.00  0.00    -0.287 C  
HETATM    9  C   UNL     1      -8.323   8.615  66.122  1.00  0.00    -0.127 C  
HETATM   10  C   UNL     1      -8.423  10.046  63.933  1.00  0.00    -0.179 C  
HETATM   11  C   UNL     1      -7.386   9.503  66.942  1.00  0.00    -0.087 C  
HETATM   12  C   UNL     1      -8.062   9.702  68.293  1.00  0.00    -0.105 C  
HETATM   13  C   UNL     1      -9.384   8.893  68.276  1.00  0.00    -0.149 C  
HETATM   14  C   UNL     1      -9.792   8.361  69.646  1.00  0.00    -0.184 C  
HETATM   15  C   UNL     1     -10.474   7.030  69.533  1.00  0.00    -0.235 C  
HETATM   16  C   UNL     1      -9.550   8.993  70.815  1.00  0.00    -0.308 C  
HETATM   17  C   UNL     1     -10.340   7.142  66.460  1.00  0.00    -0.104 C  
HETATM   18  C   UNL     1      -9.458   6.008  69.003  1.00  0.00    -0.143 C  
HETATM   19  C   UNL     1      -9.134   7.788  67.185  1.00  0.00    -0.154 C  
HETATM   20  C   UNL     1      -8.449   6.616  67.965  1.00  0.00    -0.116 C  
ENDROOT
BRANCH  16  21
HETATM   21  C   UNL     1      -9.953   8.469  72.110  1.00  0.00    -0.387 C  
HETATM   22  C   UNL     1      -9.400   7.484  72.828  1.00  0.00    -0.217 C  
HETATM   23  C   UNL     1      -9.999   7.149  74.189  1.00  0.00    -0.238 C  
HETATM   24  C   UNL     1     -10.404   5.677  74.276  1.00  0.00    -0.272 C  
HETATM   25  C   UNL     1      -9.235   4.767  73.890  1.00  0.00    -0.114 C  
HETATM   26  O   UNL     1     -11.529   5.418  73.435  1.00  0.00    -0.490 OA 
HETATM   27  C   UNL     1      -8.626   5.148  72.531  1.00  0.00    -0.121 C  
HETATM   28  H   UNL     1     -11.781   4.503  73.490  1.00  0.00     0.000 HD 
HETATM   29  C   UNL     1      -8.307   6.615  72.436  1.00  0.00    -0.106 C  
HETATM   30  C   UNL     1      -7.105   7.086  72.079  1.00  0.00    -0.073 C  
ENDBRANCH  16  21
TORSDOF 1
ENDMDL
MODEL       18
REMARK 921   NORMALIZED FREE ENERGY PREDICTED BY IDOCK:   -6.48 KCAL/MOL
REMARK 922        TOTAL FREE ENERGY PREDICTED BY IDOCK:   -7.33 KCAL/MOL
REMARK 923 INTER-LIGAND FREE ENERGY PREDICTED BY IDOCK:   -6.39 KCAL/MOL
REMARK 924 INTRA-LIGAND FREE ENERGY PREDICTED BY IDOCK:   -0.94 KCAL/MOL
REMARK 927      BINDING AFFINITY PREDICTED BY RF-SCORE:    0.00 PKD
ROOT
HETATM    1  C   UNL     1      -6.548  12.748  69.790  1.00  0.00     0.071 C  
HETATM    2  C   UNL     1      -6.379  13.559  68.497  1.00  0.00    -0.088 C  
HETATM    3  C   UNL     1      -7.568  14.520  68.254  1.00  0.00    -0.121 C  
HETATM    4  C   UNL     1      -6.065  12.636  67.325  1.00  0.00    -0.086 C  
HETATM    5  C   UNL     1      -8.912  13.868  67.985  1.00  0.00    -0.184 C  
HETATM    6  C   UNL     1      -7.282  15.455  67.073  1.00  0.00    -0.072 C  
HETATM    7  C   UNL     1      -9.982  13.988  68.791  1.00  0.00    -0.164 C  
HETATM    8  C   UNL     1     -11.434  13.728  68.405  1.00  0.00    -0.351 C  
HETATM    9  C   UNL     1     -12.018  12.247  68.324  1.00  0.00    -0.259 C  
HETATM   10  C   UNL     1     -11.778  14.588  67.181  1.00  0.00    -0.420 C  
HETATM   11  C   UNL     1     -11.312  11.395  67.269  1.00  0.00    -0.347 C  
HETATM   12  C   UNL     1     -10.294  10.544  68.018  1.00  0.00    -0.212 C  
HETATM   13  C   UNL     1     -10.434  10.873  69.526  1.00  0.00    -0.176 C  
HETATM   14  C   UNL     1     -10.104   9.698  70.440  1.00  0.00    -0.336 C  
HETATM   15  C   UNL     1     -10.960   9.708  71.672  1.00  0.00    -0.149 C  
HETATM   16  C   UNL     1      -9.178   8.753  70.167  1.00  0.00    -0.179 C  
HETATM   17  C   UNL     1     -12.265  12.365  70.830  1.00  0.00    -0.336 C  
HETATM   18  C   UNL     1     -12.418   9.480  71.251  1.00  0.00    -0.432 C  
HETATM   19  C   UNL     1     -11.902  11.422  69.657  1.00  0.00    -0.431 C  
HETATM   20  C   UNL     1     -12.779  10.143  69.875  1.00  0.00     0.191 C  
ENDROOT
BRANCH  16  21
HETATM   21  C   UNL     1      -8.876   7.642  71.057  1.00  0.00    -0.142 C  
HETATM   22  C   UNL     1      -9.611   6.557  71.325  1.00  0.00    -0.175 C  
HETATM   23  C   UNL     1      -9.045   5.510  72.277  1.00  0.00    -0.149 C  
HETATM   24  C   UNL     1      -9.988   5.252  73.452  1.00  0.00    -0.168 C  
HETATM   25  C   UNL     1     -11.397   4.917  72.955  1.00  0.00    -0.354 C  
HETATM   26  O   UNL     1     -10.027   6.386  74.320  1.00  0.00    -0.260 OA 
HETATM   27  C   UNL     1     -11.931   5.968  71.970  1.00  0.00    -0.237 C  
HETATM   28  H   UNL     1     -10.614   6.225  75.050  1.00  0.00     0.000 HD 
HETATM   29  C   UNL     1     -10.956   6.266  70.865  1.00  0.00    -0.344 C  
HETATM   30  C   UNL     1     -11.276   6.213  69.565  1.00  0.00    -0.482 C  
ENDBRANCH  16  21
TORSDOF 1
ENDMDL
MODEL       19
REMARK 921   NORMALIZED FREE ENERGY PREDICTED BY IDOCK:   -6.46 KCAL/MOL
REMARK 922        TOTAL FREE ENERGY PREDICTED BY IDOCK:   -7.30 KCAL/MOL
REMARK 923 INTER-LIGAND FREE ENERGY PREDICTED BY IDOCK:   -6.55 KCAL/MOL
REMARK 924 INTRA-LIGAND FREE ENERGY PREDICTED BY IDOCK:   -0.76 KCAL/MOL
REMARK 927      BINDING AFFINITY PREDICTED BY RF-SCORE:    0.00 PKD
ROOT
HETATM    1  C   UNL     1      -9.655   9.686  70.270  1.00  0.00    -0.307 C  
HETATM    2  C   UNL     1     -10.082   8.598  71.267  1.00  0.00    -0.312 C  
HETATM    3  C   UNL     1      -8.942   7.588  71.548  1.00  0.00    -0.142 C  
HETATM    4  C   UNL     1     -11.395   7.960  70.830  1.00  0.00    -0.290 C  
HETATM    5  C   UNL     1      -8.510   6.722  70.377  1.00  0.00    -0.135 C  
HETATM    6  C   UNL     1      -9.324   6.637  72.688  1.00  0.00    -0.149 C  
HETATM    7  C   UNL     1      -7.288   6.767  69.819  1.00  0.00    -0.089 C  
HETATM    8  C   UNL     1      -6.655   5.685  68.951  1.00  0.00    -0.048 C  
HETATM    9  C   UNL     1      -7.039   5.525  67.412  1.00  0.00    -0.074 C  
HETATM   10  C   UNL     1      -6.675   4.360  69.726  1.00  0.00    -0.034 C  
HETATM   11  C   UNL     1      -8.517   5.190  67.209  1.00  0.00    -0.106 C  
HETATM   12  C   UNL     1      -9.208   6.500  66.853  1.00  0.00    -0.153 C  
HETATM   13  C   UNL     1      -8.119   7.602  66.809  1.00  0.00    -0.115 C  
HETATM   14  C   UNL     1      -8.417   8.715  65.810  1.00  0.00    -0.165 C  
HETATM   15  C   UNL     1      -7.157   9.243  65.190  1.00  0.00    -0.090 C  
HETATM   16  C   UNL     1      -9.656   9.155  65.501  1.00  0.00    -0.239 C  
HETATM   17  C   UNL     1      -5.432   7.415  66.966  1.00  0.00    -0.026 C  
HETATM   18  C   UNL     1      -6.523   8.124  64.352  1.00  0.00    -0.065 C  
HETATM   19  C   UNL     1      -6.790   6.807  66.537  1.00  0.00    -0.061 C  
HETATM   20  C   UNL     1      -6.713   6.696  64.977  1.00  0.00    -0.050 C  
ENDROOT
BRANCH  16  21
HETATM   21  C   UNL     1      -9.917  10.223  64.549  1.00  0.00    -0.359 C  
HETATM   22  C   UNL     1     -10.337  11.471  64.781  1.00  0.00    -0.341 C  
HETATM   23  C   UNL     1     -10.498  12.419  63.598  1.00  0.00    -0.460 C  
HETATM   24  C   UNL     1     -11.916  12.986  63.523  1.00  0.00    -0.545 C  
HETATM   25  C   UNL     1     -12.322  13.615  64.858  1.00  0.00    -0.442 C  
HETATM   26  O   UNL     1     -12.845  11.965  63.155  1.00  0.00    -0.799 OA 
HETATM   27  C   UNL     1     -12.117  12.653  66.039  1.00  0.00    -0.429 C  
HETATM   28  H   UNL     1     -13.726  12.318  63.108  1.00  0.00     0.000 HD 
HETATM   29  C   UNL     1     -10.742  12.044  66.051  1.00  0.00    -0.317 C  
HETATM   30  C   UNL     1      -9.932  12.074  67.117  1.00  0.00    -0.208 C  
ENDBRANCH  16  21
TORSDOF 1
ENDMDL
MODEL       20
REMARK 921   NORMALIZED FREE ENERGY PREDICTED BY IDOCK:   -6.41 KCAL/MOL
REMARK 922        TOTAL FREE ENERGY PREDICTED BY IDOCK:   -7.25 KCAL/MOL
REMARK 923 INTER-LIGAND FREE ENERGY PREDICTED BY IDOCK:   -6.75 KCAL/MOL
REMARK 924 INTRA-LIGAND FREE ENERGY PREDICTED BY IDOCK:   -0.50 KCAL/MOL
REMARK 927      BINDING AFFINITY PREDICTED BY RF-SCORE:    0.00 PKD
ROOT
HETATM    1  C   UNL     1     -10.568   5.263  66.471  1.00  0.00    -0.348 C  
HETATM    2  C   UNL     1      -9.410   4.277  66.252  1.00  0.00    -0.165 C  
HETATM    3  C   UNL     1      -9.304   3.241  67.397  1.00  0.00    -0.242 C  
HETATM    4  C   UNL     1      -8.116   5.030  65.963  1.00  0.00    -0.108 C  
HETATM    5  C   UNL     1      -8.933   3.787  68.764  1.00  0.00    -0.177 C  
HETATM    6  C   UNL     1      -8.276   2.155  67.058  1.00  0.00    -0.080 C  
HETATM    7  C   UNL     1      -9.742   3.742  69.838  1.00  0.00    -0.200 C  
HETATM    8  C   UNL     1      -9.313   3.880  71.295  1.00  0.00    -0.213 C  
HETATM    9  C   UNL     1      -9.010   5.306  71.939  1.00  0.00    -0.146 C  
HETATM   10  C   UNL     1      -8.227   2.835  71.587  1.00  0.00    -0.063 C  
HETATM   11  C   UNL     1      -7.845   6.023  71.256  1.00  0.00    -0.112 C  
HETATM   12  C   UNL     1      -8.466   7.018  70.283  1.00  0.00    -0.138 C  
HETATM   13  C   UNL     1     -10.005   6.909  70.427  1.00  0.00    -0.190 C  
HETATM   14  C   UNL     1     -10.738   8.220  70.158  1.00  0.00    -0.239 C  
HETATM   15  C   UNL     1     -11.953   8.355  71.028  1.00  0.00    -0.255 C  
HETATM   16  C   UNL     1     -10.333   9.153  69.269  1.00  0.00    -0.223 C  
HETATM   17  C   UNL     1     -11.504   5.549  72.211  1.00  0.00    -0.221 C  
HETATM   18  C   UNL     1     -11.494   8.456  72.489  1.00  0.00    -0.422 C  
HETATM   19  C   UNL     1     -10.207   6.324  71.873  1.00  0.00    -0.227 C  
HETATM   20  C   UNL     1     -10.228   7.582  72.805  1.00  0.00    -0.307 C  
ENDROOT
BRANCH  16  21
HETATM   21  C   UNL     1     -11.051  10.394  69.024  1.00  0.00    -0.297 C  
HETATM   22  C   UNL     1     -10.973  11.216  67.971  1.00  0.00    -0.307 C  
HETATM   23  C   UNL     1     -11.870  12.448  67.939  1.00  0.00    -0.370 C  
HETATM   24  C   UNL     1     -11.054  13.731  67.779  1.00  0.00    -0.268 C  
HETATM   25  C   UNL     1     -10.119  13.634  66.571  1.00  0.00    -0.286 C  
HETATM   26  O   UNL     1     -10.303  13.998  68.964  1.00  0.00    -0.346 OA 
HETATM   27  C   UNL     1      -9.251  12.367  66.608  1.00  0.00    -0.218 C  
HETATM   28  H   UNL     1      -9.797  14.796  68.865  1.00  0.00     0.000 HD 
HETATM   29  C   UNL     1     -10.063  11.123  66.846  1.00  0.00    -0.250 C  
HETATM   30  C   UNL     1     -10.000  10.041  66.058  1.00  0.00    -0.334 C  
ENDBRANCH  16  21
TORSDOF 1
ENDMDL
MODEL       21
REMARK 921   NORMALIZED FREE ENERGY PREDICTED BY IDOCK:   -6.30 KCAL/MOL
REMARK 922        TOTAL FREE ENERGY PREDICTED BY IDOCK:   -7.14 KCAL/MOL
REMARK 923 INTER-LIGAND FREE ENERGY PREDICTED BY IDOCK:   -6.06 KCAL/MOL
REMARK 924 INTRA-LIGAND FREE ENERGY PREDICTED BY IDOCK:   -1.08 KCAL/MOL
REMARK 927      BINDING AFFINITY PREDICTED BY RF-SCORE:    0.00 PKD
ROOT
HETATM    1  C   UNL     1      -8.074  15.475  69.212  1.00  0.00    -0.248 C  
HETATM    2  C   UNL     1      -8.321  16.458  68.058  1.00  0.00    -0.178 C  
HETATM    3  C   UNL     1      -9.793  16.431  67.577  1.00  0.00    -0.239 C  
HETATM    4  C   UNL     1      -7.293  16.253  66.952  1.00  0.00    -0.266 C  
HETATM    5  C   UNL     1     -10.263  15.140  66.931  1.00  0.00    -0.259 C  
HETATM    6  C   UNL     1     -10.059  17.556  66.569  1.00  0.00    -0.331 C  
HETATM    7  C   UNL     1     -11.224  14.350  67.441  1.00  0.00    -0.337 C  
HETATM    8  C   UNL     1     -12.023  13.298  66.679  1.00  0.00    -0.446 C  
HETATM    9  C   UNL     1     -11.410  11.862  66.359  1.00  0.00    -0.400 C  
HETATM   10  C   UNL     1     -12.680  13.967  65.462  1.00  0.00    -0.536 C  
HETATM   11  C   UNL     1     -10.168  11.939  65.471  1.00  0.00    -0.290 C  
HETATM   12  C   UNL     1      -8.968  11.823  66.402  1.00  0.00    -0.201 C  
HETATM   13  C   UNL     1      -9.514  11.637  67.841  1.00  0.00    -0.181 C  
HETATM   14  C   UNL     1      -8.606  10.799  68.735  1.00  0.00    -0.156 C  
HETATM   15  C   UNL     1      -9.402   9.976  69.704  1.00  0.00    -0.242 C  
HETATM   16  C   UNL     1      -7.257  10.780  68.652  1.00  0.00    -0.089 C  
HETATM   17  C   UNL     1     -12.033  11.234  68.719  1.00  0.00    -0.350 C  
HETATM   18  C   UNL     1     -10.222   8.950  68.908  1.00  0.00    -0.220 C  
HETATM   19  C   UNL     1     -10.955  11.046  67.623  1.00  0.00    -0.332 C  
HETATM   20  C   UNL     1     -10.733   9.499  67.529  1.00  0.00    -0.311 C  
ENDROOT
BRANCH  16  21
HETATM   21  C   UNL     1      -6.410   9.977  69.520  1.00  0.00    -0.049 C  
HETATM   22  C   UNL     1      -6.129   8.671  69.445  1.00  0.00    -0.041 C  
HETATM   23  C   UNL     1      -5.170   8.071  70.467  1.00  0.00    -0.023 C  
HETATM   24  C   UNL     1      -5.811   6.904  71.219  1.00  0.00    -0.036 C  
HETATM   25  C   UNL     1      -6.374   5.870  70.241  1.00  0.00    -0.032 C  
HETATM   26  O   UNL     1      -6.842   7.375  72.088  1.00  0.00    -0.058 OA 
HETATM   27  C   UNL     1      -7.309   6.504  69.199  1.00  0.00    -0.093 C  
HETATM   28  H   UNL     1      -7.240   6.650  72.555  1.00  0.00     0.000 HD 
HETATM   29  C   UNL     1      -6.691   7.699  68.526  1.00  0.00    -0.054 C  
HETATM   30  C   UNL     1      -6.610   7.835  67.196  1.00  0.00    -0.063 C  
ENDBRANCH  16  21
TORSDOF 1
ENDMDL
MODEL       22
REMARK 921   NORMALIZED FREE ENERGY PREDICTED BY IDOCK:   -6.25 KCAL/MOL
REMARK 922        TOTAL FREE ENERGY PREDICTED BY IDOCK:   -7.09 KCAL/MOL
REMARK 923 INTER-LIGAND FREE ENERGY PREDICTED BY IDOCK:   -6.49 KCAL/MOL
REMARK 924 INTRA-LIGAND FREE ENERGY PREDICTED BY IDOCK:   -0.60 KCAL/MOL
REMARK 927      BINDING AFFINITY PREDICTED BY RF-SCORE:    0.00 PKD
ROOT
HETATM    1  C   UNL     1      -6.495   8.388  72.311  1.00  0.00    -0.080 C  
HETATM    2  C   UNL     1      -6.995   7.532  73.484  1.00  0.00    -0.093 C  
HETATM    3  C   UNL     1      -7.279   6.071  73.059  1.00  0.00    -0.089 C  
HETATM    4  C   UNL     1      -8.159   8.220  74.188  1.00  0.00    -0.284 C  
HETATM    5  C   UNL     1      -8.419   5.868  72.077  1.00  0.00    -0.125 C  
HETATM    6  C   UNL     1      -7.582   5.195  74.280  1.00  0.00    -0.090 C  
HETATM    7  C   UNL     1      -8.263   5.385  70.831  1.00  0.00    -0.117 C  
HETATM    8  C   UNL     1      -9.355   4.777  69.958  1.00  0.00    -0.213 C  
HETATM    9  C   UNL     1     -10.391   5.694  69.167  1.00  0.00    -0.328 C  
HETATM   10  C   UNL     1     -10.022   3.631  70.733  1.00  0.00    -0.021 C  
HETATM   11  C   UNL     1     -11.250   6.549  70.099  1.00  0.00    -0.437 C  
HETATM   12  C   UNL     1     -10.617   7.934  70.113  1.00  0.00    -0.237 C  
HETATM   13  C   UNL     1      -9.403   7.900  69.150  1.00  0.00    -0.154 C  
HETATM   14  C   UNL     1      -9.124   9.237  68.472  1.00  0.00    -0.132 C  
HETATM   15  C   UNL     1      -8.602   9.043  67.079  1.00  0.00    -0.120 C  
HETATM   16  C   UNL     1      -9.341  10.443  69.040  1.00  0.00    -0.201 C  
HETATM   17  C   UNL     1      -8.583   5.986  67.435  1.00  0.00    -0.102 C  
HETATM   18  C   UNL     1      -9.709   8.398  66.232  1.00  0.00    -0.278 C  
HETATM   19  C   UNL     1      -9.734   6.717  68.169  1.00  0.00    -0.130 C  
HETATM   20  C   UNL     1     -10.589   7.376  67.036  1.00  0.00    -0.414 C  
ENDROOT
BRANCH  16  21
HETATM   21  C   UNL     1      -9.062  11.707  68.375  1.00  0.00    -0.180 C  
HETATM   22  C   UNL     1      -9.910  12.686  68.043  1.00  0.00    -0.218 C  
HETATM   23  C   UNL     1      -9.353  13.940  67.379  1.00  0.00    -0.228 C  
HETATM   24  C   UNL     1     -10.030  14.212  66.036  1.00  0.00    -0.322 C  
HETATM   25  C   UNL     1     -11.553  14.236  66.189  1.00  0.00    -0.374 C  
HETATM   26  O   UNL     1      -9.647  13.227  65.074  1.00  0.00    -0.520 OA 
HETATM   27  C   UNL     1     -12.087  12.979  66.892  1.00  0.00    -0.349 C  
HETATM   28  H   UNL     1     -10.068  13.396  64.239  1.00  0.00     0.000 HD 
HETATM   29  C   UNL     1     -11.355  12.683  68.172  1.00  0.00    -0.334 C  
HETATM   30  C   UNL     1     -11.972  12.491  69.346  1.00  0.00    -0.315 C  
ENDBRANCH  16  21
TORSDOF 1
ENDMDL
MODEL       23
REMARK 921   NORMALIZED FREE ENERGY PREDICTED BY IDOCK:   -6.23 KCAL/MOL
REMARK 922        TOTAL FREE ENERGY PREDICTED BY IDOCK:   -7.06 KCAL/MOL
REMARK 923 INTER-LIGAND FREE ENERGY PREDICTED BY IDOCK:   -6.00 KCAL/MOL
REMARK 924 INTRA-LIGAND FREE ENERGY PREDICTED BY IDOCK:   -1.06 KCAL/MOL
REMARK 927      BINDING AFFINITY PREDICTED BY RF-SCORE:    0.00 PKD
ROOT
HETATM    1  C   UNL     1      -8.634  11.457  63.214  1.00  0.00     0.255 C  
HETATM    2  C   UNL     1      -7.960  10.094  63.435  1.00  0.00    -0.160 C  
HETATM    3  C   UNL     1      -8.820   9.157  64.318  1.00  0.00    -0.139 C  
HETATM    4  C   UNL     1      -6.528  10.279  63.921  1.00  0.00    -0.086 C  
HETATM    5  C   UNL     1      -9.019   9.591  65.759  1.00  0.00    -0.219 C  
HETATM    6  C   UNL     1      -8.224   7.744  64.357  1.00  0.00    -0.041 C  
HETATM    7  C   UNL     1     -10.212   9.914  66.290  1.00  0.00    -0.282 C  
HETATM    8  C   UNL     1     -10.555   9.953  67.775  1.00  0.00    -0.313 C  
HETATM    9  C   UNL     1     -10.134  11.187  68.692  1.00  0.00    -0.208 C  
HETATM   10  C   UNL     1     -10.217   8.589  68.393  1.00  0.00    -0.236 C  
HETATM   11  C   UNL     1      -8.617  11.368  68.771  1.00  0.00    -0.085 C  
HETATM   12  C   UNL     1      -8.266  12.472  67.782  1.00  0.00    -0.166 C  
HETATM   13  C   UNL     1      -9.591  12.968  67.149  1.00  0.00    -0.230 C  
HETATM   14  C   UNL     1      -9.569  14.442  66.762  1.00  0.00    -0.279 C  
HETATM   15  C   UNL     1     -10.915  15.076  66.948  1.00  0.00    -0.324 C  
HETATM   16  C   UNL     1      -8.472  15.103  66.329  1.00  0.00     0.114 C  
HETATM   17  C   UNL     1     -12.151  12.378  67.762  1.00  0.00    -0.074 C  
HETATM   18  C   UNL     1     -11.251  15.070  68.446  1.00  0.00    -0.303 C  
HETATM   19  C   UNL     1     -10.684  12.580  68.212  1.00  0.00    -0.246 C  
HETATM   20  C   UNL     1     -10.721  13.796  69.196  1.00  0.00    -0.154 C  
ENDROOT
BRANCH  16  21
HETATM   21  C   UNL     1      -8.475  16.510  65.959  1.00  0.00    -0.206 C  
HETATM   22  C   UNL     1      -8.482  17.587  66.753  1.00  0.00    -0.275 C  
HETATM   23  C   UNL     1      -8.444  18.968  66.109  1.00  0.00    -0.216 C  
HETATM   24  C   UNL     1      -9.627  19.827  66.555  1.00  0.00    -0.406 C  
HETATM   25  C   UNL     1      -9.718  19.876  68.083  1.00  0.00    -0.497 C  
HETATM   26  O   UNL     1     -10.846  19.325  66.004  1.00  0.00    -0.394 OA 
HETATM   27  C   UNL     1      -9.718  18.474  68.710  1.00  0.00    -0.390 C  
HETATM   28  H   UNL     1     -11.581  19.860  66.282  1.00  0.00     0.000 HD 
HETATM   29  C   UNL     1      -8.593  17.616  68.199  1.00  0.00    -0.261 C  
HETATM   30  C   UNL     1      -7.729  16.980  69.001  1.00  0.00    -0.180 C  
ENDBRANCH  16  21
TORSDOF 1
ENDMDL
MODEL       24
REMARK 921   NORMALIZED FREE ENERGY PREDICTED BY IDOCK:   -6.16 KCAL/MOL
REMARK 922        TOTAL FREE ENERGY PREDICTED BY IDOCK:   -6.99 KCAL/MOL
REMARK 923 INTER-LIGAND FREE ENERGY PREDICTED BY IDOCK:   -6.22 KCAL/MOL
REMARK 924 INTRA-LIGAND FREE ENERGY PREDICTED BY IDOCK:   -0.77 KCAL/MOL
REMARK 927      BINDING AFFINITY PREDICTED BY RF-SCORE:    0.00 PKD
ROOT
HETATM    1  C   UNL     1     -10.147  11.618  63.401  1.00  0.00    -0.468 C  
HETATM    2  C   UNL     1     -11.323  12.606  63.405  1.00  0.00    -0.456 C  
HETATM    3  C   UNL     1     -11.149  13.713  64.474  1.00  0.00    -0.396 C  
HETATM    4  C   UNL     1     -12.648  11.857  63.483  1.00  0.00    -0.579 C  
HETATM    5  C   UNL     1     -11.180  13.257  65.921  1.00  0.00    -0.309 C  
HETATM    6  C   UNL     1     -12.228  14.792  64.323  1.00  0.00    -0.402 C  
HETATM    7  C   UNL     1     -10.137  13.356  66.764  1.00  0.00    -0.260 C  
HETATM    8  C   UNL     1     -10.203  13.315  68.287  1.00  0.00    -0.250 C  
HETATM    9  C   UNL     1     -10.342  11.936  69.074  1.00  0.00    -0.058 C  
HETATM   10  C   UNL     1     -11.186  14.393  68.765  1.00  0.00    -0.282 C  
HETATM   11  C   UNL     1     -11.638  11.197  68.738  1.00  0.00    -0.389 C  
HETATM   12  C   UNL     1     -11.270  10.134  67.710  1.00  0.00    -0.205 C  
HETATM   13  C   UNL     1      -9.741  10.227  67.473  1.00  0.00    -0.196 C  
HETATM   14  C   UNL     1      -9.095   8.892  67.120  1.00  0.00    -0.160 C  
HETATM   15  C   UNL     1      -7.707   8.792  67.679  1.00  0.00    -0.101 C  
HETATM   16  C   UNL     1      -9.702   7.912  66.415  1.00  0.00    -0.235 C  
HETATM   17  C   UNL     1      -7.856  11.672  68.754  1.00  0.00    -0.096 C  
HETATM   18  C   UNL     1      -7.800   8.788  69.211  1.00  0.00    -0.100 C  
HETATM   19  C   UNL     1      -9.197  10.898  68.788  1.00  0.00    -0.187 C  
HETATM   20  C   UNL     1      -8.952   9.700  69.765  1.00  0.00    -0.226 C  
ENDROOT
BRANCH  16  21
HETATM   21  C   UNL     1      -9.065   6.647  66.084  1.00  0.00    -0.143 C  
HETATM   22  C   UNL     1      -8.278   6.349  65.044  1.00  0.00    -0.125 C  
HETATM   23  C   UNL     1      -7.699   4.943  64.946  1.00  0.00    -0.083 C  
HETATM   24  C   UNL     1      -8.067   4.276  63.620  1.00  0.00    -0.092 C  
HETATM   25  C   UNL     1      -7.685   5.170  62.437  1.00  0.00    -0.066 C  
HETATM   26  O   UNL     1      -9.464   3.977  63.582  1.00  0.00    -0.141 OA 
HETATM   27  C   UNL     1      -8.250   6.592  62.577  1.00  0.00    -0.040 C  
HETATM   28  H   UNL     1      -9.692   3.563  62.758  1.00  0.00     0.000 HD 
HETATM   29  C   UNL     1      -7.946   7.201  63.917  1.00  0.00    -0.076 C  
HETATM   30  C   UNL     1      -7.365   8.399  64.068  1.00  0.00    -0.105 C  
ENDBRANCH  16  21
TORSDOF 1
ENDMDL
MODEL       25
REMARK 921   NORMALIZED FREE ENERGY PREDICTED BY IDOCK:   -6.06 KCAL/MOL
REMARK 922        TOTAL FREE ENERGY PREDICTED BY IDOCK:   -6.89 KCAL/MOL
REMARK 923 INTER-LIGAND FREE ENERGY PREDICTED BY IDOCK:   -5.89 KCAL/MOL
REMARK 924 INTRA-LIGAND FREE ENERGY PREDICTED BY IDOCK:   -1.00 KCAL/MOL
REMARK 927      BINDING AFFINITY PREDICTED BY RF-SCORE:    0.00 PKD
ROOT
HETATM    1  C   UNL     1      -8.983   6.744  71.293  1.00  0.00    -0.139 C  
HETATM    2  C   UNL     1      -8.986   5.315  70.728  1.00  0.00    -0.160 C  
HETATM    3  C   UNL     1      -7.789   5.063  69.779  1.00  0.00    -0.071 C  
HETATM    4  C   UNL     1     -10.347   4.981  70.129  1.00  0.00    -0.306 C  
HETATM    5  C   UNL     1      -7.780   5.860  68.486  1.00  0.00    -0.094 C  
HETATM    6  C   UNL     1      -7.703   3.583  69.390  1.00  0.00    -0.051 C  
HETATM    7  C   UNL     1      -6.843   6.772  68.170  1.00  0.00    -0.078 C  
HETATM    8  C   UNL     1      -6.531   7.294  66.772  1.00  0.00    -0.052 C  
HETATM    9  C   UNL     1      -7.438   8.406  66.080  1.00  0.00    -0.084 C  
HETATM   10  C   UNL     1      -6.226   6.098  65.859  1.00  0.00    -0.037 C  
HETATM   11  C   UNL     1      -8.879   7.938  65.866  1.00  0.00    -0.183 C  
HETATM   12  C   UNL     1      -9.694   8.528  67.010  1.00  0.00    -0.266 C  
HETATM   13  C   UNL     1      -8.731   9.379  67.876  1.00  0.00    -0.120 C  
HETATM   14  C   UNL     1      -9.405  10.571  68.547  1.00  0.00    -0.168 C  
HETATM   15  C   UNL     1      -8.471  11.742  68.646  1.00  0.00    -0.068 C  
HETATM   16  C   UNL     1     -10.686  10.585  68.975  1.00  0.00    -0.259 C  
HETATM   17  C   UNL     1      -6.163  10.092  67.453  1.00  0.00    -0.059 C  
HETATM   18  C   UNL     1      -8.146  12.224  67.225  1.00  0.00    -0.182 C  
HETATM   19  C   UNL     1      -7.564   9.748  66.889  1.00  0.00    -0.095 C  
HETATM   20  C   UNL     1      -8.050  11.056  66.180  1.00  0.00    -0.141 C  
ENDROOT
BRANCH  16  21
HETATM   21  C   UNL     1     -11.307  11.732  69.618  1.00  0.00    -0.287 C  
HETATM   22  C   UNL     1     -11.718  12.882  69.069  1.00  0.00    -0.375 C  
HETATM   23  C   UNL     1     -12.380  13.922  69.966  1.00  0.00    -0.378 C  
HETATM   24  C   UNL     1     -11.655  15.266  69.893  1.00  0.00    -0.311 C  
HETATM   25  C   UNL     1     -11.508  15.727  68.441  1.00  0.00    -0.367 C  
HETATM   26  O   UNL     1     -10.373  15.178  70.516  1.00  0.00    -0.508 OA 
HETATM   27  C   UNL     1     -10.871  14.649  67.551  1.00  0.00    -0.286 C  
HETATM   28  H   UNL     1      -9.923  16.013  70.471  1.00  0.00     0.000 HD 
HETATM   29  C   UNL     1     -11.547  13.314  67.695  1.00  0.00    -0.386 C  
HETATM   30  C   UNL     1     -12.008  12.605  66.656  1.00  0.00    -0.382 C  
ENDBRANCH  16  21
TORSDOF 1
ENDMDL
MODEL       26
REMARK 921   NORMALIZED FREE ENERGY PREDICTED BY IDOCK:   -6.00 KCAL/MOL
REMARK 922        TOTAL FREE ENERGY PREDICTED BY IDOCK:   -6.82 KCAL/MOL
REMARK 923 INTER-LIGAND FREE ENERGY PREDICTED BY IDOCK:   -5.93 KCAL/MOL
REMARK 924 INTRA-LIGAND FREE ENERGY PREDICTED BY IDOCK:   -0.89 KCAL/MOL
REMARK 927      BINDING AFFINITY PREDICTED BY RF-SCORE:    0.00 PKD
ROOT
HETATM    1  C   UNL     1     -10.007  11.910  63.360  1.00  0.00    -0.435 C  
HETATM    2  C   UNL     1     -11.283  12.757  63.474  1.00  0.00    -0.429 C  
HETATM    3  C   UNL     1     -11.217  13.750  64.661  1.00  0.00    -0.383 C  
HETATM    4  C   UNL     1     -12.518  11.865  63.467  1.00  0.00    -0.609 C  
HETATM    5  C   UNL     1     -11.182  13.134  66.049  1.00  0.00    -0.316 C  
HETATM    6  C   UNL     1     -12.408  14.715  64.632  1.00  0.00    -0.390 C  
HETATM    7  C   UNL     1     -10.146  13.251  66.898  1.00  0.00    -0.250 C  
HETATM    8  C   UNL     1     -10.189  13.032  68.406  1.00  0.00    -0.246 C  
HETATM    9  C   UNL     1     -10.169  11.567  69.033  1.00  0.00    -0.109 C  
HETATM   10  C   UNL     1     -11.277  13.937  69.002  1.00  0.00    -0.312 C  
HETATM   11  C   UNL     1     -11.381  10.733  68.615  1.00  0.00    -0.356 C  
HETATM   12  C   UNL     1     -10.912   9.839  67.474  1.00  0.00    -0.205 C  
HETATM   13  C   UNL     1      -9.405  10.124  67.250  1.00  0.00    -0.173 C  
HETATM   14  C   UNL     1      -8.623   8.914  66.749  1.00  0.00    -0.122 C  
HETATM   15  C   UNL     1      -7.226   8.904  67.294  1.00  0.00    -0.083 C  
HETATM   16  C   UNL     1      -9.129   7.959  65.938  1.00  0.00    -0.139 C  
HETATM   17  C   UNL     1      -7.673  11.612  68.686  1.00  0.00    -0.134 C  
HETATM   18  C   UNL     1      -7.301   8.718  68.816  1.00  0.00    -0.083 C  
HETATM   19  C   UNL     1      -8.921  10.698  68.632  1.00  0.00    -0.170 C  
HETATM   20  C   UNL     1      -8.538   9.432  69.468  1.00  0.00    -0.158 C  
ENDROOT
BRANCH  16  21
HETATM   21  C   UNL     1      -8.362   6.816  65.467  1.00  0.00    -0.143 C  
HETATM   22  C   UNL     1      -8.287   5.585  65.985  1.00  0.00    -0.122 C  
HETATM   23  C   UNL     1      -7.432   4.544  65.271  1.00  0.00    -0.077 C  
HETATM   24  C   UNL     1      -6.373   3.955  66.203  1.00  0.00    -0.033 C  
HETATM   25  C   UNL     1      -7.013   3.429  67.490  1.00  0.00    -0.050 C  
HETATM   26  O   UNL     1      -5.377   4.932  66.510  1.00  0.00    -0.008 OA 
HETATM   27  C   UNL     1      -7.898   4.484  68.172  1.00  0.00    -0.080 C  
HETATM   28  H   UNL     1      -4.719   4.565  67.089  1.00  0.00     0.000 HD 
HETATM   29  C   UNL     1      -8.881   5.110  67.220  1.00  0.00    -0.105 C  
HETATM   30  C   UNL     1     -10.197   5.174  67.458  1.00  0.00    -0.210 C  
ENDBRANCH  16  21
TORSDOF 1
ENDMDL
MODEL       27
REMARK 921   NORMALIZED FREE ENERGY PREDICTED BY IDOCK:   -5.94 KCAL/MOL
REMARK 922        TOTAL FREE ENERGY PREDICTED BY IDOCK:   -6.75 KCAL/MOL
REMARK 923 INTER-LIGAND FREE ENERGY PREDICTED BY IDOCK:   -5.97 KCAL/MOL
REMARK 924 INTRA-LIGAND FREE ENERGY PREDICTED BY IDOCK:   -0.79 KCAL/MOL
REMARK 927      BINDING AFFINITY PREDICTED BY RF-SCORE:    0.00 PKD
ROOT
HETATM    1  C   UNL     1      -8.555   9.292  68.316  1.00  0.00    -0.125 C  
HETATM    2  C   UNL     1      -9.663  10.231  67.815  1.00  0.00    -0.178 C  
HETATM    3  C   UNL     1     -10.457  10.867  68.982  1.00  0.00    -0.244 C  
HETATM    4  C   UNL     1     -10.527   9.529  66.774  1.00  0.00    -0.263 C  
HETATM    5  C   UNL     1     -11.280   9.914  69.831  1.00  0.00    -0.298 C  
HETATM    6  C   UNL     1     -11.417  11.945  68.466  1.00  0.00    -0.349 C  
HETATM    7  C   UNL     1     -11.051   9.679  71.135  1.00  0.00    -0.444 C  
HETATM    8  C   UNL     1     -12.042   9.085  72.130  1.00  0.00    -0.412 C  
HETATM    9  C   UNL     1     -12.319   7.516  72.190  1.00  0.00    -0.251 C  
HETATM   10  C   UNL     1     -13.323   9.931  72.111  1.00  0.00    -0.498 C  
HETATM   11  C   UNL     1     -12.904   6.974  70.885  1.00  0.00    -0.172 C  
HETATM   12  C   UNL     1     -11.741   6.355  70.120  1.00  0.00    -0.372 C  
HETATM   13  C   UNL     1     -10.475   6.501  71.001  1.00  0.00    -0.260 C  
HETATM   14  C   UNL     1      -9.464   5.376  70.808  1.00  0.00    -0.215 C  
HETATM   15  C   UNL     1      -8.754   5.054  72.090  1.00  0.00    -0.133 C  
HETATM   16  C   UNL     1      -9.249   4.733  69.640  1.00  0.00    -0.180 C  
HETATM   17  C   UNL     1     -10.204   7.344  73.550  1.00  0.00    -0.400 C  
HETATM   18  C   UNL     1      -9.781   4.492  73.084  1.00  0.00    -0.160 C  
HETATM   19  C   UNL     1     -11.046   6.635  72.460  1.00  0.00    -0.296 C  
HETATM   20  C   UNL     1     -11.197   5.158  72.957  1.00  0.00    -0.390 C  
ENDROOT
BRANCH  16  21
HETATM   21  C   UNL     1      -8.274   3.665  69.477  1.00  0.00    -0.069 C  
HETATM   22  C   UNL     1      -7.073   3.707  68.890  1.00  0.00    -0.050 C  
HETATM   23  C   UNL     1      -6.219   2.444  68.886  1.00  0.00    -0.025 C  
HETATM   24  C   UNL     1      -5.827   2.038  67.465  1.00  0.00    -0.019 C  
HETATM   25  C   UNL     1      -5.177   3.209  66.723  1.00  0.00    -0.012 C  
HETATM   26  O   UNL     1      -6.970   1.571  66.745  1.00  0.00    -0.037 OA 
HETATM   27  C   UNL     1      -6.040   4.479  66.773  1.00  0.00    -0.031 C  
HETATM   28  H   UNL     1      -6.726   1.318  65.862  1.00  0.00     0.000 HD 
HETATM   29  C   UNL     1      -6.482   4.819  68.170  1.00  0.00    -0.041 C  
HETATM   30  C   UNL     1      -6.296   6.022  68.729  1.00  0.00    -0.041 C  
ENDBRANCH  16  21
TORSDOF 1
ENDMDL
MODEL       28
REMARK 921   NORMALIZED FREE ENERGY PREDICTED BY IDOCK:   -5.92 KCAL/MOL
REMARK 922        TOTAL FREE ENERGY PREDICTED BY IDOCK:   -6.73 KCAL/MOL
REMARK 923 INTER-LIGAND FREE ENERGY PREDICTED BY IDOCK:   -5.69 KCAL/MOL
REMARK 924 INTRA-LIGAND FREE ENERGY PREDICTED BY IDOCK:   -1.04 KCAL/MOL
REMARK 927      BINDING AFFINITY PREDICTED BY RF-SCORE:    0.00 PKD
ROOT
HETATM    1  C   UNL     1     -11.236   8.667  72.191  1.00  0.00    -0.438 C  
HETATM    2  C   UNL     1     -10.854   7.233  72.587  1.00  0.00    -0.331 C  
HETATM    3  C   UNL     1      -9.339   7.092  72.872  1.00  0.00    -0.179 C  
HETATM    4  C   UNL     1     -11.399   6.236  71.570  1.00  0.00    -0.352 C  
HETATM    5  C   UNL     1      -8.412   7.297  71.687  1.00  0.00    -0.114 C  
HETATM    6  C   UNL     1      -9.019   5.710  73.455  1.00  0.00    -0.125 C  
HETATM    7  C   UNL     1      -7.516   8.295  71.596  1.00  0.00    -0.105 C  
HETATM    8  C   UNL     1      -6.302   8.335  70.674  1.00  0.00    -0.036 C  
HETATM    9  C   UNL     1      -6.445   8.704  69.130  1.00  0.00    -0.043 C  
HETATM   10  C   UNL     1      -5.454   7.079  70.926  1.00  0.00    -0.027 C  
HETATM   11  C   UNL     1      -7.319   7.708  68.366  1.00  0.00    -0.095 C  
HETATM   12  C   UNL     1      -8.698   8.347  68.256  1.00  0.00    -0.143 C  
HETATM   13  C   UNL     1      -8.618   9.743  68.924  1.00  0.00    -0.134 C  
HETATM   14  C   UNL     1      -9.557  10.772  68.303  1.00  0.00    -0.170 C  
HETATM   15  C   UNL     1      -8.953  12.145  68.327  1.00  0.00    -0.186 C  
HETATM   16  C   UNL     1     -10.766  10.484  67.775  1.00  0.00    -0.319 C  
HETATM   17  C   UNL     1      -6.493  11.115  69.863  1.00  0.00    -0.142 C  
HETATM   18  C   UNL     1      -7.715  12.146  67.419  1.00  0.00    -0.165 C  
HETATM   19  C   UNL     1      -7.091  10.110  68.848  1.00  0.00    -0.069 C  
HETATM   20  C   UNL     1      -6.922  10.792  67.449  1.00  0.00    -0.083 C  
ENDROOT
BRANCH  16  21
HETATM   21  C   UNL     1     -11.648  11.483  67.192  1.00  0.00    -0.249 C  
HETATM   22  C   UNL     1     -11.558  12.092  66.004  1.00  0.00    -0.371 C  
HETATM   23  C   UNL     1     -12.645  13.085  65.610  1.00  0.00    -0.349 C  
HETATM   24  C   UNL     1     -12.056  14.455  65.271  1.00  0.00    -0.380 C  
HETATM   25  C   UNL     1     -10.947  14.327  64.224  1.00  0.00    -0.049 C  
HETATM   26  O   UNL     1     -11.553  15.087  66.449  1.00  0.00    -0.294 OA 
HETATM   27  C   UNL     1      -9.883  13.294  64.628  1.00  0.00    -0.000 C  
HETATM   28  H   UNL     1     -11.187  15.939  66.239  1.00  0.00     0.000 HD 
HETATM   29  C   UNL     1     -10.486  11.978  65.033  1.00  0.00    -0.327 C  
HETATM   30  C   UNL     1     -10.114  10.804  64.507  1.00  0.00    -0.415 C  
ENDBRANCH  16  21
TORSDOF 1
ENDMDL
MODEL       29
REMARK 921   NORMALIZED FREE ENERGY PREDICTED BY IDOCK:   -5.89 KCAL/MOL
REMARK 922        TOTAL FREE ENERGY PREDICTED BY IDOCK:   -6.70 KCAL/MOL
REMARK 923 INTER-LIGAND FREE ENERGY PREDICTED BY IDOCK:   -5.77 KCAL/MOL
REMARK 924 INTRA-LIGAND FREE ENERGY PREDICTED BY IDOCK:   -0.93 KCAL/MOL
REMARK 927      BINDING AFFINITY PREDICTED BY RF-SCORE:    0.00 PKD
ROOT
HETATM    1  C   UNL     1     -11.133  11.152  69.330  1.00  0.00    -0.318 C  
HETATM    2  C   UNL     1     -10.766   9.759  68.797  1.00  0.00    -0.243 C  
HETATM    3  C   UNL     1      -9.420   9.253  69.371  1.00  0.00    -0.169 C  
HETATM    4  C   UNL     1     -10.853   9.730  67.275  1.00  0.00    -0.247 C  
HETATM    5  C   UNL     1      -8.182  10.029  68.960  1.00  0.00    -0.124 C  
HETATM    6  C   UNL     1      -9.177   7.789  68.984  1.00  0.00    -0.143 C  
HETATM    7  C   UNL     1      -7.404  10.715  69.816  1.00  0.00    -0.115 C  
HETATM    8  C   UNL     1      -5.966  11.157  69.570  1.00  0.00    -0.072 C  
HETATM    9  C   UNL     1      -5.633  12.441  68.686  1.00  0.00    -0.054 C  
HETATM   10  C   UNL     1      -5.131   9.924  69.196  1.00  0.00    -0.036 C  
HETATM   11  C   UNL     1      -6.112  12.299  67.241  1.00  0.00    -0.153 C  
HETATM   12  C   UNL     1      -7.433  13.051  67.152  1.00  0.00    -0.004 C  
HETATM   13  C   UNL     1      -7.709  13.671  68.546  1.00  0.00    -0.129 C  
HETATM   14  C   UNL     1      -8.487  14.981  68.488  1.00  0.00    -0.163 C  
HETATM   15  C   UNL     1      -8.058  15.920  69.577  1.00  0.00    -0.083 C  
HETATM   16  C   UNL     1      -9.426  15.273  67.561  1.00  0.00    -0.202 C  
HETATM   17  C   UNL     1      -6.146  13.807  70.741  1.00  0.00    -0.088 C  
HETATM   18  C   UNL     1      -6.598  16.320  69.323  1.00  0.00    -0.197 C  
HETATM   19  C   UNL     1      -6.282  13.778  69.199  1.00  0.00    -0.100 C  
HETATM   20  C   UNL     1      -5.733  15.161  68.713  1.00  0.00    -0.089 C  
ENDROOT
BRANCH  16  21
HETATM   21  C   UNL     1     -10.161  16.528  67.528  1.00  0.00    -0.267 C  
HETATM   22  C   UNL     1      -9.729  17.745  67.180  1.00  0.00    -0.288 C  
HETATM   23  C   UNL     1     -10.720  18.903  67.195  1.00  0.00    -0.506 C  
HETATM   24  C   UNL     1     -10.234  20.045  68.088  1.00  0.00    -0.396 C  
HETATM   25  C   UNL     1      -8.815  20.471  67.704  1.00  0.00    -0.288 C  
HETATM   26  O   UNL     1     -10.279  19.658  69.463  1.00  0.00    -0.619 OA 
HETATM   27  C   UNL     1      -7.843  19.282  67.661  1.00  0.00    -0.295 C  
HETATM   28  H   UNL     1      -9.977  20.368  70.018  1.00  0.00     0.000 HD 
HETATM   29  C   UNL     1      -8.374  18.137  66.842  1.00  0.00    -0.258 C  
HETATM   30  C   UNL     1      -7.685  17.562  65.847  1.00  0.00    -0.119 C  
ENDBRANCH  16  21
TORSDOF 1
ENDMDL
MODEL       30
REMARK 921   NORMALIZED FREE ENERGY PREDICTED BY IDOCK:   -5.87 KCAL/MOL
REMARK 922        TOTAL FREE ENERGY PREDICTED BY IDOCK:   -6.68 KCAL/MOL
REMARK 923 INTER-LIGAND FREE ENERGY PREDICTED BY IDOCK:   -6.09 KCAL/MOL
REMARK 924 INTRA-LIGAND FREE ENERGY PREDICTED BY IDOCK:   -0.59 KCAL/MOL
REMARK 927      BINDING AFFINITY PREDICTED BY RF-SCORE:    0.00 PKD
ROOT
HETATM    1  C   UNL     1      -9.530  10.006  64.158  1.00  0.00    -0.314 C  
HETATM    2  C   UNL     1      -8.302   9.225  63.666  1.00  0.00    -0.185 C  
HETATM    3  C   UNL     1      -8.242   7.799  64.266  1.00  0.00    -0.030 C  
HETATM    4  C   UNL     1      -7.034  10.046  63.865  1.00  0.00    -0.124 C  
HETATM    5  C   UNL     1      -8.030   7.711  65.767  1.00  0.00    -0.116 C  
HETATM    6  C   UNL     1      -7.126   6.977  63.609  1.00  0.00    -0.061 C  
HETATM    7  C   UNL     1      -8.929   7.199  66.626  1.00  0.00    -0.164 C  
HETATM    8  C   UNL     1      -8.643   6.704  68.039  1.00  0.00    -0.118 C  
HETATM    9  C   UNL     1      -8.483   7.720  69.257  1.00  0.00    -0.138 C  
HETATM   10  C   UNL     1      -7.530   5.649  67.974  1.00  0.00    -0.074 C  
HETATM   11  C   UNL     1      -7.304   8.676  69.073  1.00  0.00    -0.077 C  
HETATM   12  C   UNL     1      -7.890   9.983  68.556  1.00  0.00    -0.093 C  
HETATM   13  C   UNL     1      -9.427   9.803  68.474  1.00  0.00    -0.148 C  
HETATM   14  C   UNL     1     -10.206  11.092  68.711  1.00  0.00    -0.219 C  
HETATM   15  C   UNL     1     -11.501  10.825  69.420  1.00  0.00    -0.366 C  
HETATM   16  C   UNL     1      -9.777  12.322  68.353  1.00  0.00    -0.191 C  
HETATM   17  C   UNL     1     -11.001   7.789  69.338  1.00  0.00    -0.046 C  
HETATM   18  C   UNL     1     -11.184  10.296  70.826  1.00  0.00    -0.373 C  
HETATM   19  C   UNL     1      -9.726   8.651  69.503  1.00  0.00    -0.179 C  
HETATM   20  C   UNL     1      -9.904   9.387  70.873  1.00  0.00    -0.338 C  
ENDROOT
BRANCH  16  21
HETATM   21  C   UNL     1     -10.541  13.539  68.584  1.00  0.00    -0.259 C  
HETATM   22  C   UNL     1     -10.748  14.570  67.756  1.00  0.00    -0.256 C  
HETATM   23  C   UNL     1     -11.627  15.721  68.232  1.00  0.00    -0.302 C  
HETATM   24  C   UNL     1     -10.889  17.058  68.157  1.00  0.00    -0.338 C  
HETATM   25  C   UNL     1     -10.307  17.281  66.759  1.00  0.00    -0.308 C  
HETATM   26  O   UNL     1      -9.852  17.113  69.138  1.00  0.00    -0.258 OA 
HETATM   27  C   UNL     1      -9.455  16.093  66.288  1.00  0.00    -0.347 C  
HETATM   28  H   UNL     1      -9.394  17.944  69.091  1.00  0.00     0.000 HD 
HETATM   29  C   UNL     1     -10.168  14.778  66.443  1.00  0.00    -0.299 C  
HETATM   30  C   UNL     1     -10.311  13.895  65.446  1.00  0.00    -0.364 C  
ENDBRANCH  16  21
TORSDOF 1
ENDMDL
MODEL       31
REMARK 921   NORMALIZED FREE ENERGY PREDICTED BY IDOCK:   -5.85 KCAL/MOL
REMARK 922        TOTAL FREE ENERGY PREDICTED BY IDOCK:   -6.66 KCAL/MOL
REMARK 923 INTER-LIGAND FREE ENERGY PREDICTED BY IDOCK:   -6.18 KCAL/MOL
REMARK 924 INTRA-LIGAND FREE ENERGY PREDICTED BY IDOCK:   -0.48 KCAL/MOL
REMARK 927      BINDING AFFINITY PREDICTED BY RF-SCORE:    0.00 PKD
ROOT
HETATM    1  C   UNL     1      -6.053  16.545  69.431  1.00  0.00    -0.182 C  
HETATM    2  C   UNL     1      -5.727  17.895  68.776  1.00  0.00    -0.184 C  
HETATM    3  C   UNL     1      -6.927  18.873  68.830  1.00  0.00    -0.342 C  
HETATM    4  C   UNL     1      -5.148  17.686  67.382  1.00  0.00    -0.144 C  
HETATM    5  C   UNL     1      -8.151  18.476  68.025  1.00  0.00    -0.288 C  
HETATM    6  C   UNL     1      -6.515  20.271  68.354  1.00  0.00    -0.344 C  
HETATM    7  C   UNL     1      -9.349  18.194  68.567  1.00  0.00    -0.321 C  
HETATM    8  C   UNL     1     -10.689  18.196  67.840  1.00  0.00    -0.331 C  
HETATM    9  C   UNL     1     -11.136  16.973  66.921  1.00  0.00     0.273 C  
HETATM   10  C   UNL     1     -10.883  19.565  67.172  1.00  0.00    -0.555 C  
HETATM   11  C   UNL     1     -10.197  16.757  65.734  1.00  0.00    -0.311 C  
HETATM   12  C   UNL     1      -9.260  15.623  66.131  1.00  0.00    -0.378 C  
HETATM   13  C   UNL     1      -9.681  15.146  67.544  1.00  0.00    -0.205 C  
HETATM   14  C   UNL     1      -9.424  13.663  67.790  1.00  0.00    -0.221 C  
HETATM   15  C   UNL     1     -10.477  13.066  68.677  1.00  0.00    -0.236 C  
HETATM   16  C   UNL     1      -8.396  12.966  67.258  1.00  0.00    -0.185 C  
HETATM   17  C   UNL     1     -11.817  15.811  69.052  1.00  0.00    -0.367 C  
HETATM   18  C   UNL     1     -11.820  13.113  67.934  1.00  0.00    -0.390 C  
HETATM   19  C   UNL     1     -11.188  15.584  67.656  1.00  0.00    -0.291 C  
HETATM   20  C   UNL     1     -11.988  14.390  67.036  1.00  0.00    -0.424 C  
ENDROOT
BRANCH  16  21
HETATM   21  C   UNL     1      -8.167  11.552  67.511  1.00  0.00    -0.140 C  
HETATM   22  C   UNL     1      -7.077  10.819  67.255  1.00  0.00    -0.091 C  
HETATM   23  C   UNL     1      -7.078   9.348  67.656  1.00  0.00    -0.082 C  
HETATM   24  C   UNL     1      -6.786   8.442  66.460  1.00  0.00    -0.060 C  
HETATM   25  C   UNL     1      -5.500   8.874  65.750  1.00  0.00    -0.041 C  
HETATM   26  O   UNL     1      -7.883   8.453  65.545  1.00  0.00    -0.098 OA 
HETATM   27  C   UNL     1      -5.509  10.367  65.389  1.00  0.00    -0.111 C  
HETATM   28  H   UNL     1      -7.701   7.889  64.801  1.00  0.00     0.000 HD 
HETATM   29  C   UNL     1      -5.876  11.238  66.559  1.00  0.00    -0.146 C  
HETATM   30  C   UNL     1      -5.133  12.276  66.966  1.00  0.00     0.012 C  
ENDBRANCH  16  21
TORSDOF 1
ENDMDL
MODEL       32
REMARK 921   NORMALIZED FREE ENERGY PREDICTED BY IDOCK:   -5.83 KCAL/MOL
REMARK 922        TOTAL FREE ENERGY PREDICTED BY IDOCK:   -6.64 KCAL/MOL
REMARK 923 INTER-LIGAND FREE ENERGY PREDICTED BY IDOCK:   -6.05 KCAL/MOL
REMARK 924 INTRA-LIGAND FREE ENERGY PREDICTED BY IDOCK:   -0.59 KCAL/MOL
REMARK 927      BINDING AFFINITY PREDICTED BY RF-SCORE:    0.00 PKD
ROOT
HETATM    1  C   UNL     1     -11.208   9.403  71.606  1.00  0.00    -0.431 C  
HETATM    2  C   UNL     1     -11.625   7.955  71.905  1.00  0.00    -0.338 C  
HETATM    3  C   UNL     1     -10.480   7.144  72.561  1.00  0.00    -0.254 C  
HETATM    4  C   UNL     1     -12.226   7.306  70.664  1.00  0.00    -0.186 C  
HETATM    5  C   UNL     1      -9.256   6.895  71.699  1.00  0.00    -0.146 C  
HETATM    6  C   UNL     1     -10.981   5.772  73.029  1.00  0.00    -0.314 C  
HETATM    7  C   UNL     1      -8.031   7.377  71.974  1.00  0.00    -0.099 C  
HETATM    8  C   UNL     1      -6.711   6.853  71.418  1.00  0.00    -0.060 C  
HETATM    9  C   UNL     1      -6.220   7.235  69.950  1.00  0.00    -0.027 C  
HETATM   10  C   UNL     1      -6.611   5.352  71.725  1.00  0.00    -0.048 C  
HETATM   11  C   UNL     1      -7.174   6.738  68.864  1.00  0.00    -0.091 C  
HETATM   12  C   UNL     1      -8.036   7.932  68.474  1.00  0.00    -0.123 C  
HETATM   13  C   UNL     1      -7.555   9.145  69.310  1.00  0.00    -0.079 C  
HETATM   14  C   UNL     1      -7.722  10.483  68.597  1.00  0.00    -0.106 C  
HETATM   15  C   UNL     1      -6.617  11.433  68.952  1.00  0.00    -0.071 C  
HETATM   16  C   UNL     1      -8.723  10.771  67.737  1.00  0.00    -0.130 C  
HETATM   17  C   UNL     1      -5.423   9.411  70.942  1.00  0.00    -0.046 C  
HETATM   18  C   UNL     1      -5.297  10.864  68.412  1.00  0.00    -0.043 C  
HETATM   19  C   UNL     1      -6.073   8.778  69.687  1.00  0.00    -0.032 C  
HETATM   20  C   UNL     1      -5.222   9.297  68.480  1.00  0.00    -0.034 C  
ENDROOT
BRANCH  16  21
HETATM   21  C   UNL     1      -8.866  12.057  67.072  1.00  0.00    -0.197 C  
HETATM   22  C   UNL     1      -9.975  12.777  66.866  1.00  0.00    -0.232 C  
HETATM   23  C   UNL     1      -9.849  14.126  66.168  1.00  0.00    -0.326 C  
HETATM   24  C   UNL     1     -10.733  14.198  64.922  1.00  0.00    -0.428 C  
HETATM   25  C   UNL     1     -12.179  13.825  65.259  1.00  0.00    -0.461 C  
HETATM   26  O   UNL     1     -10.226  13.338  63.900  1.00  0.00    -0.707 OA 
HETATM   27  C   UNL     1     -12.276  12.478  65.992  1.00  0.00    -0.263 C  
HETATM   28  H   UNL     1     -10.775  13.383  63.126  1.00  0.00     0.000 HD 
HETATM   29  C   UNL     1     -11.342  12.397  67.168  1.00  0.00    -0.390 C  
HETATM   30  C   UNL     1     -11.739  12.062  68.403  1.00  0.00    -0.390 C  
ENDBRANCH  16  21
TORSDOF 1
ENDMDL
MODEL       33
REMARK 921   NORMALIZED FREE ENERGY PREDICTED BY IDOCK:   -5.79 KCAL/MOL
REMARK 922        TOTAL FREE ENERGY PREDICTED BY IDOCK:   -6.60 KCAL/MOL
REMARK 923 INTER-LIGAND FREE ENERGY PREDICTED BY IDOCK:   -5.53 KCAL/MOL
REMARK 924 INTRA-LIGAND FREE ENERGY PREDICTED BY IDOCK:   -1.06 KCAL/MOL
REMARK 927      BINDING AFFINITY PREDICTED BY RF-SCORE:    0.00 PKD
ROOT
HETATM    1  C   UNL     1      -7.484  14.933  69.545  1.00  0.00    -0.162 C  
HETATM    2  C   UNL     1      -7.190  15.767  68.289  1.00  0.00    -0.118 C  
HETATM    3  C   UNL     1      -8.435  15.904  67.378  1.00  0.00    -0.194 C  
HETATM    4  C   UNL     1      -5.946  15.245  67.581  1.00  0.00    -0.119 C  
HETATM    5  C   UNL     1      -8.939  14.624  66.735  1.00  0.00    -0.283 C  
HETATM    6  C   UNL     1      -8.174  16.900  66.242  1.00  0.00    -0.344 C  
HETATM    7  C   UNL     1     -10.141  14.077  66.988  1.00  0.00    -0.255 C  
HETATM    8  C   UNL     1     -10.872  13.066  66.112  1.00  0.00    -0.296 C  
HETATM    9  C   UNL     1     -10.484  11.520  66.128  1.00  0.00    -0.296 C  
HETATM   10  C   UNL     1     -11.005  13.648  64.697  1.00  0.00    -0.403 C  
HETATM   11  C   UNL     1      -9.047  11.271  65.667  1.00  0.00    -0.203 C  
HETATM   12  C   UNL     1      -8.216  11.102  66.932  1.00  0.00    -0.149 C  
HETATM   13  C   UNL     1      -9.181  11.214  68.140  1.00  0.00    -0.166 C  
HETATM   14  C   UNL     1      -8.752  10.381  69.343  1.00  0.00    -0.138 C  
HETATM   15  C   UNL     1      -9.939   9.841  70.085  1.00  0.00    -0.315 C  
HETATM   16  C   UNL     1      -7.468  10.137  69.686  1.00  0.00    -0.147 C  
HETATM   17  C   UNL     1     -11.875  11.344  68.223  1.00  0.00    -0.320 C  
HETATM   18  C   UNL     1     -10.676   8.854  69.168  1.00  0.00    -0.162 C  
HETATM   19  C   UNL     1     -10.583  10.833  67.538  1.00  0.00    -0.280 C  
HETATM   20  C   UNL     1     -10.648   9.273  67.655  1.00  0.00    -0.324 C  
ENDROOT
BRANCH  16  21
HETATM   21  C   UNL     1      -7.081   9.343  70.842  1.00  0.00    -0.098 C  
HETATM   22  C   UNL     1      -7.085   8.013  70.987  1.00  0.00    -0.050 C  
HETATM   23  C   UNL     1      -6.591   7.421  72.302  1.00  0.00    -0.051 C  
HETATM   24  C   UNL     1      -7.649   6.526  72.947  1.00  0.00    -0.097 C  
HETATM   25  C   UNL     1      -8.143   5.468  71.957  1.00  0.00    -0.115 C  
HETATM   26  O   UNL     1      -8.746   7.310  73.421  1.00  0.00    -0.129 OA 
HETATM   27  C   UNL     1      -8.603   6.086  70.627  1.00  0.00    -0.134 C  
HETATM   28  H   UNL     1      -9.403   6.753  73.821  1.00  0.00     0.000 HD 
HETATM   29  C   UNL     1      -7.581   7.025  70.048  1.00  0.00    -0.099 C  
HETATM   30  C   UNL     1      -7.119   6.928  68.794  1.00  0.00    -0.089 C  
ENDBRANCH  16  21
TORSDOF 1
ENDMDL
MODEL       34
REMARK 921   NORMALIZED FREE ENERGY PREDICTED BY IDOCK:   -5.78 KCAL/MOL
REMARK 922        TOTAL FREE ENERGY PREDICTED BY IDOCK:   -6.58 KCAL/MOL
REMARK 923 INTER-LIGAND FREE ENERGY PREDICTED BY IDOCK:   -5.79 KCAL/MOL
REMARK 924 INTRA-LIGAND FREE ENERGY PREDICTED BY IDOCK:   -0.80 KCAL/MOL
REMARK 927      BINDING AFFINITY PREDICTED BY RF-SCORE:    0.00 PKD
ROOT
HETATM    1  C   UNL     1     -11.486  11.012  67.398  1.00  0.00    -0.217 C  
HETATM    2  C   UNL     1     -11.419  12.310  66.579  1.00  0.00    -0.438 C  
HETATM    3  C   UNL     1     -11.139  12.038  65.081  1.00  0.00    -0.369 C  
HETATM    4  C   UNL     1     -10.461  13.301  67.229  1.00  0.00    -0.247 C  
HETATM    5  C   UNL     1      -9.782  11.444  64.749  1.00  0.00    -0.280 C  
HETATM    6  C   UNL     1     -11.275  13.324  64.257  1.00  0.00    -0.417 C  
HETATM    7  C   UNL     1      -9.605  10.225  64.208  1.00  0.00    -0.375 C  
HETATM    8  C   UNL     1      -8.357   9.735  63.482  1.00  0.00    -0.168 C  
HETATM    9  C   UNL     1      -7.067   9.253  64.284  1.00  0.00    -0.098 C  
HETATM   10  C   UNL     1      -8.038  10.712  62.341  1.00  0.00    -0.233 C  
HETATM   11  C   UNL     1      -6.453  10.367  65.132  1.00  0.00    -0.096 C  
HETATM   12  C   UNL     1      -6.951  10.145  66.554  1.00  0.00    -0.102 C  
HETATM   13  C   UNL     1      -7.831   8.869  66.545  1.00  0.00    -0.100 C  
HETATM   14  C   UNL     1      -7.794   8.092  67.856  1.00  0.00    -0.126 C  
HETATM   15  C   UNL     1      -7.900   6.614  67.619  1.00  0.00    -0.111 C  
HETATM   16  C   UNL     1      -7.658   8.656  69.076  1.00  0.00    -0.090 C  
HETATM   17  C   UNL     1      -8.262   7.055  64.594  1.00  0.00    -0.024 C  
HETATM   18  C   UNL     1      -6.649   6.155  66.856  1.00  0.00    -0.059 C  
HETATM   19  C   UNL     1      -7.322   8.071  65.289  1.00  0.00    -0.070 C  
HETATM   20  C   UNL     1      -6.125   7.218  65.827  1.00  0.00    -0.037 C  
ENDROOT
BRANCH  16  21
HETATM   21  C   UNL     1      -7.631   7.895  70.316  1.00  0.00    -0.086 C  
HETATM   22  C   UNL     1      -8.654   7.512  71.088  1.00  0.00    -0.121 C  
HETATM   23  C   UNL     1      -8.358   6.680  72.331  1.00  0.00    -0.106 C  
HETATM   24  C   UNL     1      -8.911   7.341  73.593  1.00  0.00    -0.194 C  
HETATM   25  C   UNL     1     -10.397   7.671  73.428  1.00  0.00    -0.374 C  
HETATM   26  O   UNL     1      -8.174   8.525  73.902  1.00  0.00    -0.369 OA 
HETATM   27  C   UNL     1     -10.674   8.479  72.151  1.00  0.00    -0.426 C  
HETATM   28  H   UNL     1      -8.518   8.936  74.687  1.00  0.00     0.000 HD 
HETATM   29  C   UNL     1     -10.055   7.854  70.931  1.00  0.00    -0.205 C  
HETATM   30  C   UNL     1     -10.741   7.580  69.814  1.00  0.00    -0.249 C  
ENDBRANCH  16  21
TORSDOF 1
ENDMDL
MODEL       35
REMARK 921   NORMALIZED FREE ENERGY PREDICTED BY IDOCK:   -5.69 KCAL/MOL
REMARK 922        TOTAL FREE ENERGY PREDICTED BY IDOCK:   -6.49 KCAL/MOL
REMARK 923 INTER-LIGAND FREE ENERGY PREDICTED BY IDOCK:   -5.42 KCAL/MOL
REMARK 924 INTRA-LIGAND FREE ENERGY PREDICTED BY IDOCK:   -1.08 KCAL/MOL
REMARK 927      BINDING AFFINITY PREDICTED BY RF-SCORE:    0.00 PKD
ROOT
HETATM    1  C   UNL     1     -11.588  11.445  68.367  1.00  0.00    -0.385 C  
HETATM    2  C   UNL     1     -10.836  12.443  67.474  1.00  0.00    -0.271 C  
HETATM    3  C   UNL     1     -10.511  11.848  66.082  1.00  0.00    -0.272 C  
HETATM    4  C   UNL     1      -9.630  13.015  68.211  1.00  0.00    -0.213 C  
HETATM    5  C   UNL     1      -9.535  10.685  66.062  1.00  0.00    -0.233 C  
HETATM    6  C   UNL     1      -9.943  12.922  65.147  1.00  0.00    -0.175 C  
HETATM    7  C   UNL     1      -9.855   9.440  65.664  1.00  0.00    -0.294 C  
HETATM    8  C   UNL     1      -8.876   8.355  65.229  1.00  0.00    -0.113 C  
HETATM    9  C   UNL     1      -8.060   7.497  66.296  1.00  0.00    -0.113 C  
HETATM   10  C   UNL     1      -8.003   8.909  64.094  1.00  0.00    -0.148 C  
HETATM   11  C   UNL     1      -7.130   8.357  67.152  1.00  0.00    -0.079 C  
HETATM   12  C   UNL     1      -7.859   8.595  68.468  1.00  0.00    -0.108 C  
HETATM   13  C   UNL     1      -9.209   7.837  68.395  1.00  0.00    -0.137 C  
HETATM   14  C   UNL     1      -9.701   7.334  69.749  1.00  0.00    -0.166 C  
HETATM   15  C   UNL     1     -10.427   6.029  69.615  1.00  0.00    -0.325 C  
HETATM   16  C   UNL     1      -9.489   7.968  70.923  1.00  0.00    -0.178 C  
HETATM   17  C   UNL     1     -10.145   6.104  66.551  1.00  0.00    -0.179 C  
HETATM   18  C   UNL     1      -9.427   4.964  69.142  1.00  0.00    -0.205 C  
HETATM   19  C   UNL     1      -8.951   6.712  67.327  1.00  0.00    -0.115 C  
HETATM   20  C   UNL     1      -8.349   5.523  68.147  1.00  0.00    -0.099 C  
ENDROOT
BRANCH  16  21
HETATM   21  C   UNL     1      -9.973   7.473  72.202  1.00  0.00    -0.218 C  
HETATM   22  C   UNL     1      -9.465   6.506  72.975  1.00  0.00    -0.152 C  
HETATM   23  C   UNL     1     -10.147   6.200  74.303  1.00  0.00    -0.322 C  
HETATM   24  C   UNL     1     -10.555   4.730  74.399  1.00  0.00    -0.234 C  
HETATM   25  C   UNL     1      -9.363   3.815  74.108  1.00  0.00    -0.106 C  
HETATM   26  O   UNL     1     -11.625   4.449  73.496  1.00  0.00    -0.268 OA 
HETATM   27  C   UNL     1      -8.671   4.166  72.781  1.00  0.00    -0.108 C  
HETATM   28  H   UNL     1     -11.879   3.535  73.555  1.00  0.00     0.000 HD 
HETATM   29  C   UNL     1      -8.349   5.631  72.673  1.00  0.00    -0.117 C  
HETATM   30  C   UNL     1      -7.127   6.097  72.381  1.00  0.00    -0.084 C  
ENDBRANCH  16  21
TORSDOF 1
ENDMDL
MODEL       36
REMARK 921   NORMALIZED FREE ENERGY PREDICTED BY IDOCK:   -5.66 KCAL/MOL
REMARK 922        TOTAL FREE ENERGY PREDICTED BY IDOCK:   -6.47 KCAL/MOL
REMARK 923 INTER-LIGAND FREE ENERGY PREDICTED BY IDOCK:   -5.71 KCAL/MOL
REMARK 924 INTRA-LIGAND FREE ENERGY PREDICTED BY IDOCK:   -0.75 KCAL/MOL
REMARK 927      BINDING AFFINITY PREDICTED BY RF-SCORE:    0.00 PKD
ROOT
HETATM    1  C   UNL     1     -11.982   7.340  70.331  1.00  0.00    -0.124 C  
HETATM    2  C   UNL     1     -12.233   8.353  71.458  1.00  0.00    -0.340 C  
HETATM    3  C   UNL     1     -12.601   9.753  70.910  1.00  0.00    -0.350 C  
HETATM    4  C   UNL     1     -11.074   8.348  72.448  1.00  0.00    -0.431 C  
HETATM    5  C   UNL     1     -11.513  10.479  70.139  1.00  0.00    -0.405 C  
HETATM    6  C   UNL     1     -13.041  10.686  72.045  1.00  0.00    -0.501 C  
HETATM    7  C   UNL     1     -11.598  10.796  68.835  1.00  0.00    -0.361 C  
HETATM    8  C   UNL     1     -10.770  11.851  68.110  1.00  0.00    -0.246 C  
HETATM    9  C   UNL     1      -9.273  11.558  67.648  1.00  0.00    -0.171 C  
HETATM   10  C   UNL     1     -10.931  13.191  68.843  1.00  0.00    -0.270 C  
HETATM   11  C   UNL     1      -8.343  11.261  68.825  1.00  0.00    -0.120 C  
HETATM   12  C   UNL     1      -8.215   9.745  68.897  1.00  0.00    -0.117 C  
HETATM   13  C   UNL     1      -9.044   9.153  67.730  1.00  0.00    -0.135 C  
HETATM   14  C   UNL     1      -8.484   7.842  67.187  1.00  0.00    -0.124 C  
HETATM   15  C   UNL     1      -8.707   7.724  65.708  1.00  0.00    -0.160 C  
HETATM   16  C   UNL     1      -7.847   6.915  67.934  1.00  0.00    -0.113 C  
HETATM   17  C   UNL     1     -10.275  10.372  65.662  1.00  0.00    -0.308 C  
HETATM   18  C   UNL     1      -7.890   8.819  65.006  1.00  0.00    -0.111 C  
HETATM   19  C   UNL     1      -9.113  10.325  66.684  1.00  0.00    -0.163 C  
HETATM   20  C   UNL     1      -7.817  10.158  65.823  1.00  0.00    -0.139 C  
ENDROOT
BRANCH  16  21
HETATM   21  C   UNL     1      -7.326   5.668  67.396  1.00  0.00    -0.077 C  
HETATM   22  C   UNL     1      -7.960   4.505  67.205  1.00  0.00    -0.101 C  
HETATM   23  C   UNL     1      -7.188   3.347  66.583  1.00  0.00    -0.067 C  
HETATM   24  C   UNL     1      -7.219   2.108  67.478  1.00  0.00    -0.051 C  
HETATM   25  C   UNL     1      -8.657   1.743  67.853  1.00  0.00    -0.100 C  
HETATM   26  O   UNL     1      -6.441   2.324  68.657  1.00  0.00    -0.029 OA 
HETATM   27  C   UNL     1      -9.425   2.935  68.444  1.00  0.00    -0.207 C  
HETATM   28  H   UNL     1      -6.460   1.554  69.213  1.00  0.00     0.000 HD 
HETATM   29  C   UNL     1      -9.317   4.168  67.589  1.00  0.00    -0.208 C  
HETATM   30  C   UNL     1     -10.380   4.864  67.165  1.00  0.00    -0.181 C  
ENDBRANCH  16  21
TORSDOF 1
ENDMDL
MODEL       37
REMARK 921   NORMALIZED FREE ENERGY PREDICTED BY IDOCK:   -5.53 KCAL/MOL
REMARK 922        TOTAL FREE ENERGY PREDICTED BY IDOCK:   -6.32 KCAL/MOL
REMARK 923 INTER-LIGAND FREE ENERGY PREDICTED BY IDOCK:   -5.81 KCAL/MOL
REMARK 924 INTRA-LIGAND FREE ENERGY PREDICTED BY IDOCK:   -0.51 KCAL/MOL
REMARK 927      BINDING AFFINITY PREDICTED BY RF-SCORE:    0.00 PKD
ROOT
HETATM    1  C   UNL     1      -8.657  10.209  68.754  1.00  0.00    -0.133 C  
HETATM    2  C   UNL     1      -9.917  10.966  68.310  1.00  0.00    -0.187 C  
HETATM    3  C   UNL     1     -10.869  11.258  69.496  1.00  0.00    -0.207 C  
HETATM    4  C   UNL     1     -10.578  10.258  67.133  1.00  0.00    -0.320 C  
HETATM    5  C   UNL     1     -11.505  10.049  70.159  1.00  0.00    -0.344 C  
HETATM    6  C   UNL     1     -12.013  12.182  69.064  1.00  0.00    -0.302 C  
HETATM    7  C   UNL     1     -11.279   9.683  71.433  1.00  0.00    -0.426 C  
HETATM    8  C   UNL     1     -12.160   8.768  72.276  1.00  0.00    -0.423 C  
HETATM    9  C   UNL     1     -12.106   7.183  72.112  1.00  0.00    -0.284 C  
HETATM   10  C   UNL     1     -13.588   9.332  72.285  1.00  0.00    -0.544 C  
HETATM   11  C   UNL     1     -12.518   6.724  70.713  1.00  0.00    -0.212 C  
HETATM   12  C   UNL     1     -11.224   6.466  69.950  1.00  0.00    -0.485 C  
HETATM   13  C   UNL     1     -10.049   6.738  70.923  1.00  0.00    -0.207 C  
HETATM   14  C   UNL     1      -8.819   5.879  70.650  1.00  0.00    -0.144 C  
HETATM   15  C   UNL     1      -8.105   5.529  71.923  1.00  0.00    -0.115 C  
HETATM   16  C   UNL     1      -8.433   5.463  69.425  1.00  0.00    -0.099 C  
HETATM   17  C   UNL     1     -10.052   7.250  73.572  1.00  0.00    -0.387 C  
HETATM   18  C   UNL     1      -9.028   4.637  72.766  1.00  0.00    -0.127 C  
HETATM   19  C   UNL     1     -10.687   6.547  72.347  1.00  0.00    -0.253 C  
HETATM   20  C   UNL     1     -10.546   5.015  72.636  1.00  0.00    -0.274 C  
ENDROOT
BRANCH  16  21
HETATM   21  C   UNL     1      -7.252   4.648  69.187  1.00  0.00    -0.052 C  
HETATM   22  C   UNL     1      -6.496   4.564  68.086  1.00  0.00    -0.038 C  
HETATM   23  C   UNL     1      -5.276   3.651  68.107  1.00  0.00    -0.012 C  
HETATM   24  C   UNL     1      -5.328   2.620  66.980  1.00  0.00    -0.016 C  
HETATM   25  C   UNL     1      -5.548   3.302  65.627  1.00  0.00    -0.017 C  
HETATM   26  O   UNL     1      -6.361   1.664  67.224  1.00  0.00    -0.023 OA 
HETATM   27  C   UNL     1      -6.762   4.244  65.642  1.00  0.00    -0.052 C  
HETATM   28  H   UNL     1      -6.393   1.022  66.524  1.00  0.00     0.000 HD 
HETATM   29  C   UNL     1      -6.733   5.199  66.804  1.00  0.00    -0.061 C  
HETATM   30  C   UNL     1      -6.855   6.526  66.669  1.00  0.00    -0.065 C  
ENDBRANCH  16  21
TORSDOF 1
ENDMDL
MODEL       38
REMARK 921   NORMALIZED FREE ENERGY PREDICTED BY IDOCK:   -5.52 KCAL/MOL
REMARK 922        TOTAL FREE ENERGY PREDICTED BY IDOCK:   -6.31 KCAL/MOL
REMARK 923 INTER-LIGAND FREE ENERGY PREDICTED BY IDOCK:   -5.24 KCAL/MOL
REMARK 924 INTRA-LIGAND FREE ENERGY PREDICTED BY IDOCK:   -1.07 KCAL/MOL
REMARK 927      BINDING AFFINITY PREDICTED BY RF-SCORE:    0.00 PKD
ROOT
HETATM    1  C   UNL     1     -11.561   9.129  71.703  1.00  0.00    -0.449 C  
HETATM    2  C   UNL     1     -11.500   7.914  72.641  1.00  0.00    -0.454 C  
HETATM    3  C   UNL     1     -10.126   7.793  73.346  1.00  0.00    -0.327 C  
HETATM    4  C   UNL     1     -11.946   6.653  71.911  1.00  0.00    -0.386 C  
HETATM    5  C   UNL     1      -8.937   7.497  72.449  1.00  0.00    -0.172 C  
HETATM    6  C   UNL     1     -10.157   6.699  74.419  1.00  0.00    -0.343 C  
HETATM    7  C   UNL     1      -7.903   8.338  72.269  1.00  0.00    -0.176 C  
HETATM    8  C   UNL     1      -6.522   7.966  71.741  1.00  0.00    -0.041 C  
HETATM    9  C   UNL     1      -6.257   7.760  70.183  1.00  0.00    -0.033 C  
HETATM   10  C   UNL     1      -5.951   6.837  72.612  1.00  0.00    -0.042 C  
HETATM   11  C   UNL     1      -7.077   6.612  69.595  1.00  0.00    -0.068 C  
HETATM   12  C   UNL     1      -8.283   7.251  68.918  1.00  0.00    -0.125 C  
HETATM   13  C   UNL     1      -8.145   8.786  69.077  1.00  0.00    -0.116 C  
HETATM   14  C   UNL     1      -8.754   9.577  67.923  1.00  0.00    -0.119 C  
HETATM   15  C   UNL     1      -7.971  10.826  67.644  1.00  0.00    -0.110 C  
HETATM   16  C   UNL     1      -9.843   9.192  67.223  1.00  0.00    -0.244 C  
HETATM   17  C   UNL     1      -6.103  10.271  70.027  1.00  0.00    -0.071 C  
HETATM   18  C   UNL     1      -6.574  10.422  67.149  1.00  0.00    -0.073 C  
HETATM   19  C   UNL     1      -6.602   9.006  69.288  1.00  0.00    -0.049 C  
HETATM   20  C   UNL     1      -6.023   9.124  67.839  1.00  0.00    -0.049 C  
ENDROOT
BRANCH  16  21
HETATM   21  C   UNL     1     -10.410   9.966  66.129  1.00  0.00    -0.223 C  
HETATM   22  C   UNL     1     -10.009  10.036  64.855  1.00  0.00    -0.286 C  
HETATM   23  C   UNL     1     -10.807  10.901  63.886  1.00  0.00    -0.052 C  
HETATM   24  C   UNL     1      -9.922  11.950  63.212  1.00  0.00    -0.380 C  
HETATM   25  C   UNL     1      -8.697  11.296  62.568  1.00  0.00    -0.241 C  
HETATM   26  O   UNL     1      -9.514  12.941  64.156  1.00  0.00    -0.431 OA 
HETATM   27  C   UNL     1      -7.931  10.401  63.554  1.00  0.00    -0.101 C  
HETATM   28  H   UNL     1      -8.964  13.593  63.737  1.00  0.00     0.000 HD 
HETATM   29  C   UNL     1      -8.831   9.429  64.266  1.00  0.00    -0.220 C  
HETATM   30  C   UNL     1      -8.603   8.110  64.308  1.00  0.00     0.145 C  
ENDBRANCH  16  21
TORSDOF 1
ENDMDL
MODEL       39
REMARK 921   NORMALIZED FREE ENERGY PREDICTED BY IDOCK:   -5.47 KCAL/MOL
REMARK 922        TOTAL FREE ENERGY PREDICTED BY IDOCK:   -6.26 KCAL/MOL
REMARK 923 INTER-LIGAND FREE ENERGY PREDICTED BY IDOCK:   -5.19 KCAL/MOL
REMARK 924 INTRA-LIGAND FREE ENERGY PREDICTED BY IDOCK:   -1.07 KCAL/MOL
REMARK 927      BINDING AFFINITY PREDICTED BY RF-SCORE:    0.00 PKD
ROOT
HETATM    1  C   UNL     1     -10.143   7.646  70.642  1.00  0.00    -0.187 C  
HETATM    2  C   UNL     1     -10.112   6.192  70.148  1.00  0.00    -0.233 C  
HETATM    3  C   UNL     1      -8.675   5.724  69.810  1.00  0.00    -0.127 C  
HETATM    4  C   UNL     1     -11.121   5.989  69.025  1.00  0.00    -0.377 C  
HETATM    5  C   UNL     1      -8.002   6.417  68.639  1.00  0.00    -0.106 C  
HETATM    6  C   UNL     1      -8.646   4.220  69.513  1.00  0.00    -0.106 C  
HETATM    7  C   UNL     1      -6.899   7.179  68.747  1.00  0.00    -0.076 C  
HETATM    8  C   UNL     1      -5.951   7.556  67.614  1.00  0.00    -0.039 C  
HETATM    9  C   UNL     1      -6.307   8.720  66.586  1.00  0.00    -0.059 C  
HETATM   10  C   UNL     1      -5.462   6.268  66.935  1.00  0.00    -0.012 C  
HETATM   11  C   UNL     1      -7.570   8.422  65.777  1.00  0.00    -0.085 C  
HETATM   12  C   UNL     1      -8.700   9.191  66.451  1.00  0.00    -0.147 C  
HETATM   13  C   UNL     1      -8.084   9.975  67.638  1.00  0.00    -0.110 C  
HETATM   14  C   UNL     1      -8.800  11.287  67.939  1.00  0.00    -0.142 C  
HETATM   15  C   UNL     1      -7.839  12.335  68.418  1.00  0.00    -0.151 C  
HETATM   16  C   UNL     1     -10.125  11.492  67.773  1.00  0.00    -0.198 C  
HETATM   17  C   UNL     1      -5.507  10.327  68.355  1.00  0.00    -0.038 C  
HETATM   18  C   UNL     1      -6.874  12.669  67.271  1.00  0.00    -0.102 C  
HETATM   19  C   UNL     1      -6.569  10.122  67.246  1.00  0.00    -0.069 C  
HETATM   20  C   UNL     1      -6.514  11.426  66.382  1.00  0.00    -0.029 C  
ENDROOT
BRANCH  16  21
HETATM   21  C   UNL     1     -10.787  12.752  68.072  1.00  0.00    -0.254 C  
HETATM   22  C   UNL     1     -10.846  13.866  67.334  1.00  0.00    -0.291 C  
HETATM   23  C   UNL     1     -11.646  15.051  67.863  1.00  0.00    -0.350 C  
HETATM   24  C   UNL     1     -10.787  16.312  67.954  1.00  0.00    -0.330 C  
HETATM   25  C   UNL     1     -10.097  16.598  66.617  1.00  0.00    -0.305 C  
HETATM   26  O   UNL     1      -9.815  16.181  68.993  1.00  0.00    -0.221 OA 
HETATM   27  C   UNL     1      -9.327  15.379  66.088  1.00  0.00    -0.367 C  
HETATM   28  H   UNL     1      -9.281  16.965  69.049  1.00  0.00     0.000 HD 
HETATM   29  C   UNL     1     -10.165  14.130  66.080  1.00  0.00    -0.313 C  
HETATM   30  C   UNL     1     -10.323  13.356  64.999  1.00  0.00    -0.361 C  
ENDBRANCH  16  21
TORSDOF 1
ENDMDL
MODEL       40
REMARK 921   NORMALIZED FREE ENERGY PREDICTED BY IDOCK:   -5.43 KCAL/MOL
REMARK 922        TOTAL FREE ENERGY PREDICTED BY IDOCK:   -6.21 KCAL/MOL
REMARK 923 INTER-LIGAND FREE ENERGY PREDICTED BY IDOCK:   -5.17 KCAL/MOL
REMARK 924 INTRA-LIGAND FREE ENERGY PREDICTED BY IDOCK:   -1.04 KCAL/MOL
REMARK 927      BINDING AFFINITY PREDICTED BY RF-SCORE:    0.00 PKD
ROOT
HETATM    1  C   UNL     1     -10.432   5.769  67.799  1.00  0.00    -0.289 C  
HETATM    2  C   UNL     1     -10.222   4.603  66.822  1.00  0.00    -0.226 C  
HETATM    3  C   UNL     1      -8.721   4.306  66.584  1.00  0.00    -0.113 C  
HETATM    4  C   UNL     1     -11.030   4.822  65.549  1.00  0.00     0.004 C  
HETATM    5  C   UNL     1      -7.927   5.390  65.878  1.00  0.00    -0.106 C  
HETATM    6  C   UNL     1      -8.541   3.020  65.770  1.00  0.00    -0.116 C  
HETATM    7  C   UNL     1      -6.911   6.067  66.441  1.00  0.00    -0.062 C  
HETATM    8  C   UNL     1      -5.828   6.845  65.701  1.00  0.00    -0.035 C  
HETATM    9  C   UNL     1      -6.104   8.305  65.122  1.00  0.00    -0.045 C  
HETATM   10  C   UNL     1      -5.152   5.906  64.692  1.00  0.00    -0.013 C  
HETATM   11  C   UNL     1      -7.204   8.317  64.060  1.00  0.00    -0.090 C  
HETATM   12  C   UNL     1      -8.475   8.771  64.767  1.00  0.00    -0.179 C  
HETATM   13  C   UNL     1      -8.106   9.064  66.244  1.00  0.00    -0.110 C  
HETATM   14  C   UNL     1      -8.950  10.165  66.877  1.00  0.00    -0.146 C  
HETATM   15  C   UNL     1      -8.150  10.969  67.859  1.00  0.00    -0.114 C  
HETATM   16  C   UNL     1     -10.245  10.405  66.576  1.00  0.00    -0.289 C  
HETATM   17  C   UNL     1      -5.701   9.148  67.463  1.00  0.00    -0.042 C  
HETATM   18  C   UNL     1      -7.047  11.713  67.093  1.00  0.00    -0.143 C  
HETATM   19  C   UNL     1      -6.562   9.360  66.194  1.00  0.00    -0.070 C  
HETATM   20  C   UNL     1      -6.467  10.892  65.887  1.00  0.00    -0.056 C  
ENDROOT
BRANCH  16  21
HETATM   21  C   UNL     1     -11.033  11.458  67.197  1.00  0.00    -0.340 C  
HETATM   22  C   UNL     1     -11.089  12.759  66.887  1.00  0.00    -0.308 C  
HETATM   23  C   UNL     1     -12.035  13.656  67.677  1.00  0.00    -0.386 C  
HETATM   24  C   UNL     1     -11.291  14.831  68.314  1.00  0.00    -0.301 C  
HETATM   25  C   UNL     1     -10.473  15.590  67.266  1.00  0.00    -0.279 C  
HETATM   26  O   UNL     1     -10.442  14.373  69.367  1.00  0.00    -0.382 OA 
HETATM   27  C   UNL     1      -9.555  14.659  66.460  1.00  0.00    -0.308 C  
HETATM   28  H   UNL     1      -9.980  15.102  69.763  1.00  0.00     0.000 HD 
HETATM   29  C   UNL     1     -10.288  13.468  65.907  1.00  0.00    -0.301 C  
HETATM   30  C   UNL     1     -10.258  13.118  64.614  1.00  0.00    -0.327 C  
ENDBRANCH  16  21
TORSDOF 1
ENDMDL
MODEL       41
REMARK 921   NORMALIZED FREE ENERGY PREDICTED BY IDOCK:   -5.36 KCAL/MOL
REMARK 922        TOTAL FREE ENERGY PREDICTED BY IDOCK:   -6.14 KCAL/MOL
REMARK 923 INTER-LIGAND FREE ENERGY PREDICTED BY IDOCK:   -5.09 KCAL/MOL
REMARK 924 INTRA-LIGAND FREE ENERGY PREDICTED BY IDOCK:   -1.05 KCAL/MOL
REMARK 927      BINDING AFFINITY PREDICTED BY RF-SCORE:    0.00 PKD
ROOT
HETATM    1  C   UNL     1     -11.462  12.981  66.730  1.00  0.00    -0.392 C  
HETATM    2  C   UNL     1     -11.377  14.111  67.767  1.00  0.00    -0.330 C  
HETATM    3  C   UNL     1      -9.995  14.810  67.753  1.00  0.00    -0.223 C  
HETATM    4  C   UNL     1     -11.816  13.612  69.138  1.00  0.00    -0.394 C  
HETATM    5  C   UNL     1      -8.812  13.963  68.185  1.00  0.00    -0.184 C  
HETATM    6  C   UNL     1     -10.003  16.054  68.648  1.00  0.00    -0.220 C  
HETATM    7  C   UNL     1      -7.789  13.630  67.377  1.00  0.00    -0.162 C  
HETATM    8  C   UNL     1      -6.409  13.157  67.820  1.00  0.00    -0.156 C  
HETATM    9  C   UNL     1      -6.157  11.653  68.285  1.00  0.00    -0.049 C  
HETATM   10  C   UNL     1      -5.817  14.200  68.778  1.00  0.00    -0.085 C  
HETATM   11  C   UNL     1      -6.970  11.279  69.525  1.00  0.00    -0.089 C  
HETATM   12  C   UNL     1      -8.190  10.517  69.022  1.00  0.00    -0.145 C  
HETATM   13  C   UNL     1      -8.069  10.411  67.481  1.00  0.00    -0.107 C  
HETATM   14  C   UNL     1      -8.698   9.147  66.905  1.00  0.00    -0.133 C  
HETATM   15  C   UNL     1      -7.932   8.651  65.714  1.00  0.00    -0.106 C  
HETATM   16  C   UNL     1      -9.790   8.536  67.413  1.00  0.00    -0.244 C  
HETATM   17  C   UNL     1      -6.035  11.071  65.836  1.00  0.00    -0.080 C  
HETATM   18  C   UNL     1      -6.536   8.215  66.182  1.00  0.00    -0.047 C  
HETATM   19  C   UNL     1      -6.526  10.564  67.214  1.00  0.00    -0.071 C  
HETATM   20  C   UNL     1      -5.963   9.109  67.339  1.00  0.00    -0.050 C  
ENDROOT
BRANCH  16  21
HETATM   21  C   UNL     1     -10.376   7.333  66.844  1.00  0.00    -0.358 C  
HETATM   22  C   UNL     1      -9.951   6.067  66.933  1.00  0.00    -0.207 C  
HETATM   23  C   UNL     1     -10.777   4.972  66.269  1.00  0.00    -0.262 C  
HETATM   24  C   UNL     1      -9.941   4.164  65.275  1.00  0.00    -0.208 C  
HETATM   25  C   UNL     1      -8.665   3.640  65.938  1.00  0.00    -0.119 C  
HETATM   26  O   UNL     1      -9.614   4.960  64.135  1.00  0.00    -0.354 OA 
HETATM   27  C   UNL     1      -7.869   4.757  66.631  1.00  0.00    -0.099 C  
HETATM   28  H   UNL     1      -9.095   4.458  63.517  1.00  0.00     0.000 HD 
HETATM   29  C   UNL     1      -8.725   5.590  67.544  1.00  0.00    -0.107 C  
HETATM   30  C   UNL     1      -8.421   5.827  68.827  1.00  0.00    -0.107 C  
ENDBRANCH  16  21
TORSDOF 1
ENDMDL
MODEL       42
REMARK 921   NORMALIZED FREE ENERGY PREDICTED BY IDOCK:   -5.31 KCAL/MOL
REMARK 922        TOTAL FREE ENERGY PREDICTED BY IDOCK:   -6.09 KCAL/MOL
REMARK 923 INTER-LIGAND FREE ENERGY PREDICTED BY IDOCK:   -5.03 KCAL/MOL
REMARK 924 INTRA-LIGAND FREE ENERGY PREDICTED BY IDOCK:   -1.07 KCAL/MOL
REMARK 927      BINDING AFFINITY PREDICTED BY RF-SCORE:    0.00 PKD
ROOT
HETATM    1  C   UNL     1      -9.040   6.337  69.340  1.00  0.00    -0.139 C  
HETATM    2  C   UNL     1      -8.968   5.169  68.346  1.00  0.00    -0.118 C  
HETATM    3  C   UNL     1      -7.708   5.246  67.448  1.00  0.00    -0.096 C  
HETATM    4  C   UNL     1     -10.279   5.038  67.580  1.00  0.00    -0.168 C  
HETATM    5  C   UNL     1      -7.642   6.419  66.486  1.00  0.00    -0.094 C  
HETATM    6  C   UNL     1      -7.556   3.972  66.609  1.00  0.00    -0.088 C  
HETATM    7  C   UNL     1      -6.713   7.390  66.546  1.00  0.00    -0.061 C  
HETATM    8  C   UNL     1      -6.330   8.339  65.416  1.00  0.00    -0.048 C  
HETATM    9  C   UNL     1      -7.224   9.610  65.061  1.00  0.00    -0.116 C  
HETATM   10  C   UNL     1      -5.936   7.506  64.188  1.00  0.00    -0.048 C  
HETATM   11  C   UNL     1      -8.634   9.227  64.611  1.00  0.00    -0.209 C  
HETATM   12  C   UNL     1      -9.534   9.409  65.826  1.00  0.00    -0.325 C  
HETATM   13  C   UNL     1      -8.651   9.939  66.984  1.00  0.00    -0.130 C  
HETATM   14  C   UNL     1      -9.398  10.845  67.957  1.00  0.00    -0.160 C  
HETATM   15  C   UNL     1      -8.505  11.926  68.492  1.00  0.00    -0.113 C  
HETATM   16  C   UNL     1     -10.703  10.710  68.279  1.00  0.00    -0.260 C  
HETATM   17  C   UNL     1      -6.083  10.767  66.987  1.00  0.00    -0.068 C  
HETATM   18  C   UNL     1      -8.107  12.845  67.328  1.00  0.00    -0.164 C  
HETATM   19  C   UNL     1      -7.436  10.616  66.250  1.00  0.00    -0.137 C  
HETATM   20  C   UNL     1      -7.915  12.080  65.970  1.00  0.00     0.602 C  
ENDROOT
BRANCH  16  21
HETATM   21  C   UNL     1     -11.394  11.584  69.215  1.00  0.00    -0.353 C  
HETATM   22  C   UNL     1     -11.911  12.800  69.004  1.00  0.00    -0.344 C  
HETATM   23  C   UNL     1     -12.627  13.497  70.154  1.00  0.00    -0.178 C  
HETATM   24  C   UNL     1     -12.015  14.867  70.447  1.00  0.00    -0.314 C  
HETATM   25  C   UNL     1     -11.947  15.716  69.175  1.00  0.00    -0.329 C  
HETATM   26  O   UNL     1     -10.711  14.722  71.014  1.00  0.00    -0.510 OA 
HETATM   27  C   UNL     1     -11.253  14.978  68.020  1.00  0.00    -0.324 C  
HETATM   28  H   UNL     1     -10.331  15.573  71.196  1.00  0.00     0.000 HD 
HETATM   29  C   UNL     1     -11.816  13.601  67.799  1.00  0.00    -0.403 C  
HETATM   30  C   UNL     1     -12.249  13.166  66.609  1.00  0.00    -0.331 C  
ENDBRANCH  16  21
TORSDOF 1
ENDMDL
MODEL       43
REMARK 921   NORMALIZED FREE ENERGY PREDICTED BY IDOCK:   -5.27 KCAL/MOL
REMARK 922        TOTAL FREE ENERGY PREDICTED BY IDOCK:   -6.05 KCAL/MOL
REMARK 923 INTER-LIGAND FREE ENERGY PREDICTED BY IDOCK:   -5.25 KCAL/MOL
REMARK 924 INTRA-LIGAND FREE ENERGY PREDICTED BY IDOCK:   -0.79 KCAL/MOL
REMARK 927      BINDING AFFINITY PREDICTED BY RF-SCORE:    0.00 PKD
ROOT
HETATM    1  C   UNL     1     -11.139  10.095  67.854  1.00  0.00    -0.303 C  
HETATM    2  C   UNL     1     -10.762  11.497  67.354  1.00  0.00    -0.275 C  
HETATM    3  C   UNL     1     -10.358  11.493  65.859  1.00  0.00    -0.293 C  
HETATM    4  C   UNL     1      -9.735  12.136  68.282  1.00  0.00    -0.216 C  
HETATM    5  C   UNL     1      -9.090  10.736  65.510  1.00  0.00    -0.220 C  
HETATM    6  C   UNL     1     -10.182  12.923  65.337  1.00  0.00    -0.301 C  
HETATM    7  C   UNL     1      -9.056   9.644  64.725  1.00  0.00    -0.283 C  
HETATM    8  C   UNL     1      -7.831   9.089  64.007  1.00  0.00    -0.133 C  
HETATM    9  C   UNL     1      -6.741   8.218  64.778  1.00  0.00    -0.067 C  
HETATM   10  C   UNL     1      -7.223  10.202  63.142  1.00  0.00    -0.132 C  
HETATM   11  C   UNL     1      -6.054   8.997  65.899  1.00  0.00    -0.052 C  
HETATM   12  C   UNL     1      -6.745   8.584  67.193  1.00  0.00    -0.063 C  
HETATM   13  C   UNL     1      -7.817   7.526  66.829  1.00  0.00    -0.110 C  
HETATM   14  C   UNL     1      -8.063   6.503  67.933  1.00  0.00    -0.116 C  
HETATM   15  C   UNL     1      -8.386   5.153  67.363  1.00  0.00    -0.106 C  
HETATM   16  C   UNL     1      -7.979   6.768  69.255  1.00  0.00    -0.115 C  
HETATM   17  C   UNL     1      -8.314   6.268  64.495  1.00  0.00    -0.004 C  
HETATM   18  C   UNL     1      -7.148   4.634  66.616  1.00  0.00    -0.071 C  
HETATM   19  C   UNL     1      -7.305   6.923  65.470  1.00  0.00    -0.079 C  
HETATM   20  C   UNL     1      -6.337   5.769  65.895  1.00  0.00    -0.039 C  
ENDROOT
BRANCH  16  21
HETATM   21  C   UNL     1      -8.224   5.776  70.291  1.00  0.00    -0.110 C  
HETATM   22  C   UNL     1      -9.380   5.434  70.869  1.00  0.00    -0.196 C  
HETATM   23  C   UNL     1      -9.373   4.325  71.915  1.00  0.00    -0.186 C  
HETATM   24  C   UNL     1      -9.963   4.802  73.242  1.00  0.00    -0.155 C  
HETATM   25  C   UNL     1     -11.347   5.423  73.031  1.00  0.00    -0.355 C  
HETATM   26  O   UNL     1      -9.090   5.743  73.868  1.00  0.00    -0.126 OA 
HETATM   27  C   UNL     1     -11.335   6.513  71.948  1.00  0.00    -0.327 C  
HETATM   28  H   UNL     1      -9.457   6.039  74.693  1.00  0.00     0.000 HD 
HETATM   29  C   UNL     1     -10.679   6.050  70.676  1.00  0.00    -0.341 C  
HETATM   30  C   UNL     1     -11.261   6.141  69.472  1.00  0.00    -0.482 C  
ENDBRANCH  16  21
TORSDOF 1
ENDMDL
MODEL       44
REMARK 921   NORMALIZED FREE ENERGY PREDICTED BY IDOCK:   -5.22 KCAL/MOL
REMARK 922        TOTAL FREE ENERGY PREDICTED BY IDOCK:   -5.99 KCAL/MOL
REMARK 923 INTER-LIGAND FREE ENERGY PREDICTED BY IDOCK:   -4.93 KCAL/MOL
REMARK 924 INTRA-LIGAND FREE ENERGY PREDICTED BY IDOCK:   -1.07 KCAL/MOL
REMARK 927      BINDING AFFINITY PREDICTED BY RF-SCORE:    0.00 PKD
ROOT
HETATM    1  C   UNL     1     -12.511  13.042  70.795  1.00  0.00    -0.384 C  
HETATM    2  C   UNL     1     -12.056  14.427  70.311  1.00  0.00    -0.396 C  
HETATM    3  C   UNL     1     -11.947  14.498  68.768  1.00  0.00    -0.315 C  
HETATM    4  C   UNL     1     -10.797  14.864  71.052  1.00  0.00     0.070 C  
HETATM    5  C   UNL     1     -10.878  13.628  68.131  1.00  0.00    -0.262 C  
HETATM    6  C   UNL     1     -11.688  15.936  68.304  1.00  0.00    -0.191 C  
HETATM    7  C   UNL     1     -11.136  12.608  67.295  1.00  0.00    -0.320 C  
HETATM    8  C   UNL     1     -10.153  11.973  66.318  1.00  0.00    -0.247 C  
HETATM    9  C   UNL     1      -9.060  10.921  66.806  1.00  0.00    -0.164 C  
HETATM   10  C   UNL     1      -9.580  13.075  65.414  1.00  0.00     0.079 C  
HETATM   11  C   UNL     1      -8.076  11.521  67.811  1.00  0.00    -0.133 C  
HETATM   12  C   UNL     1      -8.557  11.088  69.190  1.00  0.00    -0.009 C  
HETATM   13  C   UNL     1      -9.808  10.196  68.987  1.00  0.00    -0.211 C  
HETATM   14  C   UNL     1      -9.972   9.121  70.057  1.00  0.00    -0.223 C  
HETATM   15  C   UNL     1     -10.570   7.869  69.486  1.00  0.00    -0.220 C  
HETATM   16  C   UNL     1      -9.604   9.266  71.349  1.00  0.00    -0.229 C  
HETATM   17  C   UNL     1     -10.898   9.199  66.729  1.00  0.00     0.041 C  
HETATM   18  C   UNL     1      -9.575   7.272  68.480  1.00  0.00    -0.140 C  
HETATM   19  C   UNL     1      -9.646   9.650  67.521  1.00  0.00    -0.180 C  
HETATM   20  C   UNL     1      -8.775   8.359  67.678  1.00  0.00    -0.137 C  
ENDROOT
BRANCH  16  21
HETATM   21  C   UNL     1      -9.775   8.229  72.354  1.00  0.00    -0.373 C  
HETATM   22  C   UNL     1      -9.008   7.159  72.597  1.00  0.00    -0.148 C  
HETATM   23  C   UNL     1      -9.390   6.234  73.747  1.00  0.00    -0.144 C  
HETATM   24  C   UNL     1      -9.569   4.793  73.270  1.00  0.00    -0.129 C  
HETATM   25  C   UNL     1      -8.336   4.318  72.497  1.00  0.00    -0.101 C  
HETATM   26  O   UNL     1     -10.738   4.677  72.457  1.00  0.00    -0.200 OA 
HETATM   27  C   UNL     1      -7.951   5.284  71.367  1.00  0.00    -0.114 C  
HETATM   28  H   UNL     1     -10.849   3.781  72.161  1.00  0.00     0.000 HD 
HETATM   29  C   UNL     1      -7.857   6.709  71.838  1.00  0.00    -0.098 C  
HETATM   30  C   UNL     1      -6.784   7.484  71.632  1.00  0.00    -0.049 C  
ENDBRANCH  16  21
TORSDOF 1
ENDMDL
MODEL       45
REMARK 921   NORMALIZED FREE ENERGY PREDICTED BY IDOCK:   -5.22 KCAL/MOL
REMARK 922        TOTAL FREE ENERGY PREDICTED BY IDOCK:   -5.99 KCAL/MOL
REMARK 923 INTER-LIGAND FREE ENERGY PREDICTED BY IDOCK:   -4.92 KCAL/MOL
REMARK 924 INTRA-LIGAND FREE ENERGY PREDICTED BY IDOCK:   -1.07 KCAL/MOL
REMARK 927      BINDING AFFINITY PREDICTED BY RF-SCORE:    0.00 PKD
ROOT
HETATM    1  C   UNL     1     -13.370   8.045  70.706  1.00  0.00     0.382 C  
HETATM    2  C   UNL     1     -13.286   9.249  71.656  1.00  0.00    -0.456 C  
HETATM    3  C   UNL     1     -13.016  10.571  70.896  1.00  0.00    -0.455 C  
HETATM    4  C   UNL     1     -12.310   8.966  72.792  1.00  0.00    -0.025 C  
HETATM    5  C   UNL     1     -11.669  10.684  70.204  1.00  0.00    -0.417 C  
HETATM    6  C   UNL     1     -13.136  11.776  71.836  1.00  0.00    -0.482 C  
HETATM    7  C   UNL     1     -11.513  10.787  68.872  1.00  0.00    -0.362 C  
HETATM    8  C   UNL     1     -10.275  11.306  68.149  1.00  0.00    -0.196 C  
HETATM    9  C   UNL     1      -8.989  10.388  67.941  1.00  0.00    -0.128 C  
HETATM   10  C   UNL     1      -9.946  12.708  68.684  1.00  0.00    -0.106 C  
HETATM   11  C   UNL     1      -8.355   9.959  69.264  1.00  0.00    -0.151 C  
HETATM   12  C   UNL     1      -8.851   8.545  69.537  1.00  0.00    -0.141 C  
HETATM   13  C   UNL     1      -9.750   8.130  68.345  1.00  0.00    -0.172 C  
HETATM   14  C   UNL     1      -9.720   6.634  68.049  1.00  0.00    -0.126 C  
HETATM   15  C   UNL     1      -9.850   6.366  66.578  1.00  0.00    -0.170 C  
HETATM   16  C   UNL     1      -9.571   5.672  68.985  1.00  0.00    -0.174 C  
HETATM   17  C   UNL     1     -10.217   9.365  65.992  1.00  0.00    -0.204 C  
HETATM   18  C   UNL     1      -8.609   6.930  65.872  1.00  0.00    -0.152 C  
HETATM   19  C   UNL     1      -9.258   9.047  67.166  1.00  0.00    -0.164 C  
HETATM   20  C   UNL     1      -8.072   8.254  66.522  1.00  0.00    -0.105 C  
ENDROOT
BRANCH  16  21
HETATM   21  C   UNL     1      -9.551   4.250  68.681  1.00  0.00    -0.210 C  
HETATM   22  C   UNL     1      -8.556   3.513  68.174  1.00  0.00    -0.119 C  
HETATM   23  C   UNL     1      -8.779   2.018  67.982  1.00  0.00    -0.122 C  
HETATM   24  C   UNL     1      -8.536   1.595  66.533  1.00  0.00    -0.101 C  
HETATM   25  C   UNL     1      -7.160   2.066  66.053  1.00  0.00    -0.051 C  
HETATM   26  O   UNL     1      -9.560   2.113  65.682  1.00  0.00    -0.352 OA 
HETATM   27  C   UNL     1      -6.946   3.569  66.289  1.00  0.00    -0.062 C  
HETATM   28  H   UNL     1      -9.408   1.851  64.782  1.00  0.00     0.000 HD 
HETATM   29  C   UNL     1      -7.266   3.980  67.700  1.00  0.00    -0.067 C  
HETATM   30  C   UNL     1      -6.418   4.665  68.479  1.00  0.00    -0.037 C  
ENDBRANCH  16  21
TORSDOF 1
ENDMDL
MODEL       46
REMARK 921   NORMALIZED FREE ENERGY PREDICTED BY IDOCK:   -5.21 KCAL/MOL
REMARK 922        TOTAL FREE ENERGY PREDICTED BY IDOCK:   -5.98 KCAL/MOL
REMARK 923 INTER-LIGAND FREE ENERGY PREDICTED BY IDOCK:   -5.15 KCAL/MOL
REMARK 924 INTRA-LIGAND FREE ENERGY PREDICTED BY IDOCK:   -0.84 KCAL/MOL
REMARK 927      BINDING AFFINITY PREDICTED BY RF-SCORE:    0.00 PKD
ROOT
HETATM    1  C   UNL     1     -10.912  12.370  64.789  1.00  0.00    -0.340 C  
HETATM    2  C   UNL     1     -11.772  13.633  64.633  1.00  0.00    -0.414 C  
HETATM    3  C   UNL     1     -10.913  14.921  64.600  1.00  0.00    -0.323 C  
HETATM    4  C   UNL     1     -12.891  13.649  65.667  1.00  0.00    -0.425 C  
HETATM    5  C   UNL     1     -10.168  15.262  65.879  1.00  0.00    -0.353 C  
HETATM    6  C   UNL     1     -11.770  16.141  64.245  1.00  0.00     0.003 C  
HETATM    7  C   UNL     1      -8.828  15.295  65.984  1.00  0.00    -0.029 C  
HETATM    8  C   UNL     1      -8.028  16.008  67.069  1.00  0.00    -0.262 C  
HETATM    9  C   UNL     1      -7.840  15.368  68.517  1.00  0.00    -0.134 C  
HETATM   10  C   UNL     1      -8.452  17.483  67.103  1.00  0.00    -0.232 C  
HETATM   11  C   UNL     1      -9.167  15.183  69.253  1.00  0.00    -0.205 C  
HETATM   12  C   UNL     1      -9.555  13.721  69.074  1.00  0.00     0.174 C  
HETATM   13  C   UNL     1      -8.427  13.037  68.261  1.00  0.00    -0.159 C  
HETATM   14  C   UNL     1      -8.235  11.563  68.603  1.00  0.00    -0.124 C  
HETATM   15  C   UNL     1      -6.792  11.163  68.506  1.00  0.00    -0.065 C  
HETATM   16  C   UNL     1      -9.231  10.728  68.972  1.00  0.00    -0.157 C  
HETATM   17  C   UNL     1      -6.011  13.965  67.498  1.00  0.00     0.049 C  
HETATM   18  C   UNL     1      -6.005  11.921  69.585  1.00  0.00    -0.114 C  
HETATM   19  C   UNL     1      -7.170  13.946  68.524  1.00  0.00    -0.107 C  
HETATM   20  C   UNL     1      -6.543  13.374  69.840  1.00  0.00     0.081 C  
ENDROOT
BRANCH  16  21
HETATM   21  C   UNL     1      -9.026   9.323  69.288  1.00  0.00    -0.147 C  
HETATM   22  C   UNL     1      -9.125   8.258  68.485  1.00  0.00    -0.136 C  
HETATM   23  C   UNL     1      -8.819   6.879  69.059  1.00  0.00    -0.130 C  
HETATM   24  C   UNL     1      -9.996   5.921  68.873  1.00  0.00    -0.157 C  
HETATM   25  C   UNL     1     -10.437   5.879  67.408  1.00  0.00    -0.311 C  
HETATM   26  O   UNL     1     -11.090   6.304  69.708  1.00  0.00    -0.333 OA 
HETATM   27  C   UNL     1     -10.705   7.282  66.842  1.00  0.00    -0.346 C  
HETATM   28  H   UNL     1     -11.821   5.708  69.593  1.00  0.00     0.000 HD 
HETATM   29  C   UNL     1      -9.570   8.233  67.104  1.00  0.00    -0.234 C  
HETATM   30  C   UNL     1      -8.976   8.953  66.144  1.00  0.00    -0.218 C  
ENDBRANCH  16  21
TORSDOF 1
ENDMDL
MODEL       47
REMARK 921   NORMALIZED FREE ENERGY PREDICTED BY IDOCK:   -5.20 KCAL/MOL
REMARK 922        TOTAL FREE ENERGY PREDICTED BY IDOCK:   -5.98 KCAL/MOL
REMARK 923 INTER-LIGAND FREE ENERGY PREDICTED BY IDOCK:   -5.16 KCAL/MOL
REMARK 924 INTRA-LIGAND FREE ENERGY PREDICTED BY IDOCK:   -0.81 KCAL/MOL
REMARK 927      BINDING AFFINITY PREDICTED BY RF-SCORE:    0.00 PKD
ROOT
HETATM    1  C   UNL     1      -8.324   5.792  67.568  1.00  0.00    -0.104 C  
HETATM    2  C   UNL     1      -8.144   5.033  66.245  1.00  0.00    -0.108 C  
HETATM    3  C   UNL     1      -7.026   5.650  65.369  1.00  0.00    -0.064 C  
HETATM    4  C   UNL     1      -9.483   4.870  65.536  1.00  0.00    -0.155 C  
HETATM    5  C   UNL     1      -7.286   7.049  64.839  1.00  0.00    -0.078 C  
HETATM    6  C   UNL     1      -6.731   4.762  64.155  1.00  0.00    -0.043 C  
HETATM    7  C   UNL     1      -6.555   8.128  65.172  1.00  0.00    -0.052 C  
HETATM    8  C   UNL     1      -6.481   9.439  64.398  1.00  0.00    -0.089 C  
HETATM    9  C   UNL     1      -7.631  10.537  64.514  1.00  0.00     0.052 C  
HETATM   10  C   UNL     1      -6.074   9.131  62.949  1.00  0.00    -0.090 C  
HETATM   11  C   UNL     1      -8.985  10.022  64.025  1.00  0.00    -0.270 C  
HETATM   12  C   UNL     1      -9.766   9.623  65.270  1.00  0.00    -0.330 C  
HETATM   13  C   UNL     1      -8.876   9.943  66.499  1.00  0.00    -0.154 C  
HETATM   14  C   UNL     1      -9.670  10.323  67.744  1.00  0.00    -0.178 C  
HETATM   15  C   UNL     1      -8.942  11.348  68.563  1.00  0.00    -0.158 C  
HETATM   16  C   UNL     1     -10.883   9.821  68.061  1.00  0.00    -0.276 C  
HETATM   17  C   UNL     1      -6.524  11.255  66.661  1.00  0.00    -0.128 C  
HETATM   18  C   UNL     1      -8.852  12.645  67.746  1.00  0.00    -0.179 C  
HETATM   19  C   UNL     1      -7.897  11.056  65.974  1.00  0.00    -0.077 C  
HETATM   20  C   UNL     1      -8.669  12.398  66.207  1.00  0.00     0.099 C  
ENDROOT
BRANCH  16  21
HETATM   21  C   UNL     1     -11.620  10.193  69.258  1.00  0.00    -0.120 C  
HETATM   22  C   UNL     1     -11.574   9.644  70.478  1.00  0.00    -0.341 C  
HETATM   23  C   UNL     1     -12.428  10.252  71.584  1.00  0.00    -0.491 C  
HETATM   24  C   UNL     1     -13.360   9.213  72.208  1.00  0.00    -0.477 C  
HETATM   25  C   UNL     1     -12.575   7.980  72.661  1.00  0.00    -0.048 C  
HETATM   26  O   UNL     1     -14.380   8.836  71.281  1.00  0.00    -0.525 OA 
HETATM   27  C   UNL     1     -11.695   7.407  71.539  1.00  0.00    -0.314 C  
HETATM   28  H   UNL     1     -14.960   8.191  71.669  1.00  0.00     0.000 HD 
HETATM   29  C   UNL     1     -10.843   8.459  70.884  1.00  0.00    -0.267 C  
HETATM   30  C   UNL     1      -9.516   8.346  70.738  1.00  0.00    -0.199 C  
ENDBRANCH  16  21
TORSDOF 1
ENDMDL
MODEL       48
REMARK 921   NORMALIZED FREE ENERGY PREDICTED BY IDOCK:   -5.15 KCAL/MOL
REMARK 922        TOTAL FREE ENERGY PREDICTED BY IDOCK:   -5.92 KCAL/MOL
REMARK 923 INTER-LIGAND FREE ENERGY PREDICTED BY IDOCK:   -4.87 KCAL/MOL
REMARK 924 INTRA-LIGAND FREE ENERGY PREDICTED BY IDOCK:   -1.05 KCAL/MOL
REMARK 927      BINDING AFFINITY PREDICTED BY RF-SCORE:    0.00 PKD
ROOT
HETATM    1  C   UNL     1     -10.446   6.809  73.374  1.00  0.00    -0.335 C  
HETATM    2  C   UNL     1     -10.975   5.369  73.294  1.00  0.00    -0.358 C  
HETATM    3  C   UNL     1     -10.008   4.436  72.525  1.00  0.00    -0.225 C  
HETATM    4  C   UNL     1     -12.409   5.356  72.777  1.00  0.00     0.225 C  
HETATM    5  C   UNL     1      -9.824   4.734  71.047  1.00  0.00    -0.267 C  
HETATM    6  C   UNL     1     -10.459   2.974  72.632  1.00  0.00    -0.175 C  
HETATM    7  C   UNL     1      -8.659   5.118  70.497  1.00  0.00    -0.126 C  
HETATM    8  C   UNL     1      -8.291   5.035  69.019  1.00  0.00    -0.086 C  
HETATM    9  C   UNL     1      -8.815   6.116  67.972  1.00  0.00    -0.111 C  
HETATM   10  C   UNL     1      -8.479   3.586  68.548  1.00  0.00    -0.104 C  
HETATM   11  C   UNL     1     -10.340   6.132  67.859  1.00  0.00    -0.250 C  
HETATM   12  C   UNL     1     -10.820   7.293  68.720  1.00  0.00    -0.121 C  
HETATM   13  C   UNL     1      -9.564   7.985  69.309  1.00  0.00    -0.157 C  
HETATM   14  C   UNL     1      -9.742   9.482  69.536  1.00  0.00    -0.201 C  
HETATM   15  C   UNL     1      -8.462  10.227  69.296  1.00  0.00    -0.172 C  
HETATM   16  C   UNL     1     -10.907  10.070  69.885  1.00  0.00    -0.328 C  
HETATM   17  C   UNL     1      -6.946   7.597  68.787  1.00  0.00    -0.071 C  
HETATM   18  C   UNL     1      -8.097  10.097  67.810  1.00  0.00    -0.109 C  
HETATM   19  C   UNL     1      -8.417   7.600  68.305  1.00  0.00    -0.125 C  
HETATM   20  C   UNL     1      -8.481   8.704  67.196  1.00  0.00    -0.114 C  
ENDROOT
BRANCH  16  21
HETATM   21  C   UNL     1     -11.053  11.501  70.102  1.00  0.00     0.153 C  
HETATM   22  C   UNL     1     -11.134  12.484  69.198  1.00  0.00    -0.254 C  
HETATM   23  C   UNL     1     -11.323  13.914  69.690  1.00  0.00    -0.259 C  
HETATM   24  C   UNL     1     -10.221  14.837  69.170  1.00  0.00    -0.220 C  
HETATM   25  C   UNL     1     -10.098  14.734  67.647  1.00  0.00    -0.227 C  
HETATM   26  O   UNL     1      -8.972  14.522  69.788  1.00  0.00    -0.252 OA 
HETATM   27  C   UNL     1      -9.944  13.280  67.174  1.00  0.00    -0.238 C  
HETATM   28  H   UNL     1      -8.287  15.095  69.465  1.00  0.00     0.000 HD 
HETATM   29  C   UNL     1     -10.990  12.372  67.758  1.00  0.00    -0.267 C  
HETATM   30  C   UNL     1     -11.767  11.571  67.018  1.00  0.00    -0.092 C  
ENDBRANCH  16  21
TORSDOF 1
ENDMDL
MODEL       49
REMARK 921   NORMALIZED FREE ENERGY PREDICTED BY IDOCK:   -5.13 KCAL/MOL
REMARK 922        TOTAL FREE ENERGY PREDICTED BY IDOCK:   -5.90 KCAL/MOL
REMARK 923 INTER-LIGAND FREE ENERGY PREDICTED BY IDOCK:   -5.33 KCAL/MOL
REMARK 924 INTRA-LIGAND FREE ENERGY PREDICTED BY IDOCK:   -0.57 KCAL/MOL
REMARK 927      BINDING AFFINITY PREDICTED BY RF-SCORE:    0.00 PKD
ROOT
HETATM    1  C   UNL     1      -5.901  11.791  67.596  1.00  0.00    -0.068 C  
HETATM    2  C   UNL     1      -6.019  10.667  68.636  1.00  0.00    -0.040 C  
HETATM    3  C   UNL     1      -7.107   9.634  68.253  1.00  0.00    -0.078 C  
HETATM    4  C   UNL     1      -6.168  11.248  70.037  1.00  0.00    -0.149 C  
HETATM    5  C   UNL     1      -8.538  10.140  68.245  1.00  0.00    -0.116 C  
HETATM    6  C   UNL     1      -7.068   8.424  69.195  1.00  0.00    -0.064 C  
HETATM    7  C   UNL     1      -9.308  10.205  67.144  1.00  0.00    -0.176 C  
HETATM    8  C   UNL     1     -10.829  10.299  67.113  1.00  0.00    -0.278 C  
HETATM    9  C   UNL     1     -11.580  11.681  67.372  1.00  0.00    -0.330 C  
HETATM   10  C   UNL     1     -11.410   9.127  67.918  1.00  0.00     0.626 C  
HETATM   11  C   UNL     1     -11.314  12.240  68.770  1.00  0.00    -0.337 C  
HETATM   12  C   UNL     1     -10.229  13.297  68.608  1.00  0.00    -0.178 C  
HETATM   13  C   UNL     1      -9.888  13.384  67.099  1.00  0.00    -0.237 C  
HETATM   14  C   UNL     1      -9.447  14.774  66.652  1.00  0.00    -0.293 C  
HETATM   15  C   UNL     1      -9.903  15.068  65.253  1.00  0.00    -0.249 C  
HETATM   16  C   UNL     1      -8.757  15.643  67.423  1.00  0.00    -0.194 C  
HETATM   17  C   UNL     1     -11.076  12.237  64.966  1.00  0.00    -0.359 C  
HETATM   18  C   UNL     1     -11.437  15.122  65.245  1.00  0.00    -0.266 C  
HETATM   19  C   UNL     1     -11.181  12.840  66.388  1.00  0.00    -0.339 C  
HETATM   20  C   UNL     1     -12.100  14.097  66.233  1.00  0.00    -0.463 C  
ENDROOT
BRANCH  16  21
HETATM   21  C   UNL     1      -8.342  16.963  66.974  1.00  0.00    -0.227 C  
HETATM   22  C   UNL     1      -7.198  17.612  67.219  1.00  0.00    -0.203 C  
HETATM   23  C   UNL     1      -6.991  18.986  66.592  1.00  0.00    -0.220 C  
HETATM   24  C   UNL     1      -6.695  20.047  67.652  1.00  0.00    -0.241 C  
HETATM   25  C   UNL     1      -5.533  19.611  68.549  1.00  0.00    -0.222 C  
HETATM   26  O   UNL     1      -7.858  20.304  68.441  1.00  0.00    -0.147 OA 
HETATM   27  C   UNL     1      -5.749  18.209  69.140  1.00  0.00    -0.211 C  
HETATM   28  H   UNL     1      -7.674  20.963  69.100  1.00  0.00     0.000 HD 
HETATM   29  C   UNL     1      -6.117  17.196  68.092  1.00  0.00    -0.128 C  
HETATM   30  C   UNL     1      -5.471  16.033  67.932  1.00  0.00    -0.145 C  
ENDBRANCH  16  21
TORSDOF 1
ENDMDL
MODEL       50
REMARK 921   NORMALIZED FREE ENERGY PREDICTED BY IDOCK:   -5.10 KCAL/MOL
REMARK 922        TOTAL FREE ENERGY PREDICTED BY IDOCK:   -5.87 KCAL/MOL
REMARK 923 INTER-LIGAND FREE ENERGY PREDICTED BY IDOCK:   -5.31 KCAL/MOL
REMARK 924 INTRA-LIGAND FREE ENERGY PREDICTED BY IDOCK:   -0.56 KCAL/MOL
REMARK 927      BINDING AFFINITY PREDICTED BY RF-SCORE:    0.00 PKD
ROOT
HETATM    1  C   UNL     1     -10.685  11.916  63.081  1.00  0.00    -0.309 C  
HETATM    2  C   UNL     1     -11.813  12.911  63.395  1.00  0.00    -0.576 C  
HETATM    3  C   UNL     1     -11.320  14.093  64.265  1.00  0.00    -0.241 C  
HETATM    4  C   UNL     1     -13.028  12.180  63.955  1.00  0.00    -0.293 C  
HETATM    5  C   UNL     1     -10.870  13.747  65.673  1.00  0.00    -0.287 C  
HETATM    6  C   UNL     1     -12.407  15.166  64.396  1.00  0.00    -0.225 C  
HETATM    7  C   UNL     1      -9.611  13.900  66.120  1.00  0.00    -0.249 C  
HETATM    8  C   UNL     1      -9.177  13.973  67.580  1.00  0.00    -0.194 C  
HETATM    9  C   UNL     1      -9.029  12.658  68.469  1.00  0.00    -0.046 C  
HETATM   10  C   UNL     1      -9.970  15.092  68.272  1.00  0.00    -0.223 C  
HETATM   11  C   UNL     1     -10.351  11.906  68.628  1.00  0.00    -0.218 C  
HETATM   12  C   UNL     1     -10.319  10.767  67.617  1.00  0.00    -0.236 C  
HETATM   13  C   UNL     1      -8.952  10.830  66.889  1.00  0.00    -0.147 C  
HETATM   14  C   UNL     1      -8.435   9.467  66.443  1.00  0.00    -0.131 C  
HETATM   15  C   UNL     1      -6.938   9.398  66.525  1.00  0.00    -0.084 C  
HETATM   16  C   UNL     1      -9.221   8.442  66.048  1.00  0.00    -0.247 C  
HETATM   17  C   UNL     1      -6.778  12.352  67.376  1.00  0.00    -0.152 C  
HETATM   18  C   UNL     1      -6.528   9.510  68.000  1.00  0.00    -0.061 C  
HETATM   19  C   UNL     1      -8.022  11.593  67.901  1.00  0.00    -0.132 C  
HETATM   20  C   UNL     1      -7.452  10.469  68.831  1.00  0.00    -0.104 C  
ENDROOT
BRANCH  16  21
HETATM   21  C   UNL     1      -8.704   7.151  65.621  1.00  0.00    -0.088 C  
HETATM   22  C   UNL     1      -8.993   5.933  66.093  1.00  0.00    -0.157 C  
HETATM   23  C   UNL     1      -8.337   4.722  65.440  1.00  0.00    -0.122 C  
HETATM   24  C   UNL     1      -7.573   3.880  66.461  1.00  0.00    -0.088 C  
HETATM   25  C   UNL     1      -8.471   3.513  67.645  1.00  0.00    -0.106 C  
HETATM   26  O   UNL     1      -6.413   4.578  66.919  1.00  0.00    -0.039 OA 
HETATM   27  C   UNL     1      -9.149   4.745  68.264  1.00  0.00    -0.145 C  
HETATM   28  H   UNL     1      -5.938   4.054  67.553  1.00  0.00     0.000 HD 
HETATM   29  C   UNL     1      -9.828   5.604  67.233  1.00  0.00    -0.163 C  
HETATM   30  C   UNL     1     -11.108   5.988  67.322  1.00  0.00    -0.247 C  
ENDBRANCH  16  21
TORSDOF 1
ENDMDL
MODEL       51
REMARK 921   NORMALIZED FREE ENERGY PREDICTED BY IDOCK:   -5.10 KCAL/MOL
REMARK 922        TOTAL FREE ENERGY PREDICTED BY IDOCK:   -5.87 KCAL/MOL
REMARK 923 INTER-LIGAND FREE ENERGY PREDICTED BY IDOCK:   -5.05 KCAL/MOL
REMARK 924 INTRA-LIGAND FREE ENERGY PREDICTED BY IDOCK:   -0.82 KCAL/MOL
REMARK 927      BINDING AFFINITY PREDICTED BY RF-SCORE:    0.00 PKD
ROOT
HETATM    1  C   UNL     1     -11.815  12.103  70.925  1.00  0.00     0.247 C  
HETATM    2  C   UNL     1     -12.633  10.830  71.188  1.00  0.00    -0.532 C  
HETATM    3  C   UNL     1     -11.749   9.666  71.699  1.00  0.00    -0.439 C  
HETATM    4  C   UNL     1     -13.489  10.486  69.975  1.00  0.00     0.798 C  
HETATM    5  C   UNL     1     -10.723   9.124  70.720  1.00  0.00    -0.327 C  
HETATM    6  C   UNL     1     -12.613   8.478  72.141  1.00  0.00    -0.431 C  
HETATM    7  C   UNL     1      -9.393   9.193  70.909  1.00  0.00    -0.335 C  
HETATM    8  C   UNL     1      -8.339   8.339  70.213  1.00  0.00    -0.123 C  
HETATM    9  C   UNL     1      -7.858   8.662  68.728  1.00  0.00    -0.106 C  
HETATM   10  C   UNL     1      -8.683   6.859  70.435  1.00  0.00    -0.147 C  
HETATM   11  C   UNL     1      -8.992   8.558  67.708  1.00  0.00    -0.140 C  
HETATM   12  C   UNL     1      -9.472   9.982  67.455  1.00  0.00    -0.169 C  
HETATM   13  C   UNL     1      -8.585  10.928  68.304  1.00  0.00    -0.139 C  
HETATM   14  C   UNL     1      -8.384  12.303  67.676  1.00  0.00    -0.166 C  
HETATM   15  C   UNL     1      -7.019  12.847  67.978  1.00  0.00    -0.108 C  
HETATM   16  C   UNL     1      -9.305  12.942  66.923  1.00  0.00    -0.240 C  
HETATM   17  C   UNL     1      -6.366  10.417  69.751  1.00  0.00    -0.079 C  
HETATM   18  C   UNL     1      -5.978  11.948  67.295  1.00  0.00    -0.134 C  
HETATM   19  C   UNL     1      -7.264  10.104  68.530  1.00  0.00    -0.080 C  
HETATM   20  C   UNL     1      -6.382  10.431  67.279  1.00  0.00    -0.062 C  
ENDROOT
BRANCH  16  21
HETATM   21  C   UNL     1      -9.094  14.257  66.338  1.00  0.00    -0.171 C  
HETATM   22  C   UNL     1      -9.359  15.461  66.859  1.00  0.00    -0.255 C  
HETATM   23  C   UNL     1      -9.004  16.701  66.047  1.00  0.00    -0.248 C  
HETATM   24  C   UNL     1     -10.224  17.597  65.830  1.00  0.00    -0.232 C  
HETATM   25  C   UNL     1     -10.904  17.922  67.163  1.00  0.00    -0.149 C  
HETATM   26  O   UNL     1     -11.152  16.972  64.942  1.00  0.00    -0.652 OA 
HETATM   27  C   UNL     1     -11.218  16.658  67.978  1.00  0.00    -0.164 C  
HETATM   28  H   UNL     1     -11.910  17.529  64.807  1.00  0.00     0.000 HD 
HETATM   29  C   UNL     1     -10.027  15.751  68.113  1.00  0.00    -0.214 C  
HETATM   30  C   UNL     1      -9.578  15.294  69.290  1.00  0.00    -0.249 C  
ENDBRANCH  16  21
TORSDOF 1
ENDMDL
MODEL       52
REMARK 921   NORMALIZED FREE ENERGY PREDICTED BY IDOCK:   -5.10 KCAL/MOL
REMARK 922        TOTAL FREE ENERGY PREDICTED BY IDOCK:   -5.86 KCAL/MOL
REMARK 923 INTER-LIGAND FREE ENERGY PREDICTED BY IDOCK:   -5.09 KCAL/MOL
REMARK 924 INTRA-LIGAND FREE ENERGY PREDICTED BY IDOCK:   -0.77 KCAL/MOL
REMARK 927      BINDING AFFINITY PREDICTED BY RF-SCORE:    0.00 PKD
ROOT
HETATM    1  C   UNL     1      -9.269  11.065  67.701  1.00  0.00    -0.151 C  
HETATM    2  C   UNL     1     -10.568  11.715  68.202  1.00  0.00    -0.230 C  
HETATM    3  C   UNL     1     -10.817  11.434  69.704  1.00  0.00    -0.107 C  
HETATM    4  C   UNL     1     -11.734  11.348  67.291  1.00  0.00    -0.125 C  
HETATM    5  C   UNL     1     -11.081   9.987  70.080  1.00  0.00    -0.371 C  
HETATM    6  C   UNL     1     -12.005  12.253  70.223  1.00  0.00    -0.373 C  
HETATM    7  C   UNL     1     -10.275   9.256  70.870  1.00  0.00    -0.371 C  
HETATM    8  C   UNL     1     -10.659   7.981  71.613  1.00  0.00    -0.280 C  
HETATM    9  C   UNL     1     -10.730   6.574  70.867  1.00  0.00    -0.289 C  
HETATM   10  C   UNL     1     -11.889   8.272  72.485  1.00  0.00    -0.439 C  
HETATM   11  C   UNL     1     -11.779   6.552  69.755  1.00  0.00    -0.293 C  
HETATM   12  C   UNL     1     -11.025   6.778  68.451  1.00  0.00    -0.257 C  
HETATM   13  C   UNL     1      -9.519   6.892  68.799  1.00  0.00    -0.135 C  
HETATM   14  C   UNL     1      -8.597   6.384  67.696  1.00  0.00    -0.115 C  
HETATM   15  C   UNL     1      -7.365   5.746  68.265  1.00  0.00    -0.080 C  
HETATM   16  C   UNL     1      -8.864   6.472  66.374  1.00  0.00    -0.149 C  
HETATM   17  C   UNL     1      -8.225   6.476  71.129  1.00  0.00    -0.121 C  
HETATM   18  C   UNL     1      -7.783   4.486  69.037  1.00  0.00    -0.070 C  
HETATM   19  C   UNL     1      -9.391   6.133  70.170  1.00  0.00    -0.167 C  
HETATM   20  C   UNL     1      -9.164   4.637  69.769  1.00  0.00    -0.185 C  
ENDROOT
BRANCH  16  21
HETATM   21  C   UNL     1      -7.967   5.985  65.338  1.00  0.00    -0.118 C  
HETATM   22  C   UNL     1      -8.042   4.855  64.626  1.00  0.00    -0.111 C  
HETATM   23  C   UNL     1      -6.983   4.593  63.561  1.00  0.00    -0.044 C  
HETATM   24  C   UNL     1      -6.272   3.260  63.793  1.00  0.00    -0.018 C  
HETATM   25  C   UNL     1      -7.285   2.120  63.930  1.00  0.00    -0.052 C  
HETATM   26  O   UNL     1      -5.446   3.330  64.956  1.00  0.00    -0.009 OA 
HETATM   27  C   UNL     1      -8.361   2.423  64.984  1.00  0.00    -0.090 C  
HETATM   28  H   UNL     1      -5.004   2.501  65.101  1.00  0.00     0.000 HD 
HETATM   29  C   UNL     1      -8.994   3.773  64.786  1.00  0.00    -0.125 C  
HETATM   30  C   UNL     1     -10.318   3.961  64.704  1.00  0.00    -0.213 C  
ENDBRANCH  16  21
TORSDOF 1
ENDMDL
MODEL       53
REMARK 921   NORMALIZED FREE ENERGY PREDICTED BY IDOCK:   -5.07 KCAL/MOL
REMARK 922        TOTAL FREE ENERGY PREDICTED BY IDOCK:   -5.83 KCAL/MOL
REMARK 923 INTER-LIGAND FREE ENERGY PREDICTED BY IDOCK:   -5.37 KCAL/MOL
REMARK 924 INTRA-LIGAND FREE ENERGY PREDICTED BY IDOCK:   -0.47 KCAL/MOL
REMARK 927      BINDING AFFINITY PREDICTED BY RF-SCORE:    0.00 PKD
ROOT
HETATM    1  C   UNL     1     -10.792   5.081  65.855  1.00  0.00    -0.123 C  
HETATM    2  C   UNL     1      -9.661   4.112  65.481  1.00  0.00    -0.202 C  
HETATM    3  C   UNL     1      -9.086   3.384  66.721  1.00  0.00    -0.183 C  
HETATM    4  C   UNL     1      -8.616   4.816  64.623  1.00  0.00    -0.147 C  
HETATM    5  C   UNL     1      -8.365   4.255  67.735  1.00  0.00    -0.098 C  
HETATM    6  C   UNL     1      -8.104   2.283  66.302  1.00  0.00    -0.084 C  
HETATM    7  C   UNL     1      -8.784   4.441  68.999  1.00  0.00    -0.116 C  
HETATM    8  C   UNL     1      -7.935   4.939  70.164  1.00  0.00    -0.073 C  
HETATM    9  C   UNL     1      -7.604   6.488  70.347  1.00  0.00    -0.096 C  
HETATM   10  C   UNL     1      -6.704   4.031  70.297  1.00  0.00    -0.033 C  
HETATM   11  C   UNL     1      -6.801   7.058  69.178  1.00  0.00    -0.061 C  
HETATM   12  C   UNL     1      -7.803   7.769  68.277  1.00  0.00    -0.121 C  
HETATM   13  C   UNL     1      -9.196   7.647  68.945  1.00  0.00    -0.139 C  
HETATM   14  C   UNL     1     -10.116   8.829  68.659  1.00  0.00    -0.207 C  
HETATM   15  C   UNL     1     -11.002   9.128  69.833  1.00  0.00    -0.218 C  
HETATM   16  C   UNL     1     -10.119   9.535  67.507  1.00  0.00    -0.257 C  
HETATM   17  C   UNL     1      -9.896   6.704  71.374  1.00  0.00    -0.191 C  
HETATM   18  C   UNL     1     -10.119   9.592  71.000  1.00  0.00    -0.200 C  
HETATM   19  C   UNL     1      -8.866   7.419  70.466  1.00  0.00    -0.148 C  
HETATM   20  C   UNL     1      -8.730   8.862  71.057  1.00  0.00    -0.276 C  
ENDROOT
BRANCH  16  21
HETATM   21  C   UNL     1     -11.010  10.656  67.254  1.00  0.00    -0.348 C  
HETATM   22  C   UNL     1     -11.047  11.478  66.198  1.00  0.00    -0.302 C  
HETATM   23  C   UNL     1     -12.115  12.565  66.157  1.00  0.00    -0.357 C  
HETATM   24  C   UNL     1     -11.496  13.953  65.996  1.00  0.00    -0.340 C  
HETATM   25  C   UNL     1     -10.549  13.991  64.794  1.00  0.00    -0.441 C  
HETATM   26  O   UNL     1     -10.800  14.331  67.185  1.00  0.00    -0.288 OA 
HETATM   27  C   UNL     1      -9.505  12.866  64.840  1.00  0.00     0.387 C  
HETATM   28  H   UNL     1     -10.415  15.194  67.085  1.00  0.00     0.000 HD 
HETATM   29  C   UNL     1     -10.126  11.517  65.078  1.00  0.00    -0.315 C  
HETATM   30  C   UNL     1      -9.900  10.454  64.295  1.00  0.00    -0.388 C  
ENDBRANCH  16  21
TORSDOF 1
ENDMDL
MODEL       54
REMARK 921   NORMALIZED FREE ENERGY PREDICTED BY IDOCK:   -5.06 KCAL/MOL
REMARK 922        TOTAL FREE ENERGY PREDICTED BY IDOCK:   -5.83 KCAL/MOL
REMARK 923 INTER-LIGAND FREE ENERGY PREDICTED BY IDOCK:   -4.80 KCAL/MOL
REMARK 924 INTRA-LIGAND FREE ENERGY PREDICTED BY IDOCK:   -1.02 KCAL/MOL
REMARK 927      BINDING AFFINITY PREDICTED BY RF-SCORE:    0.00 PKD
ROOT
HETATM    1  C   UNL     1      -5.267   8.338  66.202  1.00  0.00    -0.024 C  
HETATM    2  C   UNL     1      -5.549   8.323  64.692  1.00  0.00    -0.044 C  
HETATM    3  C   UNL     1      -6.316   9.587  64.231  1.00  0.00    -0.098 C  
HETATM    4  C   UNL     1      -6.202   7.007  64.285  1.00  0.00    -0.036 C  
HETATM    5  C   UNL     1      -7.729   9.746  64.765  1.00  0.00    -0.128 C  
HETATM    6  C   UNL     1      -6.409   9.642  62.702  1.00  0.00    -0.100 C  
HETATM    7  C   UNL     1      -8.119  10.746  65.574  1.00  0.00    -0.084 C  
HETATM    8  C   UNL     1      -9.554  11.204  65.810  1.00  0.00    -0.255 C  
HETATM    9  C   UNL     1     -10.528  10.411  66.793  1.00  0.00    -0.287 C  
HETATM   10  C   UNL     1     -10.193  11.536  64.454  1.00  0.00    -0.350 C  
HETATM   11  C   UNL     1     -10.786   8.977  66.331  1.00  0.00     0.243 C  
HETATM   12  C   UNL     1      -9.857   8.090  67.150  1.00  0.00    -0.274 C  
HETATM   13  C   UNL     1      -9.078   9.009  68.126  1.00  0.00    -0.134 C  
HETATM   14  C   UNL     1      -8.712   8.331  69.442  1.00  0.00    -0.142 C  
HETATM   15  C   UNL     1      -8.746   9.303  70.584  1.00  0.00    -0.282 C  
HETATM   16  C   UNL     1      -8.418   7.019  69.570  1.00  0.00    -0.134 C  
HETATM   17  C   UNL     1      -9.381  11.633  68.676  1.00  0.00    -0.120 C  
HETATM   18  C   UNL     1     -10.195   9.774  70.776  1.00  0.00    -0.251 C  
HETATM   19  C   UNL     1     -10.002  10.274  68.268  1.00  0.00    -0.166 C  
HETATM   20  C   UNL     1     -10.987   9.910  69.428  1.00  0.00    -0.263 C  
ENDROOT
BRANCH  16  21
HETATM   21  C   UNL     1      -8.065   6.394  70.836  1.00  0.00    -0.124 C  
HETATM   22  C   UNL     1      -8.860   6.069  71.862  1.00  0.00    -0.138 C  
HETATM   23  C   UNL     1      -8.241   5.380  73.073  1.00  0.00    -0.112 C  
HETATM   24  C   UNL     1      -8.518   6.157  74.361  1.00  0.00    -0.121 C  
HETATM   25  C   UNL     1     -10.016   6.429  74.521  1.00  0.00    -0.370 C  
HETATM   26  O   UNL     1      -7.789   7.385  74.370  1.00  0.00    -0.134 OA 
HETATM   27  C   UNL     1     -10.623   7.091  73.274  1.00  0.00    -0.378 C  
HETATM   28  H   UNL     1      -7.960   7.868  75.171  1.00  0.00     0.000 HD 
HETATM   29  C   UNL     1     -10.274   6.357  72.009  1.00  0.00    -0.216 C  
HETATM   30  C   UNL     1     -11.188   5.949  71.118  1.00  0.00    -0.281 C  
ENDBRANCH  16  21
TORSDOF 1
ENDMDL
MODEL       55
REMARK 921   NORMALIZED FREE ENERGY PREDICTED BY IDOCK:   -5.05 KCAL/MOL
REMARK 922        TOTAL FREE ENERGY PREDICTED BY IDOCK:   -5.81 KCAL/MOL
REMARK 923 INTER-LIGAND FREE ENERGY PREDICTED BY IDOCK:   -5.09 KCAL/MOL
REMARK 924 INTRA-LIGAND FREE ENERGY PREDICTED BY IDOCK:   -0.73 KCAL/MOL
REMARK 927      BINDING AFFINITY PREDICTED BY RF-SCORE:    0.00 PKD
ROOT
HETATM    1  C   UNL     1      -6.496   8.387  72.344  1.00  0.00    -0.087 C  
HETATM    2  C   UNL     1      -6.837   7.539  73.579  1.00  0.00    -0.083 C  
HETATM    3  C   UNL     1      -7.069   6.052  73.217  1.00  0.00    -0.085 C  
HETATM    4  C   UNL     1      -7.972   8.180  74.369  1.00  0.00    -0.308 C  
HETATM    5  C   UNL     1      -8.279   5.754  72.349  1.00  0.00    -0.107 C  
HETATM    6  C   UNL     1      -7.208   5.197  74.483  1.00  0.00    -0.082 C  
HETATM    7  C   UNL     1      -8.206   5.245  71.107  1.00  0.00    -0.118 C  
HETATM    8  C   UNL     1      -9.334   4.549  70.352  1.00  0.00    -0.217 C  
HETATM    9  C   UNL     1     -10.490   5.380  69.636  1.00  0.00    -0.361 C  
HETATM   10  C   UNL     1      -9.858   3.390  71.213  1.00  0.00    -0.194 C  
HETATM   11  C   UNL     1     -11.312   6.211  70.622  1.00  0.00    -0.368 C  
HETATM   12  C   UNL     1     -10.764   7.631  70.544  1.00  0.00    -0.241 C  
HETATM   13  C   UNL     1      -9.641   7.638  69.476  1.00  0.00    -0.163 C  
HETATM   14  C   UNL     1      -9.505   8.968  68.742  1.00  0.00    -0.148 C  
HETATM   15  C   UNL     1      -9.099   8.763  67.312  1.00  0.00    -0.151 C  
HETATM   16  C   UNL     1      -9.742  10.176  69.297  1.00  0.00    -0.238 C  
HETATM   17  C   UNL     1      -8.866   5.724  67.740  1.00  0.00    -0.105 C  
HETATM   18  C   UNL     1     -10.237   8.030  66.586  1.00  0.00    -0.315 C  
HETATM   19  C   UNL     1      -9.988   6.408  68.558  1.00  0.00    -0.155 C  
HETATM   20  C   UNL     1     -10.979   6.983  67.492  1.00  0.00    -0.299 C  
ENDROOT
BRANCH  16  21
HETATM   21  C   UNL     1      -9.600  11.433  68.579  1.00  0.00    -0.190 C  
HETATM   22  C   UNL     1      -8.498  12.164  68.375  1.00  0.00    -0.145 C  
HETATM   23  C   UNL     1      -8.611  13.438  67.547  1.00  0.00    -0.200 C  
HETATM   24  C   UNL     1      -8.107  14.656  68.321  1.00  0.00    -0.143 C  
HETATM   25  C   UNL     1      -6.696  14.412  68.862  1.00  0.00    -0.098 C  
HETATM   26  O   UNL     1      -8.998  14.972  69.392  1.00  0.00    -0.350 OA 
HETATM   27  C   UNL     1      -6.599  13.104  69.663  1.00  0.00     0.010 C  
HETATM   28  H   UNL     1      -8.685  15.730  69.873  1.00  0.00     0.000 HD 
HETATM   29  C   UNL     1      -7.172  11.931  68.916  1.00  0.00    -0.098 C  
HETATM   30  C   UNL     1      -6.503  10.789  68.713  1.00  0.00    -0.048 C  
ENDBRANCH  16  21
TORSDOF 1
ENDMDL
MODEL       56
REMARK 921   NORMALIZED FREE ENERGY PREDICTED BY IDOCK:   -5.05 KCAL/MOL
REMARK 922        TOTAL FREE ENERGY PREDICTED BY IDOCK:   -5.81 KCAL/MOL
REMARK 923 INTER-LIGAND FREE ENERGY PREDICTED BY IDOCK:   -4.89 KCAL/MOL
REMARK 924 INTRA-LIGAND FREE ENERGY PREDICTED BY IDOCK:   -0.92 KCAL/MOL
REMARK 927      BINDING AFFINITY PREDICTED BY RF-SCORE:    0.00 PKD
ROOT
HETATM    1  C   UNL     1      -5.426   9.135  67.777  1.00  0.00    -0.034 C  
HETATM    2  C   UNL     1      -5.722   7.865  68.589  1.00  0.00    -0.028 C  
HETATM    3  C   UNL     1      -6.856   7.022  67.956  1.00  0.00    -0.074 C  
HETATM    4  C   UNL     1      -5.938   8.209  70.058  1.00  0.00    -0.022 C  
HETATM    5  C   UNL     1      -8.235   7.656  67.942  1.00  0.00    -0.123 C  
HETATM    6  C   UNL     1      -6.994   5.671  68.667  1.00  0.00    -0.064 C  
HETATM    7  C   UNL     1      -8.903   7.983  66.821  1.00  0.00    -0.157 C  
HETATM    8  C   UNL     1     -10.404   8.226  66.706  1.00  0.00    -0.361 C  
HETATM    9  C   UNL     1     -11.058   9.607  67.157  1.00  0.00     0.109 C  
HETATM   10  C   UNL     1     -11.143   6.994  67.249  1.00  0.00    -0.302 C  
HETATM   11  C   UNL     1     -10.863   9.890  68.647  1.00  0.00    -0.244 C  
HETATM   12  C   UNL     1      -9.685  10.851  68.749  1.00  0.00    -0.196 C  
HETATM   13  C   UNL     1      -9.214  11.163  67.306  1.00  0.00    -0.166 C  
HETATM   14  C   UNL     1      -8.625  12.561  67.145  1.00  0.00    -0.200 C  
HETATM   15  C   UNL     1      -8.938  13.132  65.794  1.00  0.00     0.601 C  
HETATM   16  C   UNL     1      -7.932  13.214  68.103  1.00  0.00    -0.154 C  
HETATM   17  C   UNL     1     -10.312  10.518  64.928  1.00  0.00    -0.307 C  
HETATM   18  C   UNL     1     -10.457  13.333  65.692  1.00  0.00    -0.286 C  
HETATM   19  C   UNL     1     -10.484  10.875  66.425  1.00  0.00    -0.307 C  
HETATM   20  C   UNL     1     -11.281  12.222  66.435  1.00  0.00    -0.370 C  
ENDROOT
BRANCH  16  21
HETATM   21  C   UNL     1      -7.374  14.546  67.925  1.00  0.00    -0.166 C  
HETATM   22  C   UNL     1      -7.920  15.731  68.220  1.00  0.00    -0.130 C  
HETATM   23  C   UNL     1      -7.103  16.993  67.969  1.00  0.00    -0.168 C  
HETATM   24  C   UNL     1      -7.843  17.967  67.051  1.00  0.00    -0.214 C  
HETATM   25  C   UNL     1      -9.249  18.254  67.583  1.00  0.00    -0.271 C  
HETATM   26  O   UNL     1      -7.915  17.445  65.723  1.00  0.00    -0.538 OA 
HETATM   27  C   UNL     1     -10.040  16.967  67.862  1.00  0.00    -0.288 C  
HETATM   28  H   UNL     1      -8.374  18.050  65.152  1.00  0.00     0.000 HD 
HETATM   29  C   UNL     1      -9.265  15.988  68.700  1.00  0.00    -0.216 C  
HETATM   30  C   UNL     1      -9.743  15.441  69.826  1.00  0.00    -0.219 C  
ENDBRANCH  16  21
TORSDOF 1
ENDMDL
MODEL       57
REMARK 921   NORMALIZED FREE ENERGY PREDICTED BY IDOCK:   -5.04 KCAL/MOL
REMARK 922        TOTAL FREE ENERGY PREDICTED BY IDOCK:   -5.80 KCAL/MOL
REMARK 923 INTER-LIGAND FREE ENERGY PREDICTED BY IDOCK:   -5.30 KCAL/MOL
REMARK 924 INTRA-LIGAND FREE ENERGY PREDICTED BY IDOCK:   -0.50 KCAL/MOL
REMARK 927      BINDING AFFINITY PREDICTED BY RF-SCORE:    0.00 PKD
ROOT
HETATM    1  C   UNL     1     -10.544  12.510  64.689  1.00  0.00    -0.343 C  
HETATM    2  C   UNL     1     -11.564  13.647  64.526  1.00  0.00    -0.415 C  
HETATM    3  C   UNL     1     -10.895  15.042  64.591  1.00  0.00    -0.290 C  
HETATM    4  C   UNL     1     -12.729  13.461  65.493  1.00  0.00    -0.469 C  
HETATM    5  C   UNL     1     -10.277  15.427  65.923  1.00  0.00    -0.365 C  
HETATM    6  C   UNL     1     -11.896  16.145  64.229  1.00  0.00     0.108 C  
HETATM    7  C   UNL     1      -8.963  15.642  66.110  1.00  0.00    -0.362 C  
HETATM    8  C   UNL     1      -8.331  16.411  67.265  1.00  0.00    -0.200 C  
HETATM    9  C   UNL     1      -8.134  15.742  68.698  1.00  0.00    -0.161 C  
HETATM   10  C   UNL     1      -8.961  17.810  67.326  1.00  0.00    -0.246 C  
HETATM   11  C   UNL     1      -9.459  15.342  69.346  1.00  0.00    -0.231 C  
HETATM   12  C   UNL     1      -9.626  13.849  69.093  1.00  0.00     0.246 C  
HETATM   13  C   UNL     1      -8.370  13.365  68.325  1.00  0.00    -0.160 C  
HETATM   14  C   UNL     1      -7.991  11.919  68.626  1.00  0.00    -0.101 C  
HETATM   15  C   UNL     1      -6.503  11.728  68.600  1.00  0.00    -0.060 C  
HETATM   16  C   UNL     1      -8.876  10.938  68.904  1.00  0.00    -0.143 C  
HETATM   17  C   UNL     1      -6.072  14.652  67.741  1.00  0.00    -0.136 C  
HETATM   18  C   UNL     1      -5.890  12.540  69.750  1.00  0.00    -0.123 C  
HETATM   19  C   UNL     1      -7.271  14.427  68.695  1.00  0.00    -0.123 C  
HETATM   20  C   UNL     1      -6.641  13.892  70.024  1.00  0.00     0.010 C  
ENDROOT
BRANCH  16  21
HETATM   21  C   UNL     1      -8.492   9.562  69.182  1.00  0.00    -0.131 C  
HETATM   22  C   UNL     1      -9.022   8.704  70.061  1.00  0.00    -0.148 C  
HETATM   23  C   UNL     1      -8.455   7.291  70.133  1.00  0.00    -0.138 C  
HETATM   24  C   UNL     1      -7.985   6.947  71.546  1.00  0.00    -0.104 C  
HETATM   25  C   UNL     1      -9.096   7.203  72.567  1.00  0.00    -0.148 C  
HETATM   26  O   UNL     1      -6.820   7.703  71.884  1.00  0.00    -0.059 OA 
HETATM   27  C   UNL     1      -9.676   8.621  72.451  1.00  0.00    -0.313 C  
HETATM   28  H   UNL     1      -6.528   7.489  72.762  1.00  0.00     0.000 HD 
HETATM   29  C   UNL     1     -10.060   8.970  71.039  1.00  0.00    -0.352 C  
HETATM   30  C   UNL     1     -11.270   9.432  70.697  1.00  0.00    -0.345 C  
ENDBRANCH  16  21
TORSDOF 1
ENDMDL
MODEL       58
REMARK 921   NORMALIZED FREE ENERGY PREDICTED BY IDOCK:   -5.00 KCAL/MOL
REMARK 922        TOTAL FREE ENERGY PREDICTED BY IDOCK:   -5.76 KCAL/MOL
REMARK 923 INTER-LIGAND FREE ENERGY PREDICTED BY IDOCK:   -4.92 KCAL/MOL
REMARK 924 INTRA-LIGAND FREE ENERGY PREDICTED BY IDOCK:   -0.83 KCAL/MOL
REMARK 927      BINDING AFFINITY PREDICTED BY RF-SCORE:    0.00 PKD
ROOT
HETATM    1  C   UNL     1      -6.318   5.212  68.306  1.00  0.00    -0.036 C  
HETATM    2  C   UNL     1      -6.146   5.117  66.783  1.00  0.00    -0.030 C  
HETATM    3  C   UNL     1      -5.990   6.511  66.128  1.00  0.00    -0.029 C  
HETATM    4  C   UNL     1      -7.246   4.254  66.175  1.00  0.00    -0.075 C  
HETATM    5  C   UNL     1      -7.199   7.426  66.202  1.00  0.00    -0.077 C  
HETATM    6  C   UNL     1      -5.621   6.379  64.645  1.00  0.00    -0.025 C  
HETATM    7  C   UNL     1      -7.219   8.595  66.867  1.00  0.00    -0.075 C  
HETATM    8  C   UNL     1      -8.211   9.733  66.656  1.00  0.00    -0.120 C  
HETATM    9  C   UNL     1      -9.677   9.682  67.278  1.00  0.00    -0.213 C  
HETATM   10  C   UNL     1      -8.190  10.134  65.174  1.00  0.00    -0.151 C  
HETATM   11  C   UNL     1     -10.504   8.514  66.738  1.00  0.00    -0.308 C  
HETATM   12  C   UNL     1     -10.430   7.415  67.790  1.00  0.00    -0.298 C  
HETATM   13  C   UNL     1      -9.588   7.959  68.972  1.00  0.00    -0.155 C  
HETATM   14  C   UNL     1      -9.998   7.390  70.326  1.00  0.00    -0.188 C  
HETATM   15  C   UNL     1      -9.833   8.407  71.417  1.00  0.00    -0.259 C  
HETATM   16  C   UNL     1     -10.473   6.141  70.519  1.00  0.00    -0.291 C  
HETATM   17  C   UNL     1      -8.626  10.435  69.442  1.00  0.00    -0.143 C  
HETATM   18  C   UNL     1     -10.818   9.557  71.161  1.00  0.00    -0.425 C  
HETATM   19  C   UNL     1      -9.722   9.520  68.842  1.00  0.00    -0.166 C  
HETATM   20  C   UNL     1     -11.025   9.868  69.636  1.00  0.00    -0.285 C  
ENDROOT
BRANCH  16  21
HETATM   21  C   UNL     1     -10.853   5.617  71.822  1.00  0.00    -0.301 C  
HETATM   22  C   UNL     1     -10.115   4.924  72.697  1.00  0.00    -0.222 C  
HETATM   23  C   UNL     1     -10.745   4.520  74.024  1.00  0.00    -0.340 C  
HETATM   24  C   UNL     1     -10.676   3.008  74.240  1.00  0.00    -0.143 C  
HETATM   25  C   UNL     1      -9.242   2.499  74.074  1.00  0.00    -0.088 C  
HETATM   26  O   UNL     1     -11.548   2.333  73.332  1.00  0.00    -0.186 OA 
HETATM   27  C   UNL     1      -8.617   2.949  72.744  1.00  0.00    -0.078 C  
HETATM   28  H   UNL     1     -11.506   1.393  73.467  1.00  0.00     0.000 HD 
HETATM   29  C   UNL     1      -8.764   4.428  72.513  1.00  0.00    -0.116 C  
HETATM   30  C   UNL     1      -7.735   5.234  72.220  1.00  0.00    -0.101 C  
ENDBRANCH  16  21
TORSDOF 1
ENDMDL
MODEL       59
REMARK 921   NORMALIZED FREE ENERGY PREDICTED BY IDOCK:   -4.95 KCAL/MOL
REMARK 922        TOTAL FREE ENERGY PREDICTED BY IDOCK:   -5.71 KCAL/MOL
REMARK 923 INTER-LIGAND FREE ENERGY PREDICTED BY IDOCK:   -4.95 KCAL/MOL
REMARK 924 INTRA-LIGAND FREE ENERGY PREDICTED BY IDOCK:   -0.76 KCAL/MOL
REMARK 927      BINDING AFFINITY PREDICTED BY RF-SCORE:    0.00 PKD
ROOT
HETATM    1  C   UNL     1     -11.848  11.227  67.881  1.00  0.00    -0.209 C  
HETATM    2  C   UNL     1     -11.360  12.676  67.731  1.00  0.00    -0.349 C  
HETATM    3  C   UNL     1     -10.121  12.780  66.809  1.00  0.00    -0.239 C  
HETATM    4  C   UNL     1     -11.182  13.323  69.100  1.00  0.00    -0.305 C  
HETATM    5  C   UNL     1      -8.850  12.122  67.317  1.00  0.00    -0.186 C  
HETATM    6  C   UNL     1      -9.778  14.245  66.517  1.00  0.00    -0.304 C  
HETATM    7  C   UNL     1      -8.249  11.080  66.716  1.00  0.00    -0.149 C  
HETATM    8  C   UNL     1      -6.802  10.642  66.909  1.00  0.00    -0.099 C  
HETATM    9  C   UNL     1      -6.353   9.798  68.184  1.00  0.00    -0.055 C  
HETATM   10  C   UNL     1      -5.884  11.837  66.613  1.00  0.00    -0.049 C  
HETATM   11  C   UNL     1      -6.572  10.554  69.495  1.00  0.00    -0.080 C  
HETATM   12  C   UNL     1      -7.878  10.028  70.079  1.00  0.00    -0.172 C  
HETATM   13  C   UNL     1      -8.404   8.928  69.122  1.00  0.00    -0.124 C  
HETATM   14  C   UNL     1      -9.194   7.831  69.829  1.00  0.00    -0.150 C  
HETATM   15  C   UNL     1      -8.982   6.498  69.174  1.00  0.00    -0.130 C  
HETATM   16  C   UNL     1      -9.966   8.027  70.920  1.00  0.00    -0.207 C  
HETATM   17  C   UNL     1      -7.247   7.774  66.975  1.00  0.00    -0.089 C  
HETATM   18  C   UNL     1      -7.511   6.099  69.353  1.00  0.00    -0.093 C  
HETATM   19  C   UNL     1      -7.115   8.435  68.370  1.00  0.00    -0.080 C  
HETATM   20  C   UNL     1      -6.525   7.319  69.296  1.00  0.00    -0.036 C  
ENDROOT
BRANCH  16  21
HETATM   21  C   UNL     1     -10.715   6.966  71.575  1.00  0.00    -0.248 C  
HETATM   22  C   UNL     1     -10.426   6.306  72.702  1.00  0.00    -0.234 C  
HETATM   23  C   UNL     1     -11.406   5.251  73.203  1.00  0.00    -0.358 C  
HETATM   24  C   UNL     1     -10.728   3.892  73.375  1.00  0.00    -0.208 C  
HETATM   25  C   UNL     1      -9.477   4.015  74.248  1.00  0.00    -0.126 C  
HETATM   26  O   UNL     1     -10.390   3.337  72.103  1.00  0.00    -0.119 OA 
HETATM   27  C   UNL     1      -8.522   5.108  73.745  1.00  0.00    -0.111 C  
HETATM   28  H   UNL     1      -9.969   2.492  72.210  1.00  0.00     0.000 HD 
HETATM   29  C   UNL     1      -9.223   6.417  73.505  1.00  0.00    -0.143 C  
HETATM   30  C   UNL     1      -8.813   7.578  74.032  1.00  0.00    -0.292 C  
ENDBRANCH  16  21
TORSDOF 1
ENDMDL
MODEL       60
REMARK 921   NORMALIZED FREE ENERGY PREDICTED BY IDOCK:   -4.92 KCAL/MOL
REMARK 922        TOTAL FREE ENERGY PREDICTED BY IDOCK:   -5.68 KCAL/MOL
REMARK 923 INTER-LIGAND FREE ENERGY PREDICTED BY IDOCK:   -4.91 KCAL/MOL
REMARK 924 INTRA-LIGAND FREE ENERGY PREDICTED BY IDOCK:   -0.77 KCAL/MOL
REMARK 927      BINDING AFFINITY PREDICTED BY RF-SCORE:    0.00 PKD
ROOT
HETATM    1  C   UNL     1      -6.507   9.342  69.918  1.00  0.00    -0.046 C  
HETATM    2  C   UNL     1      -5.907   9.728  68.557  1.00  0.00    -0.039 C  
HETATM    3  C   UNL     1      -6.387  11.123  68.085  1.00  0.00    -0.053 C  
HETATM    4  C   UNL     1      -6.123   8.611  67.543  1.00  0.00    -0.052 C  
HETATM    5  C   UNL     1      -7.866  11.252  67.770  1.00  0.00    -0.115 C  
HETATM    6  C   UNL     1      -5.624  11.568  66.831  1.00  0.00    -0.129 C  
HETATM    7  C   UNL     1      -8.714  12.044  68.449  1.00  0.00    -0.147 C  
HETATM    8  C   UNL     1     -10.072  12.538  67.960  1.00  0.00    -0.220 C  
HETATM    9  C   UNL     1     -11.361  11.602  68.005  1.00  0.00    -0.366 C  
HETATM   10  C   UNL     1      -9.879  13.248  66.612  1.00  0.00    -0.276 C  
HETATM   11  C   UNL     1     -11.210  10.353  67.135  1.00  0.00    -0.086 C  
HETATM   12  C   UNL     1     -10.822   9.220  68.076  1.00  0.00    -0.166 C  
HETATM   13  C   UNL     1     -10.785   9.802  69.512  1.00  0.00    -0.255 C  
HETATM   14  C   UNL     1     -11.155   8.789  70.591  1.00  0.00    -0.285 C  
HETATM   15  C   UNL     1     -11.889   9.443  71.725  1.00  0.00    -0.452 C  
HETATM   16  C   UNL     1     -10.881   7.468  70.526  1.00  0.00    -0.252 C  
HETATM   17  C   UNL     1     -11.542  12.219  70.442  1.00  0.00     0.048 C  
HETATM   18  C   UNL     1     -13.234   9.961  71.196  1.00  0.00    -0.424 C  
HETATM   19  C   UNL     1     -11.728  11.058  69.434  1.00  0.00    -0.394 C  
HETATM   20  C   UNL     1     -13.159  10.492  69.721  1.00  0.00     0.529 C  
ENDROOT
BRANCH  16  21
HETATM   21  C   UNL     1     -11.239   6.520  71.570  1.00  0.00    -0.322 C  
HETATM   22  C   UNL     1     -10.562   6.196  72.678  1.00  0.00    -0.246 C  
HETATM   23  C   UNL     1     -11.180   5.189  73.641  1.00  0.00    -0.198 C  
HETATM   24  C   UNL     1     -10.247   4.003  73.887  1.00  0.00    -0.159 C  
HETATM   25  C   UNL     1      -8.860   4.483  74.323  1.00  0.00    -0.108 C  
HETATM   26  O   UNL     1     -10.144   3.197  72.713  1.00  0.00    -0.136 OA 
HETATM   27  C   UNL     1      -8.274   5.523  73.355  1.00  0.00    -0.114 C  
HETATM   28  H   UNL     1      -9.564   2.460  72.865  1.00  0.00     0.000 HD 
HETATM   29  C   UNL     1      -9.237   6.641  73.063  1.00  0.00    -0.144 C  
HETATM   30  C   UNL     1      -8.925   7.937  73.202  1.00  0.00    -0.304 C  
ENDBRANCH  16  21
TORSDOF 1
ENDMDL
MODEL       61
REMARK 921   NORMALIZED FREE ENERGY PREDICTED BY IDOCK:   -4.88 KCAL/MOL
REMARK 922        TOTAL FREE ENERGY PREDICTED BY IDOCK:   -5.64 KCAL/MOL
REMARK 923 INTER-LIGAND FREE ENERGY PREDICTED BY IDOCK:   -4.83 KCAL/MOL
REMARK 924 INTRA-LIGAND FREE ENERGY PREDICTED BY IDOCK:   -0.80 KCAL/MOL
REMARK 927      BINDING AFFINITY PREDICTED BY RF-SCORE:    0.00 PKD
ROOT
HETATM    1  C   UNL     1     -10.328  12.367  64.378  1.00  0.00    -0.370 C  
HETATM    2  C   UNL     1     -11.589  13.233  64.233  1.00  0.00    -0.444 C  
HETATM    3  C   UNL     1     -11.272  14.744  64.347  1.00  0.00    -0.184 C  
HETATM    4  C   UNL     1     -12.683  12.746  65.176  1.00  0.00    -0.402 C  
HETATM    5  C   UNL     1     -10.773  15.225  65.698  1.00  0.00    -0.376 C  
HETATM    6  C   UNL     1     -12.504  15.589  64.000  1.00  0.00     0.275 C  
HETATM    7  C   UNL     1      -9.549  15.740  65.910  1.00  0.00    -0.382 C  
HETATM    8  C   UNL     1      -9.128  16.601  67.095  1.00  0.00    -0.227 C  
HETATM    9  C   UNL     1      -8.788  15.954  68.511  1.00  0.00    -0.195 C  
HETATM   10  C   UNL     1     -10.074  17.808  67.186  1.00  0.00    -0.338 C  
HETATM   11  C   UNL     1      -9.985  15.231  69.129  1.00  0.00    -0.238 C  
HETATM   12  C   UNL     1      -9.790  13.750  68.831  1.00  0.00    -0.008 C  
HETATM   13  C   UNL     1      -8.448  13.602  68.069  1.00  0.00    -0.174 C  
HETATM   14  C   UNL     1      -7.738  12.279  68.334  1.00  0.00    -0.141 C  
HETATM   15  C   UNL     1      -6.247  12.448  68.326  1.00  0.00    -0.056 C  
HETATM   16  C   UNL     1      -8.367  11.107  68.572  1.00  0.00    -0.154 C  
HETATM   17  C   UNL     1      -6.519  15.416  67.555  1.00  0.00    -0.174 C  
HETATM   18  C   UNL     1      -5.855  13.347  69.507  1.00  0.00    -0.102 C  
HETATM   19  C   UNL     1      -7.637  14.883  68.485  1.00  0.00    -0.121 C  
HETATM   20  C   UNL     1      -6.908  14.473  69.807  1.00  0.00    -0.126 C  
ENDROOT
BRANCH  16  21
HETATM   21  C   UNL     1      -7.668   9.855  68.817  1.00  0.00    -0.086 C  
HETATM   22  C   UNL     1      -7.467   8.828  67.983  1.00  0.00    -0.093 C  
HETATM   23  C   UNL     1      -6.661   7.633  68.479  1.00  0.00    -0.053 C  
HETATM   24  C   UNL     1      -7.450   6.331  68.346  1.00  0.00    -0.088 C  
HETATM   25  C   UNL     1      -7.975   6.155  66.919  1.00  0.00    -0.105 C  
HETATM   26  O   UNL     1      -8.534   6.307  69.277  1.00  0.00    -0.122 OA 
HETATM   27  C   UNL     1      -8.753   7.386  66.430  1.00  0.00    -0.154 C  
HETATM   28  H   UNL     1      -9.025   5.497  69.195  1.00  0.00     0.000 HD 
HETATM   29  C   UNL     1      -7.992   8.666  66.641  1.00  0.00    -0.096 C  
HETATM   30  C   UNL     1      -7.764   9.557  65.666  1.00  0.00    -0.101 C  
ENDBRANCH  16  21
TORSDOF 1
ENDMDL
MODEL       62
REMARK 921   NORMALIZED FREE ENERGY PREDICTED BY IDOCK:   -4.84 KCAL/MOL
REMARK 922        TOTAL FREE ENERGY PREDICTED BY IDOCK:   -5.59 KCAL/MOL
REMARK 923 INTER-LIGAND FREE ENERGY PREDICTED BY IDOCK:   -4.88 KCAL/MOL
REMARK 924 INTRA-LIGAND FREE ENERGY PREDICTED BY IDOCK:   -0.71 KCAL/MOL
REMARK 927      BINDING AFFINITY PREDICTED BY RF-SCORE:    0.00 PKD
ROOT
HETATM    1  C   UNL     1      -9.086   9.593  65.750  1.00  0.00    -0.230 C  
HETATM    2  C   UNL     1      -7.649   9.460  65.223  1.00  0.00    -0.107 C  
HETATM    3  C   UNL     1      -7.183   7.984  65.170  1.00  0.00    -0.065 C  
HETATM    4  C   UNL     1      -6.713  10.388  65.988  1.00  0.00    -0.124 C  
HETATM    5  C   UNL     1      -7.043   7.277  66.506  1.00  0.00    -0.078 C  
HETATM    6  C   UNL     1      -5.831   7.863  64.458  1.00  0.00    -0.045 C  
HETATM    7  C   UNL     1      -7.788   6.221  66.881  1.00  0.00    -0.104 C  
HETATM    8  C   UNL     1      -7.446   5.225  67.984  1.00  0.00    -0.076 C  
HETATM    9  C   UNL     1      -7.683   5.575  69.520  1.00  0.00    -0.082 C  
HETATM   10  C   UNL     1      -6.058   4.634  67.698  1.00  0.00    -0.028 C  
HETATM   11  C   UNL     1      -6.850   6.771  69.984  1.00  0.00    -0.057 C  
HETATM   12  C   UNL     1      -7.783   7.976  69.959  1.00  0.00    -0.088 C  
HETATM   13  C   UNL     1      -9.180   7.473  69.516  1.00  0.00    -0.146 C  
HETATM   14  C   UNL     1     -10.334   8.269  70.115  1.00  0.00    -0.212 C  
HETATM   15  C   UNL     1     -11.521   7.392  70.383  1.00  0.00    -0.250 C  
HETATM   16  C   UNL     1     -10.289   9.590  70.395  1.00  0.00    -0.334 C  
HETATM   17  C   UNL     1     -10.098   4.965  69.136  1.00  0.00    -0.229 C  
HETATM   18  C   UNL     1     -11.138   6.377  71.470  1.00  0.00    -0.322 C  
HETATM   19  C   UNL     1      -9.166   5.946  69.889  1.00  0.00    -0.163 C  
HETATM   20  C   UNL     1      -9.645   5.903  71.378  1.00  0.00    -0.189 C  
ENDROOT
BRANCH  16  21
HETATM   21  C   UNL     1     -11.405  10.331  70.962  1.00  0.00    -0.306 C  
HETATM   22  C   UNL     1     -12.105  11.337  70.425  1.00  0.00    -0.474 C  
HETATM   23  C   UNL     1     -13.265  11.924  71.220  1.00  0.00    -0.068 C  
HETATM   24  C   UNL     1     -13.099  13.429  71.425  1.00  0.00    -0.291 C  
HETATM   25  C   UNL     1     -12.864  14.138  70.089  1.00  0.00    -0.107 C  
HETATM   26  O   UNL     1     -12.020  13.696  72.322  1.00  0.00     0.316 OA 
HETATM   27  C   UNL     1     -11.714  13.506  69.290  1.00  0.00    -0.382 C  
HETATM   28  H   UNL     1     -11.917  14.632  72.449  1.00  0.00     0.000 HD 
HETATM   29  C   UNL     1     -11.853  12.014  69.167  1.00  0.00    -0.369 C  
HETATM   30  C   UNL     1     -11.809  11.364  67.996  1.00  0.00    -0.273 C  
ENDBRANCH  16  21
TORSDOF 1
ENDMDL
MODEL       63
REMARK 921   NORMALIZED FREE ENERGY PREDICTED BY IDOCK:   -4.82 KCAL/MOL
REMARK 922        TOTAL FREE ENERGY PREDICTED BY IDOCK:   -5.57 KCAL/MOL
REMARK 923 INTER-LIGAND FREE ENERGY PREDICTED BY IDOCK:   -5.06 KCAL/MOL
REMARK 924 INTRA-LIGAND FREE ENERGY PREDICTED BY IDOCK:   -0.51 KCAL/MOL
REMARK 927      BINDING AFFINITY PREDICTED BY RF-SCORE:    0.00 PKD
ROOT
HETATM    1  C   UNL     1     -11.658  10.479  68.081  1.00  0.00    -0.145 C  
HETATM    2  C   UNL     1     -11.782  11.963  68.454  1.00  0.00    -0.387 C  
HETATM    3  C   UNL     1     -10.730  12.836  67.727  1.00  0.00    -0.237 C  
HETATM    4  C   UNL     1     -11.802  12.133  69.969  1.00  0.00    -0.383 C  
HETATM    5  C   UNL     1      -9.280  12.587  68.101  1.00  0.00    -0.209 C  
HETATM    6  C   UNL     1     -11.001  14.327  67.960  1.00  0.00    -0.261 C  
HETATM    7  C   UNL     1      -8.351  12.121  67.248  1.00  0.00    -0.179 C  
HETATM    8  C   UNL     1      -6.839  12.234  67.412  1.00  0.00    -0.145 C  
HETATM    9  C   UNL     1      -6.034  11.253  68.377  1.00  0.00    -0.045 C  
HETATM   10  C   UNL     1      -6.476  13.714  67.604  1.00  0.00    -0.164 C  
HETATM   11  C   UNL     1      -6.464  11.384  69.838  1.00  0.00    -0.118 C  
HETATM   12  C   UNL     1      -7.430  10.235  70.103  1.00  0.00    -0.084 C  
HETATM   13  C   UNL     1      -7.534   9.405  68.799  1.00  0.00    -0.075 C  
HETATM   14  C   UNL     1      -7.796   7.922  69.038  1.00  0.00    -0.110 C  
HETATM   15  C   UNL     1      -7.115   7.073  68.005  1.00  0.00    -0.086 C  
HETATM   16  C   UNL     1      -8.527   7.430  70.062  1.00  0.00    -0.138 C  
HETATM   17  C   UNL     1      -6.128   9.571  66.502  1.00  0.00    -0.060 C  
HETATM   18  C   UNL     1      -5.597   7.234  68.171  1.00  0.00    -0.022 C  
HETATM   19  C   UNL     1      -6.193   9.726  68.041  1.00  0.00    -0.055 C  
HETATM   20  C   UNL     1      -5.169   8.682  68.601  1.00  0.00    -0.033 C  
ENDROOT
BRANCH  16  21
HETATM   21  C   UNL     1      -8.770   6.011  70.268  1.00  0.00    -0.143 C  
HETATM   22  C   UNL     1      -9.808   5.414  70.865  1.00  0.00    -0.249 C  
HETATM   23  C   UNL     1      -9.842   3.891  70.918  1.00  0.00    -0.213 C  
HETATM   24  C   UNL     1      -9.964   3.383  72.355  1.00  0.00    -0.165 C  
HETATM   25  C   UNL     1     -11.152   4.038  73.064  1.00  0.00    -0.180 C  
HETATM   26  O   UNL     1      -8.758   3.633  73.078  1.00  0.00    -0.092 OA 
HETATM   27  C   UNL     1     -11.114   5.571  72.966  1.00  0.00    -0.350 C  
HETATM   28  H   UNL     1      -8.834   3.317  73.971  1.00  0.00     0.000 HD 
HETATM   29  C   UNL     1     -10.914   6.051  71.555  1.00  0.00    -0.335 C  
HETATM   30  C   UNL     1     -11.716   6.943  70.959  1.00  0.00    -0.392 C  
ENDBRANCH  16  21
TORSDOF 1
ENDMDL
MODEL       64
REMARK 921   NORMALIZED FREE ENERGY PREDICTED BY IDOCK:   -4.79 KCAL/MOL
REMARK 922        TOTAL FREE ENERGY PREDICTED BY IDOCK:   -5.54 KCAL/MOL
REMARK 923 INTER-LIGAND FREE ENERGY PREDICTED BY IDOCK:   -4.71 KCAL/MOL
REMARK 924 INTRA-LIGAND FREE ENERGY PREDICTED BY IDOCK:   -0.83 KCAL/MOL
REMARK 927      BINDING AFFINITY PREDICTED BY RF-SCORE:    0.00 PKD
ROOT
HETATM    1  C   UNL     1      -9.610  11.350  68.699  1.00  0.00    -0.179 C  
HETATM    2  C   UNL     1     -11.059  11.662  69.103  1.00  0.00    -0.302 C  
HETATM    3  C   UNL     1     -11.412  11.078  70.493  1.00  0.00    -0.241 C  
HETATM    4  C   UNL     1     -12.021  11.264  67.990  1.00  0.00    -0.132 C  
HETATM    5  C   UNL     1     -11.426   9.564  70.601  1.00  0.00    -0.362 C  
HETATM    6  C   UNL     1     -12.788  11.570  70.958  1.00  0.00    -0.358 C  
HETATM    7  C   UNL     1     -10.584   8.857  71.375  1.00  0.00    -0.374 C  
HETATM    8  C   UNL     1     -10.788   7.423  71.851  1.00  0.00    -0.262 C  
HETATM    9  C   UNL     1     -10.497   6.181  70.895  1.00  0.00    -0.282 C  
HETATM   10  C   UNL     1     -12.141   7.333  72.573  1.00  0.00    -0.078 C  
HETATM   11  C   UNL     1     -11.392   6.174  69.655  1.00  0.00    -0.442 C  
HETATM   12  C   UNL     1     -10.558   6.756  68.521  1.00  0.00    -0.265 C  
HETATM   13  C   UNL     1      -9.152   7.070  69.094  1.00  0.00    -0.136 C  
HETATM   14  C   UNL     1      -8.031   6.937  68.068  1.00  0.00    -0.115 C  
HETATM   15  C   UNL     1      -6.768   6.434  68.702  1.00  0.00    -0.061 C  
HETATM   16  C   UNL     1      -8.163   7.211  66.752  1.00  0.00    -0.114 C  
HETATM   17  C   UNL     1      -8.067   6.480  71.492  1.00  0.00    -0.112 C  
HETATM   18  C   UNL     1      -7.013   5.004  69.203  1.00  0.00    -0.055 C  
HETATM   19  C   UNL     1      -9.029   6.113  70.336  1.00  0.00    -0.151 C  
HETATM   20  C   UNL     1      -8.469   4.776  69.745  1.00  0.00    -0.086 C  
ENDROOT
BRANCH  16  21
HETATM   21  C   UNL     1      -7.078   7.081  65.791  1.00  0.00    -0.069 C  
HETATM   22  C   UNL     1      -6.207   8.009  65.378  1.00  0.00    -0.045 C  
HETATM   23  C   UNL     1      -5.128   7.604  64.380  1.00  0.00    -0.029 C  
HETATM   24  C   UNL     1      -5.172   8.473  63.123  1.00  0.00    -0.063 C  
HETATM   25  C   UNL     1      -5.129   9.959  63.488  1.00  0.00    -0.077 C  
HETATM   26  O   UNL     1      -6.343   8.187  62.357  1.00  0.00    -0.085 OA 
HETATM   27  C   UNL     1      -6.202  10.336  64.521  1.00  0.00    -0.115 C  
HETATM   28  H   UNL     1      -6.371   8.727  61.576  1.00  0.00     0.000 HD 
HETATM   29  C   UNL     1      -6.195   9.420  65.714  1.00  0.00    -0.060 C  
HETATM   30  C   UNL     1      -6.125   9.858  66.978  1.00  0.00    -0.059 C  
ENDBRANCH  16  21
TORSDOF 1
ENDMDL
MODEL       65
REMARK 921   NORMALIZED FREE ENERGY PREDICTED BY IDOCK:   -4.79 KCAL/MOL
REMARK 922        TOTAL FREE ENERGY PREDICTED BY IDOCK:   -5.54 KCAL/MOL
REMARK 923 INTER-LIGAND FREE ENERGY PREDICTED BY IDOCK:   -4.47 KCAL/MOL
REMARK 924 INTRA-LIGAND FREE ENERGY PREDICTED BY IDOCK:   -1.07 KCAL/MOL
REMARK 927      BINDING AFFINITY PREDICTED BY RF-SCORE:    0.00 PKD
ROOT
HETATM    1  C   UNL     1      -7.624   6.399  67.364  1.00  0.00    -0.100 C  
HETATM    2  C   UNL     1      -6.633   5.671  68.285  1.00  0.00    -0.049 C  
HETATM    3  C   UNL     1      -7.334   5.049  69.518  1.00  0.00    -0.057 C  
HETATM    4  C   UNL     1      -5.453   6.575  68.621  1.00  0.00    -0.016 C  
HETATM    5  C   UNL     1      -7.945   6.028  70.505  1.00  0.00    -0.111 C  
HETATM    6  C   UNL     1      -6.364   4.164  70.309  1.00  0.00    -0.027 C  
HETATM    7  C   UNL     1      -9.262   6.112  70.765  1.00  0.00    -0.163 C  
HETATM    8  C   UNL     1      -9.898   6.747  71.997  1.00  0.00    -0.166 C  
HETATM    9  C   UNL     1     -10.061   8.327  72.125  1.00  0.00    -0.344 C  
HETATM   10  C   UNL     1      -9.300   6.091  73.250  1.00  0.00    -0.135 C  
HETATM   11  C   UNL     1      -8.719   9.058  72.120  1.00  0.00     0.229 C  
HETATM   12  C   UNL     1      -8.520   9.576  70.701  1.00  0.00    -0.166 C  
HETATM   13  C   UNL     1      -9.773   9.179  69.881  1.00  0.00    -0.206 C  
HETATM   14  C   UNL     1     -10.114  10.166  68.770  1.00  0.00    -0.198 C  
HETATM   15  C   UNL     1     -11.597  10.272  68.570  1.00  0.00    -0.077 C  
HETATM   16  C   UNL     1      -9.202  10.875  68.070  1.00  0.00    -0.156 C  
HETATM   17  C   UNL     1     -12.108   8.084  70.674  1.00  0.00     0.013 C  
HETATM   18  C   UNL     1     -12.215  10.880  69.837  1.00  0.00    -0.408 C  
HETATM   19  C   UNL     1     -10.893   8.997  70.970  1.00  0.00    -0.345 C  
HETATM   20  C   UNL     1     -11.493  10.430  71.157  1.00  0.00    -0.223 C  
ENDROOT
BRANCH  16  21
HETATM   21  C   UNL     1      -9.550  11.808  67.009  1.00  0.00    -0.196 C  
HETATM   22  C   UNL     1      -9.980  13.071  67.109  1.00  0.00    -0.235 C  
HETATM   23  C   UNL     1     -10.242  13.855  65.829  1.00  0.00    -0.331 C  
HETATM   24  C   UNL     1     -11.673  14.391  65.783  1.00  0.00    -0.362 C  
HETATM   25  C   UNL     1     -11.999  15.182  67.053  1.00  0.00     0.093 C  
HETATM   26  O   UNL     1     -12.603  13.320  65.615  1.00  0.00    -0.464 OA 
HETATM   27  C   UNL     1     -11.694  14.383  68.329  1.00  0.00    -0.376 C  
HETATM   28  H   UNL     1     -13.493  13.653  65.587  1.00  0.00     0.000 HD 
HETATM   29  C   UNL     1     -10.309  13.797  68.321  1.00  0.00    -0.247 C  
HETATM   30  C   UNL     1      -9.428  13.975  69.315  1.00  0.00     0.353 C  
ENDBRANCH  16  21
TORSDOF 1
ENDMDL
MODEL       66
REMARK 921   NORMALIZED FREE ENERGY PREDICTED BY IDOCK:   -4.65 KCAL/MOL
REMARK 922        TOTAL FREE ENERGY PREDICTED BY IDOCK:   -5.39 KCAL/MOL
REMARK 923 INTER-LIGAND FREE ENERGY PREDICTED BY IDOCK:   -4.55 KCAL/MOL
REMARK 924 INTRA-LIGAND FREE ENERGY PREDICTED BY IDOCK:   -0.84 KCAL/MOL
REMARK 927      BINDING AFFINITY PREDICTED BY RF-SCORE:    0.00 PKD
ROOT
HETATM    1  C   UNL     1     -12.398  12.595  70.598  1.00  0.00    -0.375 C  
HETATM    2  C   UNL     1     -12.264  14.125  70.583  1.00  0.00    -0.432 C  
HETATM    3  C   UNL     1     -12.331  14.700  69.147  1.00  0.00    -0.130 C  
HETATM    4  C   UNL     1     -11.039  14.561  71.379  1.00  0.00     0.585 C  
HETATM    5  C   UNL     1     -11.189  14.323  68.220  1.00  0.00    -0.298 C  
HETATM    6  C   UNL     1     -12.396  16.232  69.174  1.00  0.00     0.648 C  
HETATM    7  C   UNL     1     -11.337  13.588  67.103  1.00  0.00    -0.346 C  
HETATM    8  C   UNL     1     -10.359  13.518  65.936  1.00  0.00    -0.301 C  
HETATM    9  C   UNL     1      -9.043  12.622  66.009  1.00  0.00     0.099 C  
HETATM   10  C   UNL     1     -10.100  14.943  65.426  1.00  0.00    -0.400 C  
HETATM   11  C   UNL     1      -8.090  13.067  67.119  1.00  0.00    -0.114 C  
HETATM   12  C   UNL     1      -8.336  12.129  68.294  1.00  0.00    -0.172 C  
HETATM   13  C   UNL     1      -9.411  11.104  67.854  1.00  0.00    -0.161 C  
HETATM   14  C   UNL     1      -9.258   9.738  68.514  1.00  0.00    -0.134 C  
HETATM   15  C   UNL     1      -9.666   8.633  67.585  1.00  0.00    -0.201 C  
HETATM   16  C   UNL     1      -8.792   9.541  69.767  1.00  0.00    -0.211 C  
HETATM   17  C   UNL     1     -10.523  10.663  65.436  1.00  0.00    -0.254 C  
HETATM   18  C   UNL     1      -8.687   8.608  66.403  1.00  0.00    -0.150 C  
HETATM   19  C   UNL     1      -9.302  11.096  66.285  1.00  0.00    -0.216 C  
HETATM   20  C   UNL     1      -8.193  10.036  65.975  1.00  0.00    -0.126 C  
ENDROOT
BRANCH  16  21
HETATM   21  C   UNL     1      -8.660   8.229  70.379  1.00  0.00    -0.134 C  
HETATM   22  C   UNL     1      -9.532   7.571  71.152  1.00  0.00    -0.163 C  
HETATM   23  C   UNL     1      -9.164   6.175  71.642  1.00  0.00    -0.150 C  
HETATM   24  C   UNL     1      -9.220   6.084  73.168  1.00  0.00    -0.132 C  
HETATM   25  C   UNL     1     -10.573   6.570  73.693  1.00  0.00    -0.306 C  
HETATM   26  O   UNL     1      -8.161   6.843  73.753  1.00  0.00    -0.113 OA 
HETATM   27  C   UNL     1     -10.938   7.963  73.157  1.00  0.00    -0.301 C  
HETATM   28  H   UNL     1      -8.196   6.786  74.701  1.00  0.00     0.000 HD 
HETATM   29  C   UNL     1     -10.800   8.057  71.662  1.00  0.00    -0.288 C  
HETATM   30  C   UNL     1     -11.779   8.493  70.858  1.00  0.00    -0.274 C  
ENDBRANCH  16  21
TORSDOF 1
ENDMDL
MODEL       67
REMARK 921   NORMALIZED FREE ENERGY PREDICTED BY IDOCK:   -4.64 KCAL/MOL
REMARK 922        TOTAL FREE ENERGY PREDICTED BY IDOCK:   -5.38 KCAL/MOL
REMARK 923 INTER-LIGAND FREE ENERGY PREDICTED BY IDOCK:   -4.57 KCAL/MOL
REMARK 924 INTRA-LIGAND FREE ENERGY PREDICTED BY IDOCK:   -0.81 KCAL/MOL
REMARK 927      BINDING AFFINITY PREDICTED BY RF-SCORE:    0.00 PKD
ROOT
HETATM    1  C   UNL     1      -9.610   8.736  66.178  1.00  0.00    -0.323 C  
HETATM    2  C   UNL     1      -8.641   9.368  65.167  1.00  0.00    -0.188 C  
HETATM    3  C   UNL     1      -8.398   8.451  63.944  1.00  0.00    -0.063 C  
HETATM    4  C   UNL     1      -7.370   9.836  65.867  1.00  0.00    -0.103 C  
HETATM    5  C   UNL     1      -7.678   7.143  64.220  1.00  0.00    -0.117 C  
HETATM    6  C   UNL     1      -7.593   9.183  62.864  1.00  0.00    -0.104 C  
HETATM    7  C   UNL     1      -8.230   5.929  64.047  1.00  0.00    -0.066 C  
HETATM    8  C   UNL     1      -7.478   4.610  63.902  1.00  0.00    -0.059 C  
HETATM    9  C   UNL     1      -6.889   3.847  65.171  1.00  0.00    -0.053 C  
HETATM   10  C   UNL     1      -6.473   4.743  62.748  1.00  0.00    -0.026 C  
HETATM   11  C   UNL     1      -5.833   4.668  65.912  1.00  0.00    -0.022 C  
HETATM   12  C   UNL     1      -6.543   5.305  67.100  1.00  0.00    -0.053 C  
HETATM   13  C   UNL     1      -8.015   4.821  67.076  1.00  0.00    -0.103 C  
HETATM   14  C   UNL     1      -8.643   4.708  68.461  1.00  0.00    -0.106 C  
HETATM   15  C   UNL     1      -9.615   3.567  68.528  1.00  0.00    -0.151 C  
HETATM   16  C   UNL     1      -8.347   5.515  69.503  1.00  0.00    -0.102 C  
HETATM   17  C   UNL     1      -9.221   2.962  65.537  1.00  0.00    -0.123 C  
HETATM   18  C   UNL     1      -8.836   2.257  68.344  1.00  0.00    -0.152 C  
HETATM   19  C   UNL     1      -7.954   3.474  66.266  1.00  0.00    -0.089 C  
HETATM   20  C   UNL     1      -7.634   2.384  67.342  1.00  0.00    -0.061 C  
ENDROOT
BRANCH  16  21
HETATM   21  C   UNL     1      -8.964   5.393  70.815  1.00  0.00    -0.156 C  
HETATM   22  C   UNL     1     -10.086   5.961  71.271  1.00  0.00    -0.245 C  
HETATM   23  C   UNL     1     -10.542   5.638  72.690  1.00  0.00    -0.266 C  
HETATM   24  C   UNL     1     -10.708   6.906  73.527  1.00  0.00    -0.312 C  
HETATM   25  C   UNL     1     -11.616   7.913  72.816  1.00  0.00    -0.387 C  
HETATM   26  O   UNL     1      -9.435   7.495  73.800  1.00  0.00    -0.261 OA 
HETATM   27  C   UNL     1     -11.156   8.195  71.378  1.00  0.00    -0.291 C  
HETATM   28  H   UNL     1      -9.538   8.283  74.321  1.00  0.00     0.000 HD 
HETATM   29  C   UNL     1     -10.922   6.933  70.593  1.00  0.00    -0.304 C  
HETATM   30  C   UNL     1     -11.479   6.694  69.398  1.00  0.00    -0.288 C  
ENDBRANCH  16  21
TORSDOF 1
ENDMDL
MODEL       68
REMARK 921   NORMALIZED FREE ENERGY PREDICTED BY IDOCK:   -4.56 KCAL/MOL
REMARK 922        TOTAL FREE ENERGY PREDICTED BY IDOCK:   -5.29 KCAL/MOL
REMARK 923 INTER-LIGAND FREE ENERGY PREDICTED BY IDOCK:   -4.59 KCAL/MOL
REMARK 924 INTRA-LIGAND FREE ENERGY PREDICTED BY IDOCK:   -0.70 KCAL/MOL
REMARK 927      BINDING AFFINITY PREDICTED BY RF-SCORE:    0.00 PKD
ROOT
HETATM    1  C   UNL     1     -12.006   7.503  70.139  1.00  0.00     0.205 C  
HETATM    2  C   UNL     1     -12.236   8.461  71.318  1.00  0.00    -0.305 C  
HETATM    3  C   UNL     1     -12.707   9.859  70.847  1.00  0.00    -0.376 C  
HETATM    4  C   UNL     1     -11.019   8.482  72.235  1.00  0.00    -0.426 C  
HETATM    5  C   UNL     1     -11.706  10.667  70.040  1.00  0.00    -0.405 C  
HETATM    6  C   UNL     1     -13.120  10.728  72.041  1.00  0.00    -0.476 C  
HETATM    7  C   UNL     1     -11.888  11.025  68.756  1.00  0.00    -0.352 C  
HETATM    8  C   UNL     1     -11.160  12.146  68.023  1.00  0.00    -0.292 C  
HETATM    9  C   UNL     1      -9.682  11.947  67.460  1.00  0.00    -0.185 C  
HETATM   10  C   UNL     1     -11.341  13.449  68.815  1.00  0.00    -0.332 C  
HETATM   11  C   UNL     1      -8.667  11.658  68.566  1.00  0.00    -0.130 C  
HETATM   12  C   UNL     1      -8.459  10.149  68.573  1.00  0.00    -0.121 C  
HETATM   13  C   UNL     1      -9.330   9.555  67.436  1.00  0.00    -0.153 C  
HETATM   14  C   UNL     1      -8.741   8.295  66.810  1.00  0.00    -0.143 C  
HETATM   15  C   UNL     1      -9.050   8.218  65.344  1.00  0.00     0.004 C  
HETATM   16  C   UNL     1      -8.013   7.377  67.482  1.00  0.00    -0.113 C  
HETATM   17  C   UNL     1     -10.747  10.782  65.495  1.00  0.00    -0.145 C  
HETATM   18  C   UNL     1      -8.334   9.378  64.637  1.00  0.00    -0.161 C  
HETATM   19  C   UNL     1      -9.522  10.759  66.442  1.00  0.00    -0.200 C  
HETATM   20  C   UNL     1      -8.276  10.689  65.498  1.00  0.00    -0.141 C  
ENDROOT
BRANCH  16  21
HETATM   21  C   UNL     1      -7.465   6.178  66.866  1.00  0.00    -0.087 C  
HETATM   22  C   UNL     1      -6.493   6.072  65.953  1.00  0.00    -0.043 C  
HETATM   23  C   UNL     1      -6.074   4.681  65.492  1.00  0.00    -0.026 C  
HETATM   24  C   UNL     1      -6.190   4.535  63.974  1.00  0.00    -0.022 C  
HETATM   25  C   UNL     1      -5.437   5.660  63.260  1.00  0.00    -0.014 C  
HETATM   26  O   UNL     1      -7.562   4.528  63.576  1.00  0.00    -0.057 OA 
HETATM   27  C   UNL     1      -5.851   7.050  63.767  1.00  0.00    -0.036 C  
HETATM   28  H   UNL     1      -7.634   4.437  62.633  1.00  0.00     0.000 HD 
HETATM   29  C   UNL     1      -5.806   7.150  65.267  1.00  0.00    -0.037 C  
HETATM   30  C   UNL     1      -5.144   8.113  65.921  1.00  0.00    -0.024 C  
ENDBRANCH  16  21
TORSDOF 1
ENDMDL
MODEL       69
REMARK 921   NORMALIZED FREE ENERGY PREDICTED BY IDOCK:   -4.55 KCAL/MOL
REMARK 922        TOTAL FREE ENERGY PREDICTED BY IDOCK:   -5.28 KCAL/MOL
REMARK 923 INTER-LIGAND FREE ENERGY PREDICTED BY IDOCK:   -4.21 KCAL/MOL
REMARK 924 INTRA-LIGAND FREE ENERGY PREDICTED BY IDOCK:   -1.07 KCAL/MOL
REMARK 927      BINDING AFFINITY PREDICTED BY RF-SCORE:    0.00 PKD
ROOT
HETATM    1  C   UNL     1      -9.127   7.301  70.998  1.00  0.00    -0.153 C  
HETATM    2  C   UNL     1      -9.576   5.833  71.041  1.00  0.00    -0.203 C  
HETATM    3  C   UNL     1      -8.684   4.926  70.158  1.00  0.00    -0.118 C  
HETATM    4  C   UNL     1     -11.068   5.723  70.750  1.00  0.00    -0.272 C  
HETATM    5  C   UNL     1      -8.744   5.179  68.662  1.00  0.00    -0.098 C  
HETATM    6  C   UNL     1      -9.025   3.447  70.374  1.00  0.00    -0.167 C  
HETATM    7  C   UNL     1      -7.701   5.606  67.928  1.00  0.00    -0.093 C  
HETATM    8  C   UNL     1      -7.557   5.489  66.415  1.00  0.00    -0.091 C  
HETATM    9  C   UNL     1      -8.297   6.500  65.431  1.00  0.00    -0.140 C  
HETATM   10  C   UNL     1      -7.728   4.015  66.018  1.00  0.00    -0.090 C  
HETATM   11  C   UNL     1      -9.819   6.430  65.553  1.00  0.00     0.803 C  
HETATM   12  C   UNL     1     -10.231   7.594  66.445  1.00  0.00    -0.036 C  
HETATM   13  C   UNL     1      -8.943   8.374  66.815  1.00  0.00    -0.172 C  
HETATM   14  C   UNL     1      -9.173   9.866  67.025  1.00  0.00    -0.164 C  
HETATM   15  C   UNL     1      -7.990  10.670  66.570  1.00  0.00    -0.138 C  
HETATM   16  C   UNL     1     -10.304  10.403  67.532  1.00  0.00    -0.268 C  
HETATM   17  C   UNL     1      -6.416   8.109  65.908  1.00  0.00    -0.045 C  
HETATM   18  C   UNL     1      -7.848  10.506  65.050  1.00  0.00    -0.055 C  
HETATM   19  C   UNL     1      -7.941   8.015  65.657  1.00  0.00    -0.114 C  
HETATM   20  C   UNL     1      -8.238   9.072  64.542  1.00  0.00    -0.159 C  
ENDROOT
BRANCH  16  21
HETATM   21  C   UNL     1     -10.500  11.831  67.729  1.00  0.00    -0.219 C  
HETATM   22  C   UNL     1     -10.808  12.769  66.826  1.00  0.00    -0.289 C  
HETATM   23  C   UNL     1     -10.996  14.205  67.301  1.00  0.00    -0.304 C  
HETATM   24  C   UNL     1     -10.069  15.167  66.558  1.00  0.00    -0.269 C  
HETATM   25  C   UNL     1     -10.221  15.008  65.043  1.00  0.00    -0.349 C  
HETATM   26  O   UNL     1      -8.710  14.950  66.944  1.00  0.00    -0.225 OA 
HETATM   27  C   UNL     1     -10.062  13.548  64.593  1.00  0.00    -0.246 C  
HETATM   28  H   UNL     1      -8.134  15.549  66.482  1.00  0.00     0.000 HD 
HETATM   29  C   UNL     1     -10.923  12.606  65.389  1.00  0.00    -0.320 C  
HETATM   30  C   UNL     1     -11.770  11.731  64.830  1.00  0.00    -0.212 C  
ENDBRANCH  16  21
TORSDOF 1
ENDMDL
MODEL       70
REMARK 921   NORMALIZED FREE ENERGY PREDICTED BY IDOCK:   -4.49 KCAL/MOL
REMARK 922        TOTAL FREE ENERGY PREDICTED BY IDOCK:   -5.22 KCAL/MOL
REMARK 923 INTER-LIGAND FREE ENERGY PREDICTED BY IDOCK:   -4.26 KCAL/MOL
REMARK 924 INTRA-LIGAND FREE ENERGY PREDICTED BY IDOCK:   -0.97 KCAL/MOL
REMARK 927      BINDING AFFINITY PREDICTED BY RF-SCORE:    0.00 PKD
ROOT
HETATM    1  C   UNL     1     -12.024  10.736  68.253  1.00  0.00     0.074 C  
HETATM    2  C   UNL     1     -11.556  12.045  67.601  1.00  0.00    -0.392 C  
HETATM    3  C   UNL     1     -10.933  11.808  66.203  1.00  0.00    -0.355 C  
HETATM    4  C   UNL     1     -10.672  12.833  68.559  1.00  0.00    -0.275 C  
HETATM    5  C   UNL     1      -9.636  11.018  66.173  1.00  0.00    -0.240 C  
HETATM    6  C   UNL     1     -10.660  13.139  65.494  1.00  0.00    -0.299 C  
HETATM    7  C   UNL     1      -9.500   9.816  65.586  1.00  0.00    -0.307 C  
HETATM    8  C   UNL     1      -8.189   9.166  65.158  1.00  0.00    -0.147 C  
HETATM    9  C   UNL     1      -7.240   8.440  66.212  1.00  0.00    -0.078 C  
HETATM   10  C   UNL     1      -7.442  10.135  64.229  1.00  0.00    -0.116 C  
HETATM   11  C   UNL     1      -6.718   9.395  67.287  1.00  0.00    -0.075 C  
HETATM   12  C   UNL     1      -7.601   9.185  68.510  1.00  0.00    -0.085 C  
HETATM   13  C   UNL     1      -8.621   8.072  68.161  1.00  0.00    -0.126 C  
HETATM   14  C   UNL     1      -9.045   7.234  69.363  1.00  0.00    -0.142 C  
HETATM   15  C   UNL     1      -9.297   5.807  68.972  1.00  0.00    -0.144 C  
HETATM   16  C   UNL     1      -9.156   7.706  70.624  1.00  0.00    -0.158 C  
HETATM   17  C   UNL     1      -8.778   6.454  66.008  1.00  0.00    -0.157 C  
HETATM   18  C   UNL     1      -7.968   5.189  68.512  1.00  0.00    -0.086 C  
HETATM   19  C   UNL     1      -7.919   7.266  67.008  1.00  0.00    -0.109 C  
HETATM   20  C   UNL     1      -7.042   6.203  67.751  1.00  0.00    -0.081 C  
ENDROOT
BRANCH  16  21
HETATM   21  C   UNL     1      -9.568   6.889  71.755  1.00  0.00    -0.162 C  
HETATM   22  C   UNL     1      -8.880   5.940  72.400  1.00  0.00    -0.134 C  
HETATM   23  C   UNL     1      -9.532   5.249  73.592  1.00  0.00    -0.133 C  
HETATM   24  C   UNL     1      -9.578   3.733  73.406  1.00  0.00    -0.107 C  
HETATM   25  C   UNL     1      -8.187   3.183  73.076  1.00  0.00    -0.079 C  
HETATM   26  O   UNL     1     -10.504   3.383  72.375  1.00  0.00    -0.127 OA 
HETATM   27  C   UNL     1      -7.537   3.918  71.894  1.00  0.00    -0.061 C  
HETATM   28  H   UNL     1     -10.532   2.440  72.260  1.00  0.00     0.000 HD 
HETATM   29  C   UNL     1      -7.572   5.413  72.059  1.00  0.00    -0.099 C  
HETATM   30  C   UNL     1      -6.486   6.190  71.960  1.00  0.00    -0.057 C  
ENDBRANCH  16  21
TORSDOF 1
ENDMDL
MODEL       71
REMARK 921   NORMALIZED FREE ENERGY PREDICTED BY IDOCK:   -4.46 KCAL/MOL
REMARK 922        TOTAL FREE ENERGY PREDICTED BY IDOCK:   -5.19 KCAL/MOL
REMARK 923 INTER-LIGAND FREE ENERGY PREDICTED BY IDOCK:   -4.12 KCAL/MOL
REMARK 924 INTRA-LIGAND FREE ENERGY PREDICTED BY IDOCK:   -1.07 KCAL/MOL
REMARK 927      BINDING AFFINITY PREDICTED BY RF-SCORE:    0.00 PKD
ROOT
HETATM    1  C   UNL     1     -11.637  10.849  67.909  1.00  0.00    -0.270 C  
HETATM    2  C   UNL     1     -11.458  12.367  68.059  1.00  0.00    -0.377 C  
HETATM    3  C   UNL     1     -10.206  12.882  67.309  1.00  0.00    -0.234 C  
HETATM    4  C   UNL     1     -11.522  12.769  69.528  1.00  0.00    -0.293 C  
HETATM    5  C   UNL     1      -8.865  12.403  67.835  1.00  0.00    -0.180 C  
HETATM    6  C   UNL     1     -10.162  14.415  67.307  1.00  0.00    -0.252 C  
HETATM    7  C   UNL     1      -8.015  11.630  67.136  1.00  0.00    -0.163 C  
HETATM    8  C   UNL     1      -6.525  11.455  67.410  1.00  0.00    -0.083 C  
HETATM    9  C   UNL     1      -6.001  10.491  68.567  1.00  0.00    -0.043 C  
HETATM   10  C   UNL     1      -5.862  12.840  67.422  1.00  0.00    -0.094 C  
HETATM   11  C   UNL     1      -6.470  10.931  69.954  1.00  0.00    -0.144 C  
HETATM   12  C   UNL     1      -7.673  10.060  70.295  1.00  0.00    -0.093 C  
HETATM   13  C   UNL     1      -7.884   9.077  69.115  1.00  0.00    -0.093 C  
HETATM   14  C   UNL     1      -8.472   7.735  69.537  1.00  0.00    -0.131 C  
HETATM   15  C   UNL     1      -7.935   6.615  68.694  1.00  0.00    -0.118 C  
HETATM   16  C   UNL     1      -9.344   7.567  70.554  1.00  0.00    -0.160 C  
HETATM   17  C   UNL     1      -6.356   8.595  66.945  1.00  0.00    -0.060 C  
HETATM   18  C   UNL     1      -6.429   6.485  68.963  1.00  0.00    -0.043 C  
HETATM   19  C   UNL     1      -6.468   8.995  68.436  1.00  0.00    -0.055 C  
HETATM   20  C   UNL     1      -5.723   7.864  69.220  1.00  0.00    -0.030 C  
ENDROOT
BRANCH  16  21
HETATM   21  C   UNL     1      -9.897   6.277  70.935  1.00  0.00    -0.207 C  
HETATM   22  C   UNL     1      -9.323   5.291  71.634  1.00  0.00    -0.178 C  
HETATM   23  C   UNL     1     -10.140   4.039  71.935  1.00  0.00    -0.214 C  
HETATM   24  C   UNL     1      -9.441   2.779  71.425  1.00  0.00    -0.146 C  
HETATM   25  C   UNL     1      -8.005   2.702  71.949  1.00  0.00    -0.053 C  
HETATM   26  O   UNL     1      -9.448   2.746  69.997  1.00  0.00    -0.146 OA 
HETATM   27  C   UNL     1      -7.214   3.989  71.665  1.00  0.00    -0.053 C  
HETATM   28  H   UNL     1      -9.014   1.962  69.680  1.00  0.00     0.000 HD 
HETATM   29  C   UNL     1      -7.952   5.224  72.102  1.00  0.00    -0.110 C  
HETATM   30  C   UNL     1      -7.418   6.157  72.901  1.00  0.00    -0.097 C  
ENDBRANCH  16  21
TORSDOF 1
ENDMDL
MODEL       72
REMARK 921   NORMALIZED FREE ENERGY PREDICTED BY IDOCK:   -4.44 KCAL/MOL
REMARK 922        TOTAL FREE ENERGY PREDICTED BY IDOCK:   -5.17 KCAL/MOL
REMARK 923 INTER-LIGAND FREE ENERGY PREDICTED BY IDOCK:   -4.16 KCAL/MOL
REMARK 924 INTRA-LIGAND FREE ENERGY PREDICTED BY IDOCK:   -1.00 KCAL/MOL
REMARK 927      BINDING AFFINITY PREDICTED BY RF-SCORE:    0.00 PKD
ROOT
HETATM    1  C   UNL     1     -11.389  12.809  64.442  1.00  0.00    -0.394 C  
HETATM    2  C   UNL     1     -11.879  14.263  64.500  1.00  0.00    -0.456 C  
HETATM    3  C   UNL     1     -10.717  15.259  64.734  1.00  0.00    -0.342 C  
HETATM    4  C   UNL     1     -13.033  14.398  65.487  1.00  0.00    -0.141 C  
HETATM    5  C   UNL     1     -10.011  15.163  66.075  1.00  0.00    -0.335 C  
HETATM    6  C   UNL     1     -11.201  16.707  64.589  1.00  0.00    -0.023 C  
HETATM    7  C   UNL     1      -8.720  14.818  66.222  1.00  0.00     0.062 C  
HETATM    8  C   UNL     1      -7.849  15.091  67.444  1.00  0.00    -0.226 C  
HETATM    9  C   UNL     1      -7.945  14.185  68.751  1.00  0.00    -0.102 C  
HETATM   10  C   UNL     1      -7.880  16.598  67.741  1.00  0.00    -0.175 C  
HETATM   11  C   UNL     1      -9.328  14.237  69.401  1.00  0.00     0.363 C  
HETATM   12  C   UNL     1     -10.064  12.986  68.941  1.00  0.00     0.031 C  
HETATM   13  C   UNL     1      -9.091  12.176  68.048  1.00  0.00    -0.190 C  
HETATM   14  C   UNL     1      -9.313  10.669  68.113  1.00  0.00    -0.152 C  
HETATM   15  C   UNL     1      -8.019   9.921  67.984  1.00  0.00    -0.100 C  
HETATM   16  C   UNL     1     -10.515  10.079  68.290  1.00  0.00    -0.246 C  
HETATM   17  C   UNL     1      -6.466  12.541  67.541  1.00  0.00    -0.153 C  
HETATM   18  C   UNL     1      -7.149  10.242  69.207  1.00  0.00    -0.083 C  
HETATM   19  C   UNL     1      -7.667  12.656  68.512  1.00  0.00    -0.114 C  
HETATM   20  C   UNL     1      -7.311  11.719  69.714  1.00  0.00     0.543 C  
ENDROOT
BRANCH  16  21
HETATM   21  C   UNL     1     -10.704   8.638  68.344  1.00  0.00    -0.098 C  
HETATM   22  C   UNL     1     -10.603   7.817  69.395  1.00  0.00    -0.211 C  
HETATM   23  C   UNL     1     -10.891   6.333  69.192  1.00  0.00    -0.403 C  
HETATM   24  C   UNL     1      -9.708   5.468  69.627  1.00  0.00    -0.172 C  
HETATM   25  C   UNL     1      -9.281   5.810  71.057  1.00  0.00    -0.166 C  
HETATM   26  O   UNL     1      -8.609   5.636  68.730  1.00  0.00    -0.104 OA 
HETATM   27  C   UNL     1      -9.032   7.314  71.246  1.00  0.00    -0.139 C  
HETATM   28  H   UNL     1      -7.874   5.098  69.001  1.00  0.00     0.000 HD 
HETATM   29  C   UNL     1     -10.173   8.152  70.739  1.00  0.00    -0.215 C  
HETATM   30  C   UNL     1     -10.783   9.089  71.477  1.00  0.00    -0.421 C  
ENDBRANCH  16  21
TORSDOF 1
ENDMDL
MODEL       73
REMARK 921   NORMALIZED FREE ENERGY PREDICTED BY IDOCK:   -4.43 KCAL/MOL
REMARK 922        TOTAL FREE ENERGY PREDICTED BY IDOCK:   -5.16 KCAL/MOL
REMARK 923 INTER-LIGAND FREE ENERGY PREDICTED BY IDOCK:   -4.71 KCAL/MOL
REMARK 924 INTRA-LIGAND FREE ENERGY PREDICTED BY IDOCK:   -0.45 KCAL/MOL
REMARK 927      BINDING AFFINITY PREDICTED BY RF-SCORE:    0.00 PKD
ROOT
HETATM    1  C   UNL     1     -11.396  10.369  67.244  1.00  0.00     0.021 C  
HETATM    2  C   UNL     1     -11.067  11.754  66.667  1.00  0.00    -0.364 C  
HETATM    3  C   UNL     1     -10.275  11.658  65.340  1.00  0.00    -0.306 C  
HETATM    4  C   UNL     1     -10.414  12.632  67.728  1.00  0.00    -0.228 C  
HETATM    5  C   UNL     1      -8.879  11.070  65.434  1.00  0.00    -0.157 C  
HETATM    6  C   UNL     1     -10.135  13.038  64.686  1.00  0.00    -0.253 C  
HETATM    7  C   UNL     1      -8.504   9.922  64.843  1.00  0.00    -0.168 C  
HETATM    8  C   UNL     1      -7.073   9.488  64.545  1.00  0.00    -0.107 C  
HETATM    9  C   UNL     1      -6.138   8.876  65.681  1.00  0.00    -0.052 C  
HETATM   10  C   UNL     1      -6.390  10.586  63.717  1.00  0.00     0.024 C  
HETATM   11  C   UNL     1      -5.878   9.861  66.821  1.00  0.00    -0.054 C  
HETATM   12  C   UNL     1      -6.840   9.483  67.940  1.00  0.00    -0.074 C  
HETATM   13  C   UNL     1      -7.640   8.243  67.466  1.00  0.00    -0.098 C  
HETATM   14  C   UNL     1      -8.053   7.312  68.601  1.00  0.00    -0.125 C  
HETATM   15  C   UNL     1      -8.046   5.878  68.161  1.00  0.00    -0.109 C  
HETATM   16  C   UNL     1      -8.362   7.720  69.851  1.00  0.00    -0.130 C  
HETATM   17  C   UNL     1      -7.331   6.692  65.280  1.00  0.00    -0.080 C  
HETATM   18  C   UNL     1      -6.600   5.478  67.834  1.00  0.00    -0.053 C  
HETATM   19  C   UNL     1      -6.710   7.588  66.380  1.00  0.00    -0.057 C  
HETATM   20  C   UNL     1      -5.764   6.643  67.192  1.00  0.00    -0.013 C  
ENDROOT
BRANCH  16  21
HETATM   21  C   UNL     1      -8.760   6.814  70.918  1.00  0.00    -0.142 C  
HETATM   22  C   UNL     1      -9.939   6.213  71.114  1.00  0.00    -0.218 C  
HETATM   23  C   UNL     1     -10.088   5.270  72.302  1.00  0.00    -0.237 C  
HETATM   24  C   UNL     1     -11.244   5.690  73.210  1.00  0.00    -0.187 C  
HETATM   25  C   UNL     1     -12.535   5.856  72.405  1.00  0.00     0.134 C  
HETATM   26  O   UNL     1     -10.927   6.905  73.892  1.00  0.00    -0.480 OA 
HETATM   27  C   UNL     1     -12.350   6.783  71.194  1.00  0.00    -0.386 C  
HETATM   28  H   UNL     1     -11.646   7.166  74.456  1.00  0.00     0.000 HD 
HETATM   29  C   UNL     1     -11.161   6.401  70.356  1.00  0.00    -0.435 C  
HETATM   30  C   UNL     1     -11.228   6.193  69.034  1.00  0.00    -0.375 C  
ENDBRANCH  16  21
TORSDOF 1
ENDMDL
MODEL       74
REMARK 921   NORMALIZED FREE ENERGY PREDICTED BY IDOCK:   -4.41 KCAL/MOL
REMARK 922        TOTAL FREE ENERGY PREDICTED BY IDOCK:   -5.14 KCAL/MOL
REMARK 923 INTER-LIGAND FREE ENERGY PREDICTED BY IDOCK:   -4.61 KCAL/MOL
REMARK 924 INTRA-LIGAND FREE ENERGY PREDICTED BY IDOCK:   -0.53 KCAL/MOL
REMARK 927      BINDING AFFINITY PREDICTED BY RF-SCORE:    0.00 PKD
ROOT
HETATM    1  C   UNL     1     -11.253  10.408  67.706  1.00  0.00    -0.309 C  
HETATM    2  C   UNL     1     -10.903  11.768  67.086  1.00  0.00    -0.303 C  
HETATM    3  C   UNL     1     -10.571  11.652  65.578  1.00  0.00    -0.329 C  
HETATM    4  C   UNL     1      -9.834  12.473  67.913  1.00  0.00    -0.207 C  
HETATM    5  C   UNL     1      -9.318  10.869  65.226  1.00  0.00    -0.246 C  
HETATM    6  C   UNL     1     -10.422  13.039  64.942  1.00  0.00    -0.358 C  
HETATM    7  C   UNL     1      -9.320   9.722  64.524  1.00  0.00    -0.298 C  
HETATM    8  C   UNL     1      -8.129   9.112  63.792  1.00  0.00    -0.156 C  
HETATM    9  C   UNL     1      -7.002   8.300  64.573  1.00  0.00    -0.073 C  
HETATM   10  C   UNL     1      -7.565  10.157  62.818  1.00  0.00    -0.144 C  
HETATM   11  C   UNL     1      -6.264   9.160  65.599  1.00  0.00    -0.056 C  
HETATM   12  C   UNL     1      -6.892   8.846  66.951  1.00  0.00    -0.077 C  
HETATM   13  C   UNL     1      -7.978   7.765  66.719  1.00  0.00    -0.107 C  
HETATM   14  C   UNL     1      -8.170   6.827  67.906  1.00  0.00    -0.117 C  
HETATM   15  C   UNL     1      -8.516   5.439  67.454  1.00  0.00    -0.106 C  
HETATM   16  C   UNL     1      -8.023   7.189  69.199  1.00  0.00    -0.119 C  
HETATM   17  C   UNL     1      -8.583   6.337  64.511  1.00  0.00     0.183 C  
HETATM   18  C   UNL     1      -7.314   4.864  66.691  1.00  0.00    -0.082 C  
HETATM   19  C   UNL     1      -7.530   7.061  65.386  1.00  0.00    -0.088 C  
HETATM   20  C   UNL     1      -6.541   5.940  65.849  1.00  0.00    -0.047 C  
ENDROOT
BRANCH  16  21
HETATM   21  C   UNL     1      -8.216   6.278  70.317  1.00  0.00    -0.125 C  
HETATM   22  C   UNL     1      -8.650   6.547  71.554  1.00  0.00    -0.129 C  
HETATM   23  C   UNL     1      -8.801   5.394  72.539  1.00  0.00    -0.130 C  
HETATM   24  C   UNL     1      -7.990   5.635  73.813  1.00  0.00    -0.108 C  
HETATM   25  C   UNL     1      -8.326   6.998  74.422  1.00  0.00    -0.196 C  
HETATM   26  O   UNL     1      -6.591   5.548  73.538  1.00  0.00    -0.072 OA 
HETATM   27  C   UNL     1      -8.200   8.139  73.400  1.00  0.00    -0.267 C  
HETATM   28  H   UNL     1      -6.087   5.697  74.329  1.00  0.00     0.000 HD 
HETATM   29  C   UNL     1      -8.940   7.849  72.123  1.00  0.00    -0.199 C  
HETATM   30  C   UNL     1      -9.834   8.688  71.584  1.00  0.00    -0.351 C  
ENDBRANCH  16  21
TORSDOF 1
ENDMDL
MODEL       75
REMARK 921   NORMALIZED FREE ENERGY PREDICTED BY IDOCK:   -4.41 KCAL/MOL
REMARK 922        TOTAL FREE ENERGY PREDICTED BY IDOCK:   -5.14 KCAL/MOL
REMARK 923 INTER-LIGAND FREE ENERGY PREDICTED BY IDOCK:   -4.07 KCAL/MOL
REMARK 924 INTRA-LIGAND FREE ENERGY PREDICTED BY IDOCK:   -1.07 KCAL/MOL
REMARK 927      BINDING AFFINITY PREDICTED BY RF-SCORE:    0.00 PKD
ROOT
HETATM    1  C   UNL     1     -13.389   9.705  70.652  1.00  0.00     0.042 C  
HETATM    2  C   UNL     1     -13.126  11.218  70.609  1.00  0.00     0.049 C  
HETATM    3  C   UNL     1     -12.294  11.629  69.370  1.00  0.00    -0.131 C  
HETATM    4  C   UNL     1     -12.556  11.698  71.938  1.00  0.00    -0.083 C  
HETATM    5  C   UNL     1     -10.868  11.109  69.318  1.00  0.00    -0.277 C  
HETATM    6  C   UNL     1     -12.217  13.155  69.245  1.00  0.00    -0.165 C  
HETATM    7  C   UNL     1     -10.410  10.259  68.383  1.00  0.00    -0.202 C  
HETATM    8  C   UNL     1      -8.948  10.022  68.019  1.00  0.00    -0.128 C  
HETATM    9  C   UNL     1      -8.010   9.094  68.914  1.00  0.00    -0.099 C  
HETATM   10  C   UNL     1      -8.308  11.371  67.658  1.00  0.00    -0.129 C  
HETATM   11  C   UNL     1      -7.841   9.629  70.336  1.00  0.00    -0.181 C  
HETATM   12  C   UNL     1      -8.810   8.840  71.208  1.00  0.00    -0.288 C  
HETATM   13  C   UNL     1      -9.521   7.809  70.295  1.00  0.00    -0.160 C  
HETATM   14  C   UNL     1      -9.910   6.522  71.015  1.00  0.00    -0.196 C  
HETATM   15  C   UNL     1      -9.806   5.334  70.104  1.00  0.00    -0.290 C  
HETATM   16  C   UNL     1     -10.277   6.452  72.313  1.00  0.00    -0.205 C  
HETATM   17  C   UNL     1      -9.061   7.137  67.723  1.00  0.00    -0.127 C  
HETATM   18  C   UNL     1      -8.330   5.141  69.726  1.00  0.00    -0.093 C  
HETATM   19  C   UNL     1      -8.525   7.620  69.093  1.00  0.00    -0.138 C  
HETATM   20  C   UNL     1      -7.548   6.494  69.569  1.00  0.00    -0.095 C  
ENDROOT
BRANCH  16  21
HETATM   21  C   UNL     1     -10.650   5.213  72.978  1.00  0.00    -0.278 C  
HETATM   22  C   UNL     1      -9.859   4.239  73.442  1.00  0.00    -0.160 C  
HETATM   23  C   UNL     1     -10.504   3.048  74.141  1.00  0.00    -0.236 C  
HETATM   24  C   UNL     1     -10.111   1.728  73.477  1.00  0.00    -0.086 C  
HETATM   25  C   UNL     1      -8.589   1.609  73.361  1.00  0.00    -0.061 C  
HETATM   26  O   UNL     1     -10.714   1.619  72.186  1.00  0.00    -0.111 OA 
HETATM   27  C   UNL     1      -7.960   2.837  72.686  1.00  0.00    -0.058 C  
HETATM   28  H   UNL     1     -10.470   0.798  71.773  1.00  0.00     0.000 HD 
HETATM   29  C   UNL     1      -8.420   4.129  73.302  1.00  0.00    -0.089 C  
HETATM   30  C   UNL     1      -7.580   5.076  73.740  1.00  0.00    -0.091 C  
ENDBRANCH  16  21
TORSDOF 1
ENDMDL
MODEL       76
REMARK 921   NORMALIZED FREE ENERGY PREDICTED BY IDOCK:   -4.39 KCAL/MOL
REMARK 922        TOTAL FREE ENERGY PREDICTED BY IDOCK:   -5.12 KCAL/MOL
REMARK 923 INTER-LIGAND FREE ENERGY PREDICTED BY IDOCK:   -4.32 KCAL/MOL
REMARK 924 INTRA-LIGAND FREE ENERGY PREDICTED BY IDOCK:   -0.80 KCAL/MOL
REMARK 927      BINDING AFFINITY PREDICTED BY RF-SCORE:    0.00 PKD
ROOT
HETATM    1  C   UNL     1     -10.349   9.580  70.711  1.00  0.00    -0.377 C  
HETATM    2  C   UNL     1     -10.334   8.152  70.145  1.00  0.00    -0.215 C  
HETATM    3  C   UNL     1      -8.897   7.584  70.040  1.00  0.00    -0.144 C  
HETATM    4  C   UNL     1     -11.134   8.083  68.850  1.00  0.00     0.246 C  
HETATM    5  C   UNL     1      -7.974   8.272  69.050  1.00  0.00    -0.112 C  
HETATM    6  C   UNL     1      -8.923   6.097  69.665  1.00  0.00    -0.134 C  
HETATM    7  C   UNL     1      -6.858   8.936  69.398  1.00  0.00    -0.049 C  
HETATM    8  C   UNL     1      -5.694   9.285  68.477  1.00  0.00    -0.041 C  
HETATM    9  C   UNL     1      -5.772  10.519  67.472  1.00  0.00    -0.044 C  
HETATM   10  C   UNL     1      -5.185   7.993  67.819  1.00  0.00    -0.033 C  
HETATM   11  C   UNL     1      -6.886  10.363  66.436  1.00  0.00    -0.112 C  
HETATM   12  C   UNL     1      -8.060  11.190  66.943  1.00  0.00    -0.150 C  
HETATM   13  C   UNL     1      -7.616  11.866  68.264  1.00  0.00    -0.116 C  
HETATM   14  C   UNL     1      -8.278  13.218  68.511  1.00  0.00    -0.084 C  
HETATM   15  C   UNL     1      -7.347  14.161  69.214  1.00  0.00    -0.016 C  
HETATM   16  C   UNL     1      -9.532  13.538  68.124  1.00  0.00    -0.214 C  
HETATM   17  C   UNL     1      -5.194  11.974  69.447  1.00  0.00    -0.064 C  
HETATM   18  C   UNL     1      -6.168  14.466  68.278  1.00  0.00    -0.120 C  
HETATM   19  C   UNL     1      -6.048  11.907  68.157  1.00  0.00    -0.051 C  
HETATM   20  C   UNL     1      -5.742  13.240  67.395  1.00  0.00     0.071 C  
ENDROOT
BRANCH  16  21
HETATM   21  C   UNL     1     -10.145  14.833  68.375  1.00  0.00    -0.225 C  
HETATM   22  C   UNL     1     -10.289  15.869  67.541  1.00  0.00    -0.283 C  
HETATM   23  C   UNL     1     -11.011  17.114  68.044  1.00  0.00    -0.229 C  
HETATM   24  C   UNL     1     -10.140  18.363  67.900  1.00  0.00    -0.362 C  
HETATM   25  C   UNL     1      -9.621  18.503  66.467  1.00  0.00    -0.335 C  
HETATM   26  O   UNL     1      -9.047  18.318  68.819  1.00  0.00    -0.300 OA 
HETATM   27  C   UNL     1      -8.930  17.224  65.971  1.00  0.00    -0.111 C  
HETATM   28  H   UNL     1      -8.505  19.094  68.730  1.00  0.00     0.000 HD 
HETATM   29  C   UNL     1      -9.770  15.995  66.193  1.00  0.00    -0.353 C  
HETATM   30  C   UNL     1     -10.066  15.121  65.223  1.00  0.00    -0.365 C  
ENDBRANCH  16  21
TORSDOF 1
ENDMDL
MODEL       77
REMARK 921   NORMALIZED FREE ENERGY PREDICTED BY IDOCK:   -4.37 KCAL/MOL
REMARK 922        TOTAL FREE ENERGY PREDICTED BY IDOCK:   -5.10 KCAL/MOL
REMARK 923 INTER-LIGAND FREE ENERGY PREDICTED BY IDOCK:   -4.40 KCAL/MOL
REMARK 924 INTRA-LIGAND FREE ENERGY PREDICTED BY IDOCK:   -0.70 KCAL/MOL
REMARK 927      BINDING AFFINITY PREDICTED BY RF-SCORE:    0.00 PKD
ROOT
HETATM    1  C   UNL     1     -10.661   6.108  66.999  1.00  0.00    -0.384 C  
HETATM    2  C   UNL     1     -10.234   4.742  66.440  1.00  0.00    -0.308 C  
HETATM    3  C   UNL     1      -9.593   3.844  67.527  1.00  0.00    -0.212 C  
HETATM    4  C   UNL     1      -9.383   4.921  65.188  1.00  0.00    -0.104 C  
HETATM    5  C   UNL     1      -8.270   4.323  68.098  1.00  0.00    -0.093 C  
HETATM    6  C   UNL     1      -9.361   2.425  66.995  1.00  0.00    -0.041 C  
HETATM    7  C   UNL     1      -8.090   4.679  69.382  1.00  0.00    -0.069 C  
HETATM    8  C   UNL     1      -6.754   4.767  70.112  1.00  0.00    -0.037 C  
HETATM    9  C   UNL     1      -5.788   6.021  69.927  1.00  0.00    -0.017 C  
HETATM   10  C   UNL     1      -6.035   3.416  69.984  1.00  0.00    -0.022 C  
HETATM   11  C   UNL     1      -5.306   6.181  68.484  1.00  0.00    -0.007 C  
HETATM   12  C   UNL     1      -6.189   7.251  67.855  1.00  0.00    -0.046 C  
HETATM   13  C   UNL     1      -7.169   7.747  68.949  1.00  0.00    -0.081 C  
HETATM   14  C   UNL     1      -7.571   9.209  68.790  1.00  0.00    -0.083 C  
HETATM   15  C   UNL     1      -7.772   9.868  70.123  1.00  0.00    -0.188 C  
HETATM   16  C   UNL     1      -7.707   9.841  67.603  1.00  0.00    -0.094 C  
HETATM   17  C   UNL     1      -7.256   7.213  71.592  1.00  0.00    -0.073 C  
HETATM   18  C   UNL     1      -6.420   9.911  70.850  1.00  0.00    -0.040 C  
HETATM   19  C   UNL     1      -6.432   7.407  70.296  1.00  0.00    -0.035 C  
HETATM   20  C   UNL     1      -5.524   8.652  70.571  1.00  0.00    -0.027 C  
ENDROOT
BRANCH  16  21
HETATM   21  C   UNL     1      -8.098  11.236  67.475  1.00  0.00    -0.124 C  
HETATM   22  C   UNL     1      -9.325  11.769  67.487  1.00  0.00    -0.174 C  
HETATM   23  C   UNL     1      -9.464  13.282  67.371  1.00  0.00    -0.218 C  
HETATM   24  C   UNL     1     -10.355  13.674  66.192  1.00  0.00    -0.297 C  
HETATM   25  C   UNL     1     -11.701  12.948  66.262  1.00  0.00    -0.457 C  
HETATM   26  O   UNL     1      -9.702  13.386  64.955  1.00  0.00    -0.563 OA 
HETATM   27  C   UNL     1     -11.534  11.429  66.414  1.00  0.00    -0.058 C  
HETATM   28  H   UNL     1     -10.256  13.630  64.222  1.00  0.00     0.000 HD 
HETATM   29  C   UNL     1     -10.592  11.064  67.529  1.00  0.00    -0.266 C  
HETATM   30  C   UNL     1     -10.909  10.209  68.511  1.00  0.00    -0.278 C  
ENDBRANCH  16  21
TORSDOF 1
ENDMDL
MODEL       78
REMARK 921   NORMALIZED FREE ENERGY PREDICTED BY IDOCK:   -4.36 KCAL/MOL
REMARK 922        TOTAL FREE ENERGY PREDICTED BY IDOCK:   -5.08 KCAL/MOL
REMARK 923 INTER-LIGAND FREE ENERGY PREDICTED BY IDOCK:   -4.43 KCAL/MOL
REMARK 924 INTRA-LIGAND FREE ENERGY PREDICTED BY IDOCK:   -0.66 KCAL/MOL
REMARK 927      BINDING AFFINITY PREDICTED BY RF-SCORE:    0.00 PKD
ROOT
HETATM    1  C   UNL     1      -6.503  12.836  69.599  1.00  0.00    -0.046 C  
HETATM    2  C   UNL     1      -6.339  13.681  68.327  1.00  0.00    -0.107 C  
HETATM    3  C   UNL     1      -7.530  14.647  68.113  1.00  0.00    -0.125 C  
HETATM    4  C   UNL     1      -6.030  12.789  67.130  1.00  0.00     0.110 C  
HETATM    5  C   UNL     1      -8.875  14.002  67.832  1.00  0.00    -0.185 C  
HETATM    6  C   UNL     1      -7.248  15.613  66.955  1.00  0.00    -0.175 C  
HETATM    7  C   UNL     1      -9.942  14.100  68.645  1.00  0.00    -0.222 C  
HETATM    8  C   UNL     1     -11.395  13.849  68.257  1.00  0.00    -0.325 C  
HETATM    9  C   UNL     1     -11.979  12.371  68.140  1.00  0.00    -0.272 C  
HETATM   10  C   UNL     1     -11.744  14.741  67.057  1.00  0.00    -0.330 C  
HETATM   11  C   UNL     1     -11.276  11.546  67.061  1.00  0.00    -0.365 C  
HETATM   12  C   UNL     1     -10.255  10.677  67.784  1.00  0.00    -0.212 C  
HETATM   13  C   UNL     1     -10.389  10.967  69.300  1.00  0.00    -0.211 C  
HETATM   14  C   UNL     1     -10.056   9.769  70.182  1.00  0.00    -0.317 C  
HETATM   15  C   UNL     1     -10.907   9.746  71.418  1.00  0.00    -0.180 C  
HETATM   16  C   UNL     1      -9.131   8.831  69.882  1.00  0.00    -0.158 C  
HETATM   17  C   UNL     1     -12.216  12.424  70.649  1.00  0.00    -0.368 C  
HETATM   18  C   UNL     1     -12.367   9.528  70.996  1.00  0.00    -0.363 C  
HETATM   19  C   UNL     1     -11.857  11.511  69.451  1.00  0.00    -0.417 C  
HETATM   20  C   UNL     1     -12.732  10.227  69.638  1.00  0.00     0.377 C  
ENDROOT
BRANCH  16  21
HETATM   21  C   UNL     1      -8.825   7.699  70.742  1.00  0.00    -0.144 C  
HETATM   22  C   UNL     1      -7.643   7.318  71.240  1.00  0.00    -0.083 C  
HETATM   23  C   UNL     1      -7.596   6.101  72.158  1.00  0.00    -0.096 C  
HETATM   24  C   UNL     1      -6.627   5.041  71.634  1.00  0.00    -0.032 C  
HETATM   25  C   UNL     1      -5.247   5.650  71.368  1.00  0.00    -0.009 C  
HETATM   26  O   UNL     1      -7.139   4.439  70.444  1.00  0.00    -0.043 OA 
HETATM   27  C   UNL     1      -5.325   6.894  70.471  1.00  0.00    -0.023 C  
HETATM   28  H   UNL     1      -6.537   3.781  70.118  1.00  0.00     0.000 HD 
HETATM   29  C   UNL     1      -6.340   7.891  70.958  1.00  0.00    -0.037 C  
HETATM   30  C   UNL     1      -6.061   9.183  71.172  1.00  0.00    -0.067 C  
ENDBRANCH  16  21
TORSDOF 1
ENDMDL
MODEL       79
REMARK 921   NORMALIZED FREE ENERGY PREDICTED BY IDOCK:   -4.36 KCAL/MOL
REMARK 922        TOTAL FREE ENERGY PREDICTED BY IDOCK:   -5.08 KCAL/MOL
REMARK 923 INTER-LIGAND FREE ENERGY PREDICTED BY IDOCK:   -4.61 KCAL/MOL
REMARK 924 INTRA-LIGAND FREE ENERGY PREDICTED BY IDOCK:   -0.48 KCAL/MOL
REMARK 927      BINDING AFFINITY PREDICTED BY RF-SCORE:    0.00 PKD
ROOT
HETATM    1  C   UNL     1     -11.527  11.622  67.216  1.00  0.00    -0.350 C  
HETATM    2  C   UNL     1     -11.721  12.941  67.979  1.00  0.00    -0.401 C  
HETATM    3  C   UNL     1     -10.585  13.952  67.690  1.00  0.00    -0.247 C  
HETATM    4  C   UNL     1     -11.961  12.670  69.460  1.00  0.00    -0.332 C  
HETATM    5  C   UNL     1      -9.201  13.563  68.178  1.00  0.00    -0.208 C  
HETATM    6  C   UNL     1     -10.904  15.322  68.301  1.00  0.00    -0.262 C  
HETATM    7  C   UNL     1      -8.153  13.332  67.367  1.00  0.00    -0.179 C  
HETATM    8  C   UNL     1      -6.683  13.347  67.769  1.00  0.00    -0.163 C  
HETATM    9  C   UNL     1      -6.013  12.107  68.514  1.00  0.00    -0.053 C  
HETATM   10  C   UNL     1      -6.368  14.698  68.427  1.00  0.00    -0.100 C  
HETATM   11  C   UNL     1      -6.652  11.827  69.875  1.00  0.00    -0.000 C  
HETATM   12  C   UNL     1      -7.632  10.681  69.659  1.00  0.00    -0.100 C  
HETATM   13  C   UNL     1      -7.537  10.262  68.170  1.00  0.00    -0.087 C  
HETATM   14  C   UNL     1      -7.814   8.782  67.933  1.00  0.00    -0.102 C  
HETATM   15  C   UNL     1      -6.982   8.244  66.807  1.00  0.00    -0.070 C  
HETATM   16  C   UNL     1      -8.680   8.040  68.658  1.00  0.00    -0.131 C  
HETATM   17  C   UNL     1      -5.817  11.036  66.241  1.00  0.00    -0.148 C  
HETATM   18  C   UNL     1      -5.505   8.304  67.224  1.00  0.00    -0.038 C  
HETATM   19  C   UNL     1      -6.105  10.745  67.734  1.00  0.00    -0.047 C  
HETATM   20  C   UNL     1      -5.160   9.555  68.109  1.00  0.00    -0.030 C  
ENDROOT
BRANCH  16  21
HETATM   21  C   UNL     1      -8.933   6.629  68.410  1.00  0.00    -0.123 C  
HETATM   22  C   UNL     1      -9.465   5.715  69.230  1.00  0.00    -0.167 C  
HETATM   23  C   UNL     1      -9.661   4.295  68.710  1.00  0.00    -0.219 C  
HETATM   24  C   UNL     1      -8.953   3.271  69.597  1.00  0.00    -0.111 C  
HETATM   25  C   UNL     1      -9.368   3.440  71.060  1.00  0.00    -0.212 C  
HETATM   26  O   UNL     1      -7.536   3.392  69.468  1.00  0.00    -0.048 OA 
HETATM   27  C   UNL     1      -9.195   4.885  71.550  1.00  0.00    -0.185 C  
HETATM   28  H   UNL     1      -7.096   2.755  70.020  1.00  0.00     0.000 HD 
HETATM   29  C   UNL     1      -9.830   5.885  70.623  1.00  0.00    -0.230 C  
HETATM   30  C   UNL     1     -10.702   6.817  71.030  1.00  0.00    -0.265 C  
ENDBRANCH  16  21
TORSDOF 1
ENDMDL
MODEL       80
REMARK 921   NORMALIZED FREE ENERGY PREDICTED BY IDOCK:   -4.27 KCAL/MOL
REMARK 922        TOTAL FREE ENERGY PREDICTED BY IDOCK:   -4.99 KCAL/MOL
REMARK 923 INTER-LIGAND FREE ENERGY PREDICTED BY IDOCK:   -4.35 KCAL/MOL
REMARK 924 INTRA-LIGAND FREE ENERGY PREDICTED BY IDOCK:   -0.64 KCAL/MOL
REMARK 927      BINDING AFFINITY PREDICTED BY RF-SCORE:    0.00 PKD
ROOT
HETATM    1  C   UNL     1     -11.646   6.346  71.292  1.00  0.00    -0.370 C  
HETATM    2  C   UNL     1     -11.039   6.119  72.685  1.00  0.00    -0.308 C  
HETATM    3  C   UNL     1     -10.019   7.222  73.061  1.00  0.00    -0.272 C  
HETATM    4  C   UNL     1     -10.503   4.698  72.808  1.00  0.00    -0.261 C  
HETATM    5  C   UNL     1      -8.753   7.278  72.225  1.00  0.00    -0.136 C  
HETATM    6  C   UNL     1      -9.581   7.085  74.524  1.00  0.00    -0.136 C  
HETATM    7  C   UNL     1      -8.416   8.315  71.438  1.00  0.00    -0.172 C  
HETATM    8  C   UNL     1      -7.020   8.628  70.910  1.00  0.00    -0.064 C  
HETATM    9  C   UNL     1      -6.412   7.850  69.660  1.00  0.00    -0.034 C  
HETATM   10  C   UNL     1      -6.055   8.721  72.101  1.00  0.00    -0.075 C  
HETATM   11  C   UNL     1      -6.261   6.350  69.919  1.00  0.00    -0.031 C  
HETATM   12  C   UNL     1      -7.464   5.681  69.267  1.00  0.00    -0.079 C  
HETATM   13  C   UNL     1      -8.303   6.793  68.588  1.00  0.00    -0.120 C  
HETATM   14  C   UNL     1      -9.045   6.323  67.342  1.00  0.00    -0.111 C  
HETATM   15  C   UNL     1      -9.131   7.413  66.314  1.00  0.00    -0.195 C  
HETATM   16  C   UNL     1      -9.542   5.078  67.171  1.00  0.00    -0.165 C  
HETATM   17  C   UNL     1      -7.766   9.411  68.216  1.00  0.00    -0.083 C  
HETATM   18  C   UNL     1      -7.710   7.732  65.827  1.00  0.00    -0.099 C  
HETATM   19  C   UNL     1      -7.267   7.950  68.344  1.00  0.00    -0.089 C  
HETATM   20  C   UNL     1      -6.626   7.614  66.956  1.00  0.00    -0.062 C  
ENDROOT
BRANCH  16  21
HETATM   21  C   UNL     1     -10.252   4.653  65.974  1.00  0.00    -0.306 C  
HETATM   22  C   UNL     1      -9.881   3.758  65.051  1.00  0.00    -0.175 C  
HETATM   23  C   UNL     1     -10.834   3.461  63.899  1.00  0.00    -0.150 C  
HETATM   24  C   UNL     1     -10.166   3.697  62.544  1.00  0.00    -0.160 C  
HETATM   25  C   UNL     1      -8.846   2.929  62.448  1.00  0.00    -0.078 C  
HETATM   26  O   UNL     1      -9.943   5.092  62.333  1.00  0.00    -0.358 OA 
HETATM   27  C   UNL     1      -7.917   3.218  63.638  1.00  0.00    -0.081 C  
HETATM   28  H   UNL     1      -9.528   5.238  61.490  1.00  0.00     0.000 HD 
HETATM   29  C   UNL     1      -8.614   3.058  64.961  1.00  0.00    -0.101 C  
HETATM   30  C   UNL     1      -8.144   2.290  65.953  1.00  0.00    -0.085 C  
ENDBRANCH  16  21
TORSDOF 1
ENDMDL
MODEL       81
REMARK 921   NORMALIZED FREE ENERGY PREDICTED BY IDOCK:   -4.24 KCAL/MOL
REMARK 922        TOTAL FREE ENERGY PREDICTED BY IDOCK:   -4.96 KCAL/MOL
REMARK 923 INTER-LIGAND FREE ENERGY PREDICTED BY IDOCK:   -3.88 KCAL/MOL
REMARK 924 INTRA-LIGAND FREE ENERGY PREDICTED BY IDOCK:   -1.08 KCAL/MOL
REMARK 927      BINDING AFFINITY PREDICTED BY RF-SCORE:    0.00 PKD
ROOT
HETATM    1  C   UNL     1     -10.741   5.306  66.422  1.00  0.00    -0.290 C  
HETATM    2  C   UNL     1     -10.019   4.057  65.895  1.00  0.00    -0.144 C  
HETATM    3  C   UNL     1      -9.252   3.313  67.016  1.00  0.00    -0.206 C  
HETATM    4  C   UNL     1      -9.172   4.404  64.676  1.00  0.00    -0.156 C  
HETATM    5  C   UNL     1      -8.081   4.056  67.634  1.00  0.00    -0.090 C  
HETATM    6  C   UNL     1      -8.710   1.971  66.510  1.00  0.00    -0.121 C  
HETATM    7  C   UNL     1      -8.030   4.445  68.920  1.00  0.00    -0.073 C  
HETATM    8  C   UNL     1      -6.773   4.809  69.702  1.00  0.00    -0.047 C  
HETATM    9  C   UNL     1      -6.079   6.235  69.540  1.00  0.00    -0.029 C  
HETATM   10  C   UNL     1      -5.785   3.636  69.616  1.00  0.00    -0.018 C  
HETATM   11  C   UNL     1      -5.582   6.488  68.117  1.00  0.00    -0.012 C  
HETATM   12  C   UNL     1      -6.640   7.350  67.441  1.00  0.00    -0.061 C  
HETATM   13  C   UNL     1      -7.745   7.636  68.490  1.00  0.00    -0.119 C  
HETATM   14  C   UNL     1      -8.434   8.983  68.299  1.00  0.00    -0.129 C  
HETATM   15  C   UNL     1      -8.820   9.590  69.616  1.00  0.00    -0.196 C  
HETATM   16  C   UNL     1      -8.648   9.570  67.102  1.00  0.00    -0.133 C  
HETATM   17  C   UNL     1      -7.829   7.102  71.133  1.00  0.00    -0.098 C  
HETATM   18  C   UNL     1      -7.537   9.913  70.395  1.00  0.00    -0.118 C  
HETATM   19  C   UNL     1      -7.009   7.459  69.869  1.00  0.00    -0.060 C  
HETATM   20  C   UNL     1      -6.390   8.865  70.166  1.00  0.00    -0.042 C  
ENDROOT
BRANCH  16  21
HETATM   21  C   UNL     1      -9.313  10.854  66.943  1.00  0.00    -0.186 C  
HETATM   22  C   UNL     1      -8.818  12.084  67.122  1.00  0.00    -0.188 C  
HETATM   23  C   UNL     1      -9.721  13.281  66.850  1.00  0.00    -0.248 C  
HETATM   24  C   UNL     1      -9.828  14.192  68.073  1.00  0.00    -0.223 C  
HETATM   25  C   UNL     1      -8.439  14.588  68.579  1.00  0.00    -0.166 C  
HETATM   26  O   UNL     1     -10.568  13.550  69.112  1.00  0.00    -0.407 OA 
HETATM   27  C   UNL     1      -7.535  13.367  68.812  1.00  0.00    -0.061 C  
HETATM   28  H   UNL     1     -10.634  14.116  69.872  1.00  0.00     0.000 HD 
HETATM   29  C   UNL     1      -7.506  12.442  67.627  1.00  0.00    -0.138 C  
HETATM   30  C   UNL     1      -6.373  12.026  67.045  1.00  0.00    -0.124 C  
ENDBRANCH  16  21
TORSDOF 1
ENDMDL
MODEL       82
REMARK 921   NORMALIZED FREE ENERGY PREDICTED BY IDOCK:   -4.23 KCAL/MOL
REMARK 922        TOTAL FREE ENERGY PREDICTED BY IDOCK:   -4.94 KCAL/MOL
REMARK 923 INTER-LIGAND FREE ENERGY PREDICTED BY IDOCK:   -4.00 KCAL/MOL
REMARK 924 INTRA-LIGAND FREE ENERGY PREDICTED BY IDOCK:   -0.94 KCAL/MOL
REMARK 927      BINDING AFFINITY PREDICTED BY RF-SCORE:    0.00 PKD
ROOT
HETATM    1  C   UNL     1     -10.387   9.087  71.327  1.00  0.00    -0.383 C  
HETATM    2  C   UNL     1     -11.030   8.120  72.333  1.00  0.00    -0.414 C  
HETATM    3  C   UNL     1      -9.971   7.286  73.096  1.00  0.00    -0.295 C  
HETATM    4  C   UNL     1     -12.116   7.292  71.657  1.00  0.00    -0.359 C  
HETATM    5  C   UNL     1      -9.163   6.306  72.265  1.00  0.00    -0.139 C  
HETATM    6  C   UNL     1     -10.622   6.481  74.227  1.00  0.00    -0.035 C  
HETATM    7  C   UNL     1      -7.834   6.394  72.078  1.00  0.00    -0.100 C  
HETATM    8  C   UNL     1      -6.912   5.267  71.626  1.00  0.00    -0.066 C  
HETATM    9  C   UNL     1      -6.812   4.842  70.093  1.00  0.00    -0.037 C  
HETATM   10  C   UNL     1      -7.089   4.076  72.580  1.00  0.00    -0.056 C  
HETATM   11  C   UNL     1      -8.141   4.328  69.538  1.00  0.00    -0.062 C  
HETATM   12  C   UNL     1      -8.766   5.493  68.780  1.00  0.00    -0.102 C  
HETATM   13  C   UNL     1      -7.776   6.683  68.859  1.00  0.00    -0.109 C  
HETATM   14  C   UNL     1      -7.824   7.599  67.641  1.00  0.00    -0.123 C  
HETATM   15  C   UNL     1      -6.468   8.157  67.324  1.00  0.00    -0.057 C  
HETATM   16  C   UNL     1      -8.938   7.857  66.921  1.00  0.00    -0.157 C  
HETATM   17  C   UNL     1      -5.252   6.801  69.805  1.00  0.00    -0.014 C  
HETATM   18  C   UNL     1      -5.553   6.998  66.906  1.00  0.00    -0.018 C  
HETATM   19  C   UNL     1      -6.384   5.998  69.118  1.00  0.00    -0.041 C  
HETATM   20  C   UNL     1      -5.841   5.667  67.688  1.00  0.00    -0.013 C  
ENDROOT
BRANCH  16  21
HETATM   21  C   UNL     1      -8.962   8.739  65.765  1.00  0.00    -0.253 C  
HETATM   22  C   UNL     1      -8.468   8.531  64.539  1.00  0.00    -0.108 C  
HETATM   23  C   UNL     1      -8.659   9.612  63.482  1.00  0.00    -0.215 C  
HETATM   24  C   UNL     1      -7.322  10.063  62.894  1.00  0.00    -0.131 C  
HETATM   25  C   UNL     1      -6.516   8.863  62.390  1.00  0.00    -0.095 C  
HETATM   26  O   UNL     1      -6.569  10.792  63.865  1.00  0.00    -0.354 OA 
HETATM   27  C   UNL     1      -6.367   7.772  63.462  1.00  0.00    -0.062 C  
HETATM   28  H   UNL     1      -5.738  11.072  63.499  1.00  0.00     0.000 HD 
HETATM   29  C   UNL     1      -7.684   7.398  64.085  1.00  0.00    -0.121 C  
HETATM   30  C   UNL     1      -8.128   6.137  64.166  1.00  0.00    -0.081 C  
ENDBRANCH  16  21
TORSDOF 1
ENDMDL
MODEL       83
REMARK 921   NORMALIZED FREE ENERGY PREDICTED BY IDOCK:   -4.19 KCAL/MOL
REMARK 922        TOTAL FREE ENERGY PREDICTED BY IDOCK:   -4.91 KCAL/MOL
REMARK 923 INTER-LIGAND FREE ENERGY PREDICTED BY IDOCK:   -4.44 KCAL/MOL
REMARK 924 INTRA-LIGAND FREE ENERGY PREDICTED BY IDOCK:   -0.47 KCAL/MOL
REMARK 927      BINDING AFFINITY PREDICTED BY RF-SCORE:    0.00 PKD
ROOT
HETATM    1  C   UNL     1      -5.473   6.883  66.810  1.00  0.00    -0.018 C  
HETATM    2  C   UNL     1      -5.799   6.748  65.315  1.00  0.00    -0.035 C  
HETATM    3  C   UNL     1      -6.448   8.032  64.743  1.00  0.00    -0.049 C  
HETATM    4  C   UNL     1      -6.591   5.472  65.054  1.00  0.00    -0.040 C  
HETATM    5  C   UNL     1      -7.822   8.386  65.283  1.00  0.00    -0.111 C  
HETATM    6  C   UNL     1      -6.578   7.946  63.217  1.00  0.00    -0.075 C  
HETATM    7  C   UNL     1      -8.088   9.496  65.994  1.00  0.00    -0.111 C  
HETATM    8  C   UNL     1      -9.463  10.119  66.209  1.00  0.00    -0.229 C  
HETATM    9  C   UNL     1     -10.482   9.531  67.284  1.00  0.00    -0.328 C  
HETATM   10  C   UNL     1     -10.103  10.379  64.838  1.00  0.00    -0.382 C  
HETATM   11  C   UNL     1     -10.895   8.092  66.974  1.00  0.00    -0.113 C  
HETATM   12  C   UNL     1     -10.036   7.200  67.861  1.00  0.00    -0.211 C  
HETATM   13  C   UNL     1      -9.143   8.126  68.725  1.00  0.00    -0.144 C  
HETATM   14  C   UNL     1      -8.809   7.547  70.096  1.00  0.00    -0.147 C  
HETATM   15  C   UNL     1      -8.713   8.625  71.135  1.00  0.00    -0.244 C  
HETATM   16  C   UNL     1      -8.644   6.231  70.351  1.00  0.00    -0.142 C  
HETATM   17  C   UNL     1      -9.166  10.808  69.013  1.00  0.00    -0.157 C  
HETATM   18  C   UNL     1     -10.102   9.259  71.305  1.00  0.00    -0.361 C  
HETATM   19  C   UNL     1      -9.931   9.487  68.756  1.00  0.00    -0.185 C  
HETATM   20  C   UNL     1     -10.915   9.341  69.964  1.00  0.00    -0.254 C  
ENDROOT
BRANCH  16  21
HETATM   21  C   UNL     1      -8.320   5.701  71.667  1.00  0.00    -0.124 C  
HETATM   22  C   UNL     1      -8.354   4.434  72.093  1.00  0.00    -0.108 C  
HETATM   23  C   UNL     1      -7.925   4.134  73.525  1.00  0.00    -0.089 C  
HETATM   24  C   UNL     1      -9.025   3.408  74.299  1.00  0.00    -0.086 C  
HETATM   25  C   UNL     1      -9.497   2.166  73.539  1.00  0.00    -0.099 C  
HETATM   26  O   UNL     1     -10.126   4.285  74.545  1.00  0.00    -0.166 OA 
HETATM   27  C   UNL     1      -9.890   2.488  72.088  1.00  0.00    -0.226 C  
HETATM   28  H   UNL     1     -10.809   3.834  75.026  1.00  0.00     0.000 HD 
HETATM   29  C   UNL     1      -8.828   3.271  71.367  1.00  0.00    -0.136 C  
HETATM   30  C   UNL     1      -8.317   2.903  70.185  1.00  0.00    -0.077 C  
ENDBRANCH  16  21
TORSDOF 1
ENDMDL
MODEL       84
REMARK 921   NORMALIZED FREE ENERGY PREDICTED BY IDOCK:   -4.18 KCAL/MOL
REMARK 922        TOTAL FREE ENERGY PREDICTED BY IDOCK:   -4.89 KCAL/MOL
REMARK 923 INTER-LIGAND FREE ENERGY PREDICTED BY IDOCK:   -4.07 KCAL/MOL
REMARK 924 INTRA-LIGAND FREE ENERGY PREDICTED BY IDOCK:   -0.83 KCAL/MOL
REMARK 927      BINDING AFFINITY PREDICTED BY RF-SCORE:    0.00 PKD
ROOT
HETATM    1  C   UNL     1      -7.969   9.002  70.059  1.00  0.00    -0.113 C  
HETATM    2  C   UNL     1      -8.837   8.956  71.325  1.00  0.00    -0.298 C  
HETATM    3  C   UNL     1      -8.380   7.847  72.304  1.00  0.00    -0.172 C  
HETATM    4  C   UNL     1     -10.315   8.900  70.956  1.00  0.00    -0.321 C  
HETATM    5  C   UNL     1      -8.541   6.417  71.819  1.00  0.00    -0.128 C  
HETATM    6  C   UNL     1      -9.129   7.952  73.637  1.00  0.00    -0.337 C  
HETATM    7  C   UNL     1      -7.514   5.576  71.603  1.00  0.00    -0.093 C  
HETATM    8  C   UNL     1      -7.598   4.055  71.523  1.00  0.00    -0.064 C  
HETATM    9  C   UNL     1      -8.107   3.320  70.204  1.00  0.00    -0.058 C  
HETATM   10  C   UNL     1      -8.259   3.533  72.807  1.00  0.00    -0.081 C  
HETATM   11  C   UNL     1      -9.551   3.678  69.852  1.00  0.00    -0.238 C  
HETATM   12  C   UNL     1      -9.475   4.747  68.770  1.00  0.00    -0.209 C  
HETATM   13  C   UNL     1      -7.975   4.987  68.458  1.00  0.00    -0.086 C  
HETATM   14  C   UNL     1      -7.709   5.393  67.013  1.00  0.00    -0.100 C  
HETATM   15  C   UNL     1      -6.402   4.844  66.523  1.00  0.00    -0.040 C  
HETATM   16  C   UNL     1      -8.552   6.132  66.258  1.00  0.00    -0.136 C  
HETATM   17  C   UNL     1      -5.780   3.660  69.295  1.00  0.00    -0.018 C  
HETATM   18  C   UNL     1      -6.503   3.312  66.487  1.00  0.00    -0.036 C  
HETATM   19  C   UNL     1      -7.280   3.650  68.908  1.00  0.00    -0.050 C  
HETATM   20  C   UNL     1      -7.372   2.720  67.653  1.00  0.00    -0.053 C  
ENDROOT
BRANCH  16  21
HETATM   21  C   UNL     1      -8.275   6.513  64.882  1.00  0.00    -0.097 C  
HETATM   22  C   UNL     1      -7.662   7.609  64.421  1.00  0.00    -0.127 C  
HETATM   23  C   UNL     1      -7.460   7.754  62.917  1.00  0.00    -0.114 C  
HETATM   24  C   UNL     1      -8.074   9.052  62.392  1.00  0.00    -0.149 C  
HETATM   25  C   UNL     1      -7.565  10.256  63.188  1.00  0.00    -0.132 C  
HETATM   26  O   UNL     1      -9.501   8.990  62.450  1.00  0.00    -0.529 OA 
HETATM   27  C   UNL     1      -7.746  10.071  64.703  1.00  0.00    -0.146 C  
HETATM   28  H   UNL     1      -9.882   9.796  62.124  1.00  0.00     0.000 HD 
HETATM   29  C   UNL     1      -7.207   8.753  65.188  1.00  0.00    -0.087 C  
HETATM   30  C   UNL     1      -6.337   8.641  66.200  1.00  0.00    -0.056 C  
ENDBRANCH  16  21
TORSDOF 1
ENDMDL
MODEL       85
REMARK 921   NORMALIZED FREE ENERGY PREDICTED BY IDOCK:   -4.18 KCAL/MOL
REMARK 922        TOTAL FREE ENERGY PREDICTED BY IDOCK:   -4.89 KCAL/MOL
REMARK 923 INTER-LIGAND FREE ENERGY PREDICTED BY IDOCK:   -4.41 KCAL/MOL
REMARK 924 INTRA-LIGAND FREE ENERGY PREDICTED BY IDOCK:   -0.48 KCAL/MOL
REMARK 927      BINDING AFFINITY PREDICTED BY RF-SCORE:    0.00 PKD
ROOT
HETATM    1  C   UNL     1      -6.844  15.733  69.493  1.00  0.00    -0.187 C  
HETATM    2  C   UNL     1      -6.397  16.729  68.412  1.00  0.00    -0.139 C  
HETATM    3  C   UNL     1      -7.599  17.447  67.750  1.00  0.00    -0.200 C  
HETATM    4  C   UNL     1      -5.445  16.059  67.429  1.00  0.00    -0.085 C  
HETATM    5  C   UNL     1      -8.536  16.573  66.935  1.00  0.00    -0.244 C  
HETATM    6  C   UNL     1      -7.122  18.572  66.824  1.00  0.00    -0.231 C  
HETATM    7  C   UNL     1      -9.826  16.357  67.246  1.00  0.00    -0.245 C  
HETATM    8  C   UNL     1     -10.909  15.856  66.297  1.00  0.00    -0.200 C  
HETATM    9  C   UNL     1     -11.037  14.311  65.926  1.00  0.00    -0.310 C  
HETATM   10  C   UNL     1     -10.958  16.784  65.074  1.00  0.00    -0.118 C  
HETATM   11  C   UNL     1      -9.797  13.775  65.211  1.00  0.00    -0.155 C  
HETATM   12  C   UNL     1      -8.968  13.061  66.271  1.00  0.00     0.080 C  
HETATM   13  C   UNL     1      -9.749  13.146  67.607  1.00  0.00    -0.213 C  
HETATM   14  C   UNL     1      -9.517  11.953  68.528  1.00  0.00    -0.151 C  
HETATM   15  C   UNL     1     -10.753  11.618  69.310  1.00  0.00    -0.144 C  
HETATM   16  C   UNL     1      -8.357  11.266  68.612  1.00  0.00    -0.146 C  
HETATM   17  C   UNL     1     -12.243  14.036  68.123  1.00  0.00    -0.191 C  
HETATM   18  C   UNL     1     -11.836  11.151  68.327  1.00  0.00    -0.260 C  
HETATM   19  C   UNL     1     -11.241  13.355  67.158  1.00  0.00    -0.325 C  
HETATM   20  C   UNL     1     -11.793  11.905  66.951  1.00  0.00    -0.177 C  
ENDROOT
BRANCH  16  21
HETATM   21  C   UNL     1      -8.156  10.133  69.502  1.00  0.00    -0.176 C  
HETATM   22  C   UNL     1      -7.327   9.091  69.362  1.00  0.00    -0.075 C  
HETATM   23  C   UNL     1      -7.279   8.044  70.469  1.00  0.00    -0.052 C  
HETATM   24  C   UNL     1      -7.574   6.645  69.929  1.00  0.00    -0.100 C  
HETATM   25  C   UNL     1      -6.662   6.314  68.745  1.00  0.00    -0.061 C  
HETATM   26  O   UNL     1      -8.945   6.537  69.541  1.00  0.00    -0.136 OA 
HETATM   27  C   UNL     1      -6.701   7.401  67.660  1.00  0.00    -0.066 C  
HETATM   28  H   UNL     1      -9.129   5.667  69.206  1.00  0.00     0.000 HD 
HETATM   29  C   UNL     1      -6.487   8.780  68.221  1.00  0.00    -0.060 C  
HETATM   30  C   UNL     1      -5.564   9.630  67.754  1.00  0.00    -0.040 C  
ENDBRANCH  16  21
TORSDOF 1
ENDMDL
MODEL       86
REMARK 921   NORMALIZED FREE ENERGY PREDICTED BY IDOCK:   -4.14 KCAL/MOL
REMARK 922        TOTAL FREE ENERGY PREDICTED BY IDOCK:   -4.86 KCAL/MOL
REMARK 923 INTER-LIGAND FREE ENERGY PREDICTED BY IDOCK:   -4.19 KCAL/MOL
REMARK 924 INTRA-LIGAND FREE ENERGY PREDICTED BY IDOCK:   -0.67 KCAL/MOL
REMARK 927      BINDING AFFINITY PREDICTED BY RF-SCORE:    0.00 PKD
ROOT
HETATM    1  C   UNL     1      -5.683   8.564  70.713  1.00  0.00    -0.032 C  
HETATM    2  C   UNL     1      -6.318   7.557  71.683  1.00  0.00    -0.039 C  
HETATM    3  C   UNL     1      -6.888   6.319  70.947  1.00  0.00    -0.063 C  
HETATM    4  C   UNL     1      -7.313   8.256  72.602  1.00  0.00    -0.141 C  
HETATM    5  C   UNL     1      -8.064   6.574  70.020  1.00  0.00    -0.121 C  
HETATM    6  C   UNL     1      -7.333   5.245  71.946  1.00  0.00    -0.087 C  
HETATM    7  C   UNL     1      -8.027   6.387  68.689  1.00  0.00    -0.106 C  
HETATM    8  C   UNL     1      -9.232   6.219  67.770  1.00  0.00    -0.115 C  
HETATM    9  C   UNL     1     -10.085   7.475  67.283  1.00  0.00    -0.300 C  
HETATM   10  C   UNL     1     -10.094   5.063  68.297  1.00  0.00    -0.170 C  
HETATM   11  C   UNL     1     -10.745   8.222  68.443  1.00  0.00    -0.072 C  
HETATM   12  C   UNL     1      -9.855   9.422  68.740  1.00  0.00    -0.172 C  
HETATM   13  C   UNL     1      -8.688   9.399  67.720  1.00  0.00    -0.116 C  
HETATM   14  C   UNL     1      -8.167  10.785  67.357  1.00  0.00    -0.116 C  
HETATM   15  C   UNL     1      -7.718  10.842  65.926  1.00  0.00    -0.118 C  
HETATM   16  C   UNL     1      -8.135  11.837  68.204  1.00  0.00    -0.150 C  
HETATM   17  C   UNL     1      -8.287   7.840  65.555  1.00  0.00    -0.151 C  
HETATM   18  C   UNL     1      -8.944  10.635  65.025  1.00  0.00    -0.218 C  
HETATM   19  C   UNL     1      -9.260   8.569  66.512  1.00  0.00    -0.239 C  
HETATM   20  C   UNL     1      -9.991   9.629  65.622  1.00  0.00    -0.321 C  
ENDROOT
BRANCH  16  21
HETATM   21  C   UNL     1      -7.628  13.150  67.837  1.00  0.00    -0.147 C  
HETATM   22  C   UNL     1      -6.660  13.868  68.416  1.00  0.00    -0.103 C  
HETATM   23  C   UNL     1      -6.287  15.215  67.808  1.00  0.00    -0.181 C  
HETATM   24  C   UNL     1      -6.408  16.345  68.831  1.00  0.00    -0.150 C  
HETATM   25  C   UNL     1      -5.616  16.016  70.100  1.00  0.00    -0.166 C  
HETATM   26  O   UNL     1      -7.779  16.584  69.153  1.00  0.00    -0.240 OA 
HETATM   27  C   UNL     1      -5.983  14.639  70.673  1.00  0.00    -0.164 C  
HETATM   28  H   UNL     1      -7.853  17.287  69.789  1.00  0.00     0.000 HD 
HETATM   29  C   UNL     1      -5.936  13.554  69.634  1.00  0.00    -0.117 C  
HETATM   30  C   UNL     1      -5.242  12.418  69.785  1.00  0.00    -0.079 C  
ENDBRANCH  16  21
TORSDOF 1
ENDMDL
MODEL       87
REMARK 921   NORMALIZED FREE ENERGY PREDICTED BY IDOCK:   -4.12 KCAL/MOL
REMARK 922        TOTAL FREE ENERGY PREDICTED BY IDOCK:   -4.83 KCAL/MOL
REMARK 923 INTER-LIGAND FREE ENERGY PREDICTED BY IDOCK:   -3.83 KCAL/MOL
REMARK 924 INTRA-LIGAND FREE ENERGY PREDICTED BY IDOCK:   -1.00 KCAL/MOL
REMARK 927      BINDING AFFINITY PREDICTED BY RF-SCORE:    0.00 PKD
ROOT
HETATM    1  C   UNL     1     -10.078  11.446  64.405  1.00  0.00    -0.341 C  
HETATM    2  C   UNL     1     -10.609  12.701  65.113  1.00  0.00    -0.324 C  
HETATM    3  C   UNL     1      -9.492  13.454  65.877  1.00  0.00    -0.044 C  
HETATM    4  C   UNL     1     -11.831  12.361  65.958  1.00  0.00    -0.459 C  
HETATM    5  C   UNL     1      -8.877  12.723  67.057  1.00  0.00    -0.213 C  
HETATM    6  C   UNL     1     -10.002  14.800  66.404  1.00  0.00    -0.291 C  
HETATM    7  C   UNL     1      -7.591  12.336  67.116  1.00  0.00    -0.118 C  
HETATM    8  C   UNL     1      -6.813  11.985  68.380  1.00  0.00    -0.072 C  
HETATM    9  C   UNL     1      -6.975  10.566  69.087  1.00  0.00    -0.080 C  
HETATM   10  C   UNL     1      -6.904  13.168  69.356  1.00  0.00     0.032 C  
HETATM   11  C   UNL     1      -8.400  10.316  69.582  1.00  0.00    -0.139 C  
HETATM   12  C   UNL     1      -9.071   9.443  68.529  1.00  0.00    -0.131 C  
HETATM   13  C   UNL     1      -8.018   9.147  67.431  1.00  0.00    -0.103 C  
HETATM   14  C   UNL     1      -8.204   7.794  66.754  1.00  0.00    -0.120 C  
HETATM   15  C   UNL     1      -6.885   7.185  66.379  1.00  0.00    -0.061 C  
HETATM   16  C   UNL     1      -9.400   7.203  66.541  1.00  0.00    -0.208 C  
HETATM   17  C   UNL     1      -5.375   9.684  67.352  1.00  0.00    -0.036 C  
HETATM   18  C   UNL     1      -6.110   6.875  67.667  1.00  0.00    -0.029 C  
HETATM   19  C   UNL     1      -6.642   9.334  68.170  1.00  0.00    -0.059 C  
HETATM   20  C   UNL     1      -6.346   7.933  68.803  1.00  0.00    -0.044 C  
ENDROOT
BRANCH  16  21
HETATM   21  C   UNL     1      -9.555   5.913  65.888  1.00  0.00     0.012 C  
HETATM   22  C   UNL     1      -9.511   4.688  66.426  1.00  0.00    -0.169 C  
HETATM   23  C   UNL     1      -9.744   3.485  65.520  1.00  0.00    -0.077 C  
HETATM   24  C   UNL     1      -8.574   2.502  65.583  1.00  0.00    -0.114 C  
HETATM   25  C   UNL     1      -8.265   2.116  67.031  1.00  0.00    -0.080 C  
HETATM   26  O   UNL     1      -7.416   3.063  64.962  1.00  0.00    -0.072 OA 
HETATM   27  C   UNL     1      -8.069   3.346  67.931  1.00  0.00    -0.082 C  
HETATM   28  H   UNL     1      -6.689   2.452  65.001  1.00  0.00     0.000 HD 
HETATM   29  C   UNL     1      -9.191   4.339  67.797  1.00  0.00    -0.178 C  
HETATM   30  C   UNL     1      -9.879   4.818  68.841  1.00  0.00    -0.230 C  
ENDBRANCH  16  21
TORSDOF 1
ENDMDL
MODEL       88
REMARK 921   NORMALIZED FREE ENERGY PREDICTED BY IDOCK:   -4.03 KCAL/MOL
REMARK 922        TOTAL FREE ENERGY PREDICTED BY IDOCK:   -4.73 KCAL/MOL
REMARK 923 INTER-LIGAND FREE ENERGY PREDICTED BY IDOCK:   -3.67 KCAL/MOL
REMARK 924 INTRA-LIGAND FREE ENERGY PREDICTED BY IDOCK:   -1.07 KCAL/MOL
REMARK 927      BINDING AFFINITY PREDICTED BY RF-SCORE:    0.00 PKD
ROOT
HETATM    1  C   UNL     1     -11.260   6.212  70.828  1.00  0.00    -0.373 C  
HETATM    2  C   UNL     1     -11.005   5.710  72.257  1.00  0.00    -0.312 C  
HETATM    3  C   UNL     1     -10.183   6.724  73.091  1.00  0.00    -0.253 C  
HETATM    4  C   UNL     1     -10.427   4.300  72.232  1.00  0.00    -0.164 C  
HETATM    5  C   UNL     1      -8.756   6.966  72.635  1.00  0.00    -0.132 C  
HETATM    6  C   UNL     1     -10.115   6.294  74.561  1.00  0.00    -0.353 C  
HETATM    7  C   UNL     1      -8.300   8.146  72.179  1.00  0.00    -0.209 C  
HETATM    8  C   UNL     1      -6.840   8.578  72.099  1.00  0.00    -0.093 C  
HETATM    9  C   UNL     1      -5.891   8.080  70.919  1.00  0.00    -0.033 C  
HETATM   10  C   UNL     1      -6.209   8.434  73.492  1.00  0.00    -0.126 C  
HETATM   11  C   UNL     1      -5.714   6.562  70.909  1.00  0.00    -0.027 C  
HETATM   12  C   UNL     1      -6.673   6.027  69.853  1.00  0.00    -0.052 C  
HETATM   13  C   UNL     1      -7.386   7.245  69.213  1.00  0.00    -0.087 C  
HETATM   14  C   UNL     1      -7.764   7.032  67.751  1.00  0.00    -0.112 C  
HETATM   15  C   UNL     1      -7.661   8.309  66.969  1.00  0.00    -0.092 C  
HETATM   16  C   UNL     1      -8.121   5.844  67.218  1.00  0.00    -0.102 C  
HETATM   17  C   UNL     1      -6.941   9.889  69.511  1.00  0.00    -0.070 C  
HETATM   18  C   UNL     1      -6.187   8.738  66.935  1.00  0.00    -0.059 C  
HETATM   19  C   UNL     1      -6.398   8.439  69.474  1.00  0.00    -0.037 C  
HETATM   20  C   UNL     1      -5.412   8.404  68.259  1.00  0.00    -0.034 C  
ENDROOT
BRANCH  16  21
HETATM   21  C   UNL     1      -8.483   5.665  65.820  1.00  0.00    -0.140 C  
HETATM   22  C   UNL     1      -7.685   5.592  64.749  1.00  0.00    -0.101 C  
HETATM   23  C   UNL     1      -8.319   5.362  63.381  1.00  0.00    -0.098 C  
HETATM   24  C   UNL     1      -7.932   6.462  62.392  1.00  0.00    -0.105 C  
HETATM   25  C   UNL     1      -6.412   6.630  62.332  1.00  0.00    -0.039 C  
HETATM   26  O   UNL     1      -8.552   7.698  62.751  1.00  0.00    -0.390 OA 
HETATM   27  C   UNL     1      -5.793   6.825  63.725  1.00  0.00    -0.031 C  
HETATM   28  H   UNL     1      -8.312   8.381  62.136  1.00  0.00     0.000 HD 
HETATM   29  C   UNL     1      -6.247   5.779  64.705  1.00  0.00    -0.029 C  
HETATM   30  C   UNL     1      -5.403   5.039  65.436  1.00  0.00    -0.013 C  
ENDBRANCH  16  21
TORSDOF 1
ENDMDL
MODEL       89
REMARK 921   NORMALIZED FREE ENERGY PREDICTED BY IDOCK:   -4.00 KCAL/MOL
REMARK 922        TOTAL FREE ENERGY PREDICTED BY IDOCK:   -4.70 KCAL/MOL
REMARK 923 INTER-LIGAND FREE ENERGY PREDICTED BY IDOCK:   -3.67 KCAL/MOL
REMARK 924 INTRA-LIGAND FREE ENERGY PREDICTED BY IDOCK:   -1.03 KCAL/MOL
REMARK 927      BINDING AFFINITY PREDICTED BY RF-SCORE:    0.00 PKD
ROOT
HETATM    1  C   UNL     1     -10.178  16.170  65.846  1.00  0.00    -0.381 C  
HETATM    2  C   UNL     1     -10.169  17.537  66.548  1.00  0.00    -0.342 C  
HETATM    3  C   UNL     1      -8.731  18.063  66.777  1.00  0.00    -0.269 C  
HETATM    4  C   UNL     1     -11.033  17.498  67.803  1.00  0.00    -0.126 C  
HETATM    5  C   UNL     1      -7.870  17.264  67.739  1.00  0.00    -0.194 C  
HETATM    6  C   UNL     1      -8.753  19.507  67.292  1.00  0.00    -0.348 C  
HETATM    7  C   UNL     1      -6.748  16.614  67.384  1.00  0.00    -0.199 C  
HETATM    8  C   UNL     1      -5.638  16.156  68.323  1.00  0.00    -0.107 C  
HETATM    9  C   UNL     1      -5.786  14.832  69.199  1.00  0.00    -0.095 C  
HETATM   10  C   UNL     1      -5.142  17.367  69.126  1.00  0.00    -0.153 C  
HETATM   11  C   UNL     1      -6.948  14.912  70.190  1.00  0.00    -0.012 C  
HETATM   12  C   UNL     1      -8.108  14.161  69.549  1.00  0.00     0.458 C  
HETATM   13  C   UNL     1      -7.609  13.605  68.191  1.00  0.00    -0.137 C  
HETATM   14  C   UNL     1      -8.278  12.297  67.783  1.00  0.00    -0.161 C  
HETATM   15  C   UNL     1      -7.327  11.407  67.039  1.00  0.00    -0.144 C  
HETATM   16  C   UNL     1      -9.555  11.967  68.075  1.00  0.00    -0.199 C  
HETATM   17  C   UNL     1      -5.132  13.562  67.123  1.00  0.00     0.622 C  
HETATM   18  C   UNL     1      -6.202  10.989  67.997  1.00  0.00    -0.053 C  
HETATM   19  C   UNL     1      -6.048  13.522  68.370  1.00  0.00    -0.094 C  
HETATM   20  C   UNL     1      -5.803  12.117  69.014  1.00  0.00    -0.065 C  
ENDROOT
BRANCH  16  21
HETATM   21  C   UNL     1     -10.175  10.715  67.671  1.00  0.00    -0.229 C  
HETATM   22  C   UNL     1     -10.004   9.490  68.182  1.00  0.00    -0.191 C  
HETATM   23  C   UNL     1     -10.811   8.337  67.596  1.00  0.00    -0.083 C  
HETATM   24  C   UNL     1      -9.902   7.209  67.108  1.00  0.00    -0.181 C  
HETATM   25  C   UNL     1      -8.937   6.770  68.213  1.00  0.00    -0.123 C  
HETATM   26  O   UNL     1      -9.172   7.619  65.951  1.00  0.00    -0.349 OA 
HETATM   27  C   UNL     1      -8.163   7.955  68.812  1.00  0.00    -0.127 C  
HETATM   28  H   UNL     1      -8.608   6.918  65.647  1.00  0.00     0.000 HD 
HETATM   29  C   UNL     1      -9.067   9.087  69.213  1.00  0.00    -0.145 C  
HETATM   30  C   UNL     1      -9.056   9.642  70.432  1.00  0.00    -0.245 C  
ENDBRANCH  16  21
TORSDOF 1
ENDMDL
MODEL       90
REMARK 921   NORMALIZED FREE ENERGY PREDICTED BY IDOCK:   -3.98 KCAL/MOL
REMARK 922        TOTAL FREE ENERGY PREDICTED BY IDOCK:   -4.68 KCAL/MOL
REMARK 923 INTER-LIGAND FREE ENERGY PREDICTED BY IDOCK:   -3.85 KCAL/MOL
REMARK 924 INTRA-LIGAND FREE ENERGY PREDICTED BY IDOCK:   -0.83 KCAL/MOL
REMARK 927      BINDING AFFINITY PREDICTED BY RF-SCORE:    0.00 PKD
ROOT
HETATM    1  C   UNL     1     -10.796   6.521  68.434  1.00  0.00    -0.357 C  
HETATM    2  C   UNL     1     -10.680   7.195  69.809  1.00  0.00    -0.257 C  
HETATM    3  C   UNL     1     -10.953   8.718  69.735  1.00  0.00    -0.146 C  
HETATM    4  C   UNL     1      -9.361   6.824  70.476  1.00  0.00    -0.162 C  
HETATM    5  C   UNL     1      -9.948   9.541  68.949  1.00  0.00    -0.187 C  
HETATM    6  C   UNL     1     -11.029   9.329  71.139  1.00  0.00    -0.409 C  
HETATM    7  C   UNL     1     -10.243  10.216  67.824  1.00  0.00    -0.232 C  
HETATM    8  C   UNL     1      -9.436  11.363  67.224  1.00  0.00    -0.176 C  
HETATM    9  C   UNL     1      -8.114  11.093  66.376  1.00  0.00    -0.159 C  
HETATM   10  C   UNL     1      -9.266  12.453  68.292  1.00  0.00    -0.189 C  
HETATM   11  C   UNL     1      -7.021  10.408  67.196  1.00  0.00    -0.088 C  
HETATM   12  C   UNL     1      -7.090   8.926  66.848  1.00  0.00    -0.082 C  
HETATM   13  C   UNL     1      -8.206   8.750  65.787  1.00  0.00    -0.121 C  
HETATM   14  C   UNL     1      -7.948   7.603  64.816  1.00  0.00    -0.137 C  
HETATM   15  C   UNL     1      -8.471   7.920  63.446  1.00  0.00     0.182 C  
HETATM   16  C   UNL     1      -7.310   6.457  65.137  1.00  0.00    -0.077 C  
HETATM   17  C   UNL     1      -9.640  10.591  64.433  1.00  0.00    -0.357 C  
HETATM   18  C   UNL     1      -7.666   9.099  62.881  1.00  0.00    -0.116 C  
HETATM   19  C   UNL     1      -8.317  10.169  65.120  1.00  0.00    -0.163 C  
HETATM   20  C   UNL     1      -7.251  10.148  63.974  1.00  0.00    -0.106 C  
ENDROOT
BRANCH  16  21
HETATM   21  C   UNL     1      -7.081   5.372  64.195  1.00  0.00    -0.049 C  
HETATM   22  C   UNL     1      -7.839   4.297  63.951  1.00  0.00    -0.084 C  
HETATM   23  C   UNL     1      -7.389   3.317  62.874  1.00  0.00    -0.053 C  
HETATM   24  C   UNL     1      -7.256   1.898  63.428  1.00  0.00    -0.040 C  
HETATM   25  C   UNL     1      -8.542   1.468  64.136  1.00  0.00    -0.082 C  
HETATM   26  O   UNL     1      -6.146   1.814  64.324  1.00  0.00    -0.013 OA 
HETATM   27  C   UNL     1      -8.994   2.489  65.192  1.00  0.00    -0.133 C  
HETATM   28  H   UNL     1      -6.063   0.932  64.668  1.00  0.00     0.000 HD 
HETATM   29  C   UNL     1      -9.044   3.891  64.649  1.00  0.00    -0.137 C  
HETATM   30  C   UNL     1     -10.121   4.680  64.746  1.00  0.00     0.080 C  
ENDBRANCH  16  21
TORSDOF 1
ENDMDL
MODEL       91
REMARK 921   NORMALIZED FREE ENERGY PREDICTED BY IDOCK:   -3.97 KCAL/MOL
REMARK 922        TOTAL FREE ENERGY PREDICTED BY IDOCK:   -4.67 KCAL/MOL
REMARK 923 INTER-LIGAND FREE ENERGY PREDICTED BY IDOCK:   -3.84 KCAL/MOL
REMARK 924 INTRA-LIGAND FREE ENERGY PREDICTED BY IDOCK:   -0.83 KCAL/MOL
REMARK 927      BINDING AFFINITY PREDICTED BY RF-SCORE:    0.00 PKD
ROOT
HETATM    1  C   UNL     1      -9.044   8.924  68.616  1.00  0.00    -0.137 C  
HETATM    2  C   UNL     1      -8.013   9.931  68.085  1.00  0.00    -0.100 C  
HETATM    3  C   UNL     1      -7.828   9.821  66.552  1.00  0.00    -0.109 C  
HETATM    4  C   UNL     1      -6.718   9.839  68.884  1.00  0.00    -0.050 C  
HETATM    5  C   UNL     1      -7.222   8.526  66.041  1.00  0.00    -0.077 C  
HETATM    6  C   UNL     1      -6.950  10.962  66.024  1.00  0.00    -0.066 C  
HETATM    7  C   UNL     1      -7.870   7.653  65.249  1.00  0.00    -0.122 C  
HETATM    8  C   UNL     1      -7.227   6.578  64.380  1.00  0.00    -0.069 C  
HETATM    9  C   UNL     1      -6.721   5.200  65.002  1.00  0.00    -0.048 C  
HETATM   10  C   UNL     1      -6.198   7.245  63.456  1.00  0.00    -0.048 C  
HETATM   11  C   UNL     1      -5.612   5.396  66.037  1.00  0.00    -0.013 C  
HETATM   12  C   UNL     1      -6.284   5.328  67.402  1.00  0.00    -0.035 C  
HETATM   13  C   UNL     1      -7.790   5.051  67.165  1.00  0.00    -0.096 C  
HETATM   14  C   UNL     1      -8.446   4.245  68.282  1.00  0.00    -0.103 C  
HETATM   15  C   UNL     1      -9.509   3.333  67.744  1.00  0.00    -0.217 C  
HETATM   16  C   UNL     1      -8.099   4.321  69.585  1.00  0.00    -0.062 C  
HETATM   17  C   UNL     1      -9.123   4.442  64.900  1.00  0.00    -0.151 C  
HETATM   18  C   UNL     1      -8.838   2.283  66.846  1.00  0.00    -0.146 C  
HETATM   19  C   UNL     1      -7.829   4.371  65.748  1.00  0.00    -0.094 C  
HETATM   20  C   UNL     1      -7.615   2.848  66.039  1.00  0.00    -0.077 C  
ENDROOT
BRANCH  16  21
HETATM   21  C   UNL     1      -8.743   3.547  70.635  1.00  0.00    -0.126 C  
HETATM   22  C   UNL     1      -9.728   3.911  71.464  1.00  0.00    -0.247 C  
HETATM   23  C   UNL     1     -10.257   2.887  72.462  1.00  0.00    -0.222 C  
HETATM   24  C   UNL     1     -10.166   3.405  73.897  1.00  0.00    -0.147 C  
HETATM   25  C   UNL     1     -10.836   4.775  74.025  1.00  0.00    -0.322 C  
HETATM   26  O   UNL     1      -8.802   3.482  74.315  1.00  0.00    -0.087 OA 
HETATM   27  C   UNL     1     -10.311   5.778  72.986  1.00  0.00    -0.229 C  
HETATM   28  H   UNL     1      -8.745   3.803  75.207  1.00  0.00     0.000 HD 
HETATM   29  C   UNL     1     -10.336   5.222  71.589  1.00  0.00    -0.281 C  
HETATM   30  C   UNL     1     -10.916   5.848  70.557  1.00  0.00    -0.362 C  
ENDBRANCH  16  21
TORSDOF 1
ENDMDL
MODEL       92
REMARK 921   NORMALIZED FREE ENERGY PREDICTED BY IDOCK:   -3.93 KCAL/MOL
REMARK 922        TOTAL FREE ENERGY PREDICTED BY IDOCK:   -4.63 KCAL/MOL
REMARK 923 INTER-LIGAND FREE ENERGY PREDICTED BY IDOCK:   -4.13 KCAL/MOL
REMARK 924 INTRA-LIGAND FREE ENERGY PREDICTED BY IDOCK:   -0.50 KCAL/MOL
REMARK 927      BINDING AFFINITY PREDICTED BY RF-SCORE:    0.00 PKD
ROOT
HETATM    1  C   UNL     1     -11.090  10.727  69.201  1.00  0.00    -0.304 C  
HETATM    2  C   UNL     1     -11.007   9.490  68.294  1.00  0.00    -0.131 C  
HETATM    3  C   UNL     1      -9.726   8.662  68.557  1.00  0.00    -0.174 C  
HETATM    4  C   UNL     1     -11.216   9.882  66.836  1.00  0.00     0.349 C  
HETATM    5  C   UNL     1      -8.410   9.335  68.210  1.00  0.00    -0.120 C  
HETATM    6  C   UNL     1      -9.764   7.336  67.788  1.00  0.00    -0.167 C  
HETATM    7  C   UNL     1      -7.463   9.648  69.113  1.00  0.00    -0.079 C  
HETATM    8  C   UNL     1      -5.995   9.931  68.816  1.00  0.00    -0.038 C  
HETATM    9  C   UNL     1      -5.519  11.343  68.250  1.00  0.00    -0.042 C  
HETATM   10  C   UNL     1      -5.411   8.737  68.046  1.00  0.00    -0.035 C  
HETATM   11  C   UNL     1      -6.126  11.663  66.884  1.00  0.00    -0.148 C  
HETATM   12  C   UNL     1      -7.304  12.592  67.147  1.00  0.00    -0.066 C  
HETATM   13  C   UNL     1      -7.362  12.849  68.674  1.00  0.00    -0.099 C  
HETATM   14  C   UNL     1      -7.910  14.224  69.042  1.00  0.00    -0.045 C  
HETATM   15  C   UNL     1      -7.245  14.765  70.273  1.00  0.00     0.269 C  
HETATM   16  C   UNL     1      -8.855  14.884  68.337  1.00  0.00    -0.178 C  
HETATM   17  C   UNL     1      -5.632  12.168  70.629  1.00  0.00    -0.157 C  
HETATM   18  C   UNL     1      -5.762  15.006  69.956  1.00  0.00    -0.128 C  
HETATM   19  C   UNL     1      -5.891  12.572  69.157  1.00  0.00    -0.080 C  
HETATM   20  C   UNL     1      -5.155  13.941  68.974  1.00  0.00    -0.074 C  
ENDROOT
BRANCH  16  21
HETATM   21  C   UNL     1      -9.367  16.193  68.710  1.00  0.00    -0.229 C  
HETATM   22  C   UNL     1      -9.741  17.205  67.919  1.00  0.00    -0.270 C  
HETATM   23  C   UNL     1     -10.285  18.474  68.565  1.00  0.00    -0.389 C  
HETATM   24  C   UNL     1      -9.488  19.707  68.138  1.00  0.00    -0.360 C  
HETATM   25  C   UNL     1      -9.400  19.797  66.612  1.00  0.00    -0.483 C  
HETATM   26  O   UNL     1      -8.178  19.677  68.707  1.00  0.00    -0.336 OA 
HETATM   27  C   UNL     1      -8.883  18.494  65.982  1.00  0.00     0.018 C  
HETATM   28  H   UNL     1      -7.682  20.443  68.442  1.00  0.00     0.000 HD 
HETATM   29  C   UNL     1      -9.627  17.284  66.475  1.00  0.00    -0.286 C  
HETATM   30  C   UNL     1     -10.191  16.383  65.659  1.00  0.00    -0.349 C  
ENDBRANCH  16  21
TORSDOF 1
ENDMDL
MODEL       93
REMARK 921   NORMALIZED FREE ENERGY PREDICTED BY IDOCK:   -3.91 KCAL/MOL
REMARK 922        TOTAL FREE ENERGY PREDICTED BY IDOCK:   -4.60 KCAL/MOL
REMARK 923 INTER-LIGAND FREE ENERGY PREDICTED BY IDOCK:   -3.81 KCAL/MOL
REMARK 924 INTRA-LIGAND FREE ENERGY PREDICTED BY IDOCK:   -0.79 KCAL/MOL
REMARK 927      BINDING AFFINITY PREDICTED BY RF-SCORE:    0.00 PKD
ROOT
HETATM    1  C   UNL     1      -6.177  12.722  69.755  1.00  0.00    -0.108 C  
HETATM    2  C   UNL     1      -6.207  13.751  68.615  1.00  0.00    -0.089 C  
HETATM    3  C   UNL     1      -7.645  14.236  68.307  1.00  0.00    -0.130 C  
HETATM    4  C   UNL     1      -5.446  13.226  67.402  1.00  0.00     0.114 C  
HETATM    5  C   UNL     1      -8.599  13.194  67.750  1.00  0.00    -0.188 C  
HETATM    6  C   UNL     1      -7.627  15.401  67.310  1.00  0.00    -0.246 C  
HETATM    7  C   UNL     1      -9.706  12.771  68.386  1.00  0.00    -0.186 C  
HETATM    8  C   UNL     1     -10.898  12.068  67.746  1.00  0.00    -0.256 C  
HETATM    9  C   UNL     1     -10.853  10.515  67.391  1.00  0.00    -0.349 C  
HETATM   10  C   UNL     1     -11.424  12.942  66.598  1.00  0.00    -0.393 C  
HETATM   11  C   UNL     1      -9.772  10.178  66.364  1.00  0.00    -0.259 C  
HETATM   12  C   UNL     1      -8.584   9.644  67.154  1.00  0.00    -0.133 C  
HETATM   13  C   UNL     1      -8.988   9.630  68.650  1.00  0.00    -0.129 C  
HETATM   14  C   UNL     1      -8.323   8.518  69.452  1.00  0.00    -0.119 C  
HETATM   15  C   UNL     1      -9.233   7.999  70.526  1.00  0.00    -0.154 C  
HETATM   16  C   UNL     1      -7.081   8.041  69.215  1.00  0.00    -0.068 C  
HETATM   17  C   UNL     1     -11.374  10.096  69.822  1.00  0.00    -0.312 C  
HETATM   18  C   UNL     1     -10.441   7.329  69.854  1.00  0.00    -0.236 C  
HETATM   19  C   UNL     1     -10.560   9.571  68.614  1.00  0.00    -0.239 C  
HETATM   20  C   UNL     1     -10.891   8.043  68.531  1.00  0.00     0.042 C  
ENDROOT
BRANCH  16  21
HETATM   21  C   UNL     1      -6.463   6.982  69.998  1.00  0.00    -0.036 C  
HETATM   22  C   UNL     1      -6.340   5.682  69.703  1.00  0.00    -0.037 C  
HETATM   23  C   UNL     1      -5.608   4.778  70.688  1.00  0.00    -0.015 C  
HETATM   24  C   UNL     1      -6.483   3.604  71.128  1.00  0.00    -0.022 C  
HETATM   25  C   UNL     1      -7.037   2.853  69.915  1.00  0.00    -0.040 C  
HETATM   26  O   UNL     1      -7.554   4.062  71.956  1.00  0.00    -0.063 OA 
HETATM   27  C   UNL     1      -7.739   3.791  68.921  1.00  0.00    -0.053 C  
HETATM   28  H   UNL     1      -8.098   3.332  72.230  1.00  0.00     0.000 HD 
HETATM   29  C   UNL     1      -6.893   4.981  68.560  1.00  0.00    -0.055 C  
HETATM   30  C   UNL     1      -6.620   5.335  67.298  1.00  0.00    -0.053 C  
ENDBRANCH  16  21
TORSDOF 1
ENDMDL
MODEL       94
REMARK 921   NORMALIZED FREE ENERGY PREDICTED BY IDOCK:   -3.90 KCAL/MOL
REMARK 922        TOTAL FREE ENERGY PREDICTED BY IDOCK:   -4.60 KCAL/MOL
REMARK 923 INTER-LIGAND FREE ENERGY PREDICTED BY IDOCK:   -3.86 KCAL/MOL
REMARK 924 INTRA-LIGAND FREE ENERGY PREDICTED BY IDOCK:   -0.74 KCAL/MOL
REMARK 927      BINDING AFFINITY PREDICTED BY RF-SCORE:    0.00 PKD
ROOT
HETATM    1  C   UNL     1     -12.077  11.705  68.315  1.00  0.00    -0.067 C  
HETATM    2  C   UNL     1     -11.902  12.817  67.271  1.00  0.00    -0.414 C  
HETATM    3  C   UNL     1     -11.573  12.251  65.868  1.00  0.00    -0.450 C  
HETATM    4  C   UNL     1     -10.919  13.869  67.771  1.00  0.00    -0.271 C  
HETATM    5  C   UNL     1     -10.237  11.542  65.728  1.00  0.00    -0.293 C  
HETATM    6  C   UNL     1     -11.601  13.360  64.810  1.00  0.00    -0.367 C  
HETATM    7  C   UNL     1     -10.106  10.235  65.437  1.00  0.00    -0.354 C  
HETATM    8  C   UNL     1      -8.856   9.557  64.885  1.00  0.00    -0.240 C  
HETATM    9  C   UNL     1      -7.631   9.178  65.831  1.00  0.00    -0.095 C  
HETATM   10  C   UNL     1      -8.434  10.282  63.598  1.00  0.00    -0.183 C  
HETATM   11  C   UNL     1      -6.993  10.404  66.485  1.00  0.00    -0.112 C  
HETATM   12  C   UNL     1      -7.565  10.483  67.895  1.00  0.00    -0.092 C  
HETATM   13  C   UNL     1      -8.513   9.271  68.080  1.00  0.00    -0.120 C  
HETATM   14  C   UNL     1      -8.578   8.759  69.515  1.00  0.00    -0.130 C  
HETATM   15  C   UNL     1      -8.756   7.269  69.555  1.00  0.00    -0.134 C  
HETATM   16  C   UNL     1      -8.464   9.539  70.611  1.00  0.00    -0.166 C  
HETATM   17  C   UNL     1      -8.960   7.139  66.487  1.00  0.00    -0.172 C  
HETATM   18  C   UNL     1      -7.500   6.615  68.961  1.00  0.00    -0.095 C  
HETATM   19  C   UNL     1      -7.996   8.224  67.026  1.00  0.00    -0.100 C  
HETATM   20  C   UNL     1      -6.873   7.435  67.779  1.00  0.00    -0.074 C  
ENDROOT
BRANCH  16  21
HETATM   21  C   UNL     1      -8.533   9.029  71.972  1.00  0.00     0.190 C  
HETATM   22  C   UNL     1      -7.540   8.826  72.844  1.00  0.00     0.165 C  
HETATM   23  C   UNL     1      -7.886   8.313  74.238  1.00  0.00    -0.290 C  
HETATM   24  C   UNL     1      -7.139   7.019  74.560  1.00  0.00    -0.101 C  
HETATM   25  C   UNL     1      -5.634   7.190  74.337  1.00  0.00    -0.062 C  
HETATM   26  O   UNL     1      -7.637   5.942  73.765  1.00  0.00    -0.096 OA 
HETATM   27  C   UNL     1      -5.313   7.741  72.939  1.00  0.00    -0.036 C  
HETATM   28  H   UNL     1      -7.173   5.138  73.966  1.00  0.00     0.000 HD 
HETATM   29  C   UNL     1      -6.116   8.969  72.608  1.00  0.00     0.025 C  
HETATM   30  C   UNL     1      -5.567  10.116  72.189  1.00  0.00     0.269 C  
ENDBRANCH  16  21
TORSDOF 1
ENDMDL
MODEL       95
REMARK 921   NORMALIZED FREE ENERGY PREDICTED BY IDOCK:   -3.88 KCAL/MOL
REMARK 922        TOTAL FREE ENERGY PREDICTED BY IDOCK:   -4.58 KCAL/MOL
REMARK 923 INTER-LIGAND FREE ENERGY PREDICTED BY IDOCK:   -4.64 KCAL/MOL
REMARK 924 INTRA-LIGAND FREE ENERGY PREDICTED BY IDOCK:    0.06 KCAL/MOL
REMARK 927      BINDING AFFINITY PREDICTED BY RF-SCORE:    0.00 PKD
ROOT
HETATM    1  C   UNL     1      -7.132  10.354  70.318  1.00  0.00    -0.060 C  
HETATM    2  C   UNL     1      -7.110   8.952  70.946  1.00  0.00    -0.085 C  
HETATM    3  C   UNL     1      -6.516   7.894  69.985  1.00  0.00    -0.033 C  
HETATM    4  C   UNL     1      -8.483   8.596  71.504  1.00  0.00    -0.238 C  
HETATM    5  C   UNL     1      -7.314   7.609  68.725  1.00  0.00    -0.091 C  
HETATM    6  C   UNL     1      -6.321   6.553  70.702  1.00  0.00    -0.040 C  
HETATM    7  C   UNL     1      -6.873   7.862  67.481  1.00  0.00    -0.070 C  
HETATM    8  C   UNL     1      -7.409   7.247  66.193  1.00  0.00    -0.075 C  
HETATM    9  C   UNL     1      -8.752   7.775  65.517  1.00  0.00    -0.102 C  
HETATM   10  C   UNL     1      -7.349   5.717  66.318  1.00  0.00    -0.078 C  
HETATM   11  C   UNL     1      -9.974   7.595  66.419  1.00  0.00    -0.142 C  
HETATM   12  C   UNL     1     -10.222   8.946  67.077  1.00  0.00    -0.345 C  
HETATM   13  C   UNL     1      -9.163   9.934  66.526  1.00  0.00    -0.190 C  
HETATM   14  C   UNL     1      -9.653  11.375  66.449  1.00  0.00    -0.228 C  
HETATM   15  C   UNL     1      -9.064  12.091  65.269  1.00  0.00     0.266 C  
HETATM   16  C   UNL     1     -10.526  11.934  67.317  1.00  0.00    -0.248 C  
HETATM   17  C   UNL     1      -7.356   9.635  64.544  1.00  0.00    -0.125 C  
HETATM   18  C   UNL     1      -9.593  11.429  63.988  1.00  0.00    -0.224 C  
HETATM   19  C   UNL     1      -8.743   9.304  65.147  1.00  0.00    -0.216 C  
HETATM   20  C   UNL     1      -9.781   9.876  64.124  1.00  0.00    -0.071 C  
ENDROOT
BRANCH  16  21
HETATM   21  C   UNL     1     -10.976  13.314  67.228  1.00  0.00    -0.284 C  
HETATM   22  C   UNL     1     -10.284  14.439  67.443  1.00  0.00    -0.247 C  
HETATM   23  C   UNL     1     -10.987  15.777  67.244  1.00  0.00    -0.259 C  
HETATM   24  C   UNL     1     -10.919  16.639  68.505  1.00  0.00    -0.339 C  
HETATM   25  C   UNL     1      -9.473  16.782  68.989  1.00  0.00    -0.217 C  
HETATM   26  O   UNL     1     -11.732  16.079  69.538  1.00  0.00    -0.325 OA 
HETATM   27  C   UNL     1      -8.776  15.422  69.147  1.00  0.00    -0.242 C  
HETATM   28  H   UNL     1     -11.690  16.614  70.321  1.00  0.00     0.000 HD 
HETATM   29  C   UNL     1      -8.921  14.557  67.926  1.00  0.00    -0.187 C  
HETATM   30  C   UNL     1      -7.883  13.990  67.297  1.00  0.00    -0.143 C  
ENDBRANCH  16  21
TORSDOF 1
ENDMDL
MODEL       96
REMARK 921   NORMALIZED FREE ENERGY PREDICTED BY IDOCK:   -3.81 KCAL/MOL
REMARK 922        TOTAL FREE ENERGY PREDICTED BY IDOCK:   -4.50 KCAL/MOL
REMARK 923 INTER-LIGAND FREE ENERGY PREDICTED BY IDOCK:   -3.87 KCAL/MOL
REMARK 924 INTRA-LIGAND FREE ENERGY PREDICTED BY IDOCK:   -0.63 KCAL/MOL
REMARK 927      BINDING AFFINITY PREDICTED BY RF-SCORE:    0.00 PKD
ROOT
HETATM    1  C   UNL     1      -9.310   3.881  66.305  1.00  0.00    -0.186 C  
HETATM    2  C   UNL     1      -9.797   3.786  64.851  1.00  0.00    -0.183 C  
HETATM    3  C   UNL     1      -8.723   4.270  63.846  1.00  0.00    -0.125 C  
HETATM    4  C   UNL     1     -11.154   4.464  64.698  1.00  0.00     0.123 C  
HETATM    5  C   UNL     1      -8.360   5.742  63.909  1.00  0.00    -0.027 C  
HETATM    6  C   UNL     1      -9.155   3.979  62.403  1.00  0.00    -0.104 C  
HETATM    7  C   UNL     1      -7.143   6.204  64.247  1.00  0.00    -0.053 C  
HETATM    8  C   UNL     1      -6.590   7.592  63.942  1.00  0.00    -0.053 C  
HETATM    9  C   UNL     1      -6.999   8.858  64.819  1.00  0.00    -0.076 C  
HETATM   10  C   UNL     1      -6.688   7.838  62.430  1.00  0.00    -0.080 C  
HETATM   11  C   UNL     1      -8.497   9.156  64.757  1.00  0.00    -0.194 C  
HETATM   12  C   UNL     1      -9.104   8.561  66.021  1.00  0.00    -0.246 C  
HETATM   13  C   UNL     1      -7.947   7.946  66.848  1.00  0.00    -0.108 C  
HETATM   14  C   UNL     1      -8.181   7.991  68.354  1.00  0.00    -0.123 C  
HETATM   15  C   UNL     1      -6.895   8.193  69.100  1.00  0.00    -0.055 C  
HETATM   16  C   UNL     1      -9.392   7.888  68.943  1.00  0.00    -0.150 C  
HETATM   17  C   UNL     1      -5.276   8.076  66.485  1.00  0.00    -0.025 C  
HETATM   18  C   UNL     1      -6.344   9.582  68.748  1.00  0.00    -0.047 C  
HETATM   19  C   UNL     1      -6.675   8.727  66.352  1.00  0.00    -0.070 C  
HETATM   20  C   UNL     1      -6.620  10.001  67.260  1.00  0.00    -0.069 C  
ENDROOT
BRANCH  16  21
HETATM   21  C   UNL     1      -9.591   7.927  70.383  1.00  0.00    -0.171 C  
HETATM   22  C   UNL     1      -9.441   6.945  71.280  1.00  0.00    -0.165 C  
HETATM   23  C   UNL     1      -9.679   7.259  72.752  1.00  0.00    -0.203 C  
HETATM   24  C   UNL     1     -10.738   6.338  73.358  1.00  0.00    -0.259 C  
HETATM   25  C   UNL     1     -10.392   4.869  73.102  1.00  0.00    -0.235 C  
HETATM   26  O   UNL     1     -12.028   6.642  72.825  1.00  0.00    -0.483 OA 
HETATM   27  C   UNL     1     -10.123   4.586  71.616  1.00  0.00    -0.249 C  
HETATM   28  H   UNL     1     -12.687   6.069  73.201  1.00  0.00     0.000 HD 
HETATM   29  C   UNL     1      -9.137   5.551  71.018  1.00  0.00    -0.163 C  
HETATM   30  C   UNL     1      -8.041   5.167  70.351  1.00  0.00    -0.090 C  
ENDBRANCH  16  21
TORSDOF 1
ENDMDL
MODEL       97
REMARK 921   NORMALIZED FREE ENERGY PREDICTED BY IDOCK:   -3.79 KCAL/MOL
REMARK 922        TOTAL FREE ENERGY PREDICTED BY IDOCK:   -4.48 KCAL/MOL
REMARK 923 INTER-LIGAND FREE ENERGY PREDICTED BY IDOCK:   -3.92 KCAL/MOL
REMARK 924 INTRA-LIGAND FREE ENERGY PREDICTED BY IDOCK:   -0.56 KCAL/MOL
REMARK 927      BINDING AFFINITY PREDICTED BY RF-SCORE:    0.00 PKD
ROOT
HETATM    1  C   UNL     1     -10.983   4.199  65.211  1.00  0.00     0.188 C  
HETATM    2  C   UNL     1     -10.721   3.462  63.889  1.00  0.00    -0.221 C  
HETATM    3  C   UNL     1      -9.277   2.910  63.808  1.00  0.00    -0.103 C  
HETATM    4  C   UNL     1     -11.130   4.330  62.704  1.00  0.00     0.307 C  
HETATM    5  C   UNL     1      -8.165   3.943  63.762  1.00  0.00    -0.091 C  
HETATM    6  C   UNL     1      -9.103   2.013  62.576  1.00  0.00    -0.076 C  
HETATM    7  C   UNL     1      -7.231   4.088  64.719  1.00  0.00    -0.067 C  
HETATM    8  C   UNL     1      -5.885   4.787  64.565  1.00  0.00    -0.017 C  
HETATM    9  C   UNL     1      -5.766   6.376  64.607  1.00  0.00    -0.022 C  
HETATM   10  C   UNL     1      -5.133   4.149  63.388  1.00  0.00    -0.005 C  
HETATM   11  C   UNL     1      -6.541   7.053  63.476  1.00  0.00    -0.044 C  
HETATM   12  C   UNL     1      -7.860   7.516  64.080  1.00  0.00    -0.130 C  
HETATM   13  C   UNL     1      -7.840   7.142  65.584  1.00  0.00    -0.112 C  
HETATM   14  C   UNL     1      -8.630   8.105  66.464  1.00  0.00    -0.146 C  
HETATM   15  C   UNL     1      -7.990   8.263  67.812  1.00  0.00    -0.122 C  
HETATM   16  C   UNL     1      -9.748   8.754  66.075  1.00  0.00    -0.276 C  
HETATM   17  C   UNL     1      -5.846   6.167  67.118  1.00  0.00    -0.017 C  
HETATM   18  C   UNL     1      -6.623   8.937  67.623  1.00  0.00    -0.061 C  
HETATM   19  C   UNL     1      -6.308   7.040  65.925  1.00  0.00    -0.046 C  
HETATM   20  C   UNL     1      -5.893   8.501  66.303  1.00  0.00    -0.044 C  
ENDROOT
BRANCH  16  21
HETATM   21  C   UNL     1     -10.490   9.665  66.933  1.00  0.00    -0.282 C  
HETATM   22  C   UNL     1     -10.826  10.941  66.712  1.00  0.00    -0.283 C  
HETATM   23  C   UNL     1     -11.648  11.672  67.767  1.00  0.00    -0.359 C  
HETATM   24  C   UNL     1     -10.948  12.948  68.237  1.00  0.00    -0.256 C  
HETATM   25  C   UNL     1     -10.572  13.833  67.046  1.00  0.00    -0.278 C  
HETATM   26  O   UNL     1      -9.784  12.628  69.002  1.00  0.00    -0.404 OA 
HETATM   27  C   UNL     1      -9.776  13.064  65.980  1.00  0.00    -0.223 C  
HETATM   28  H   UNL     1      -9.350  13.420  69.294  1.00  0.00     0.000 HD 
HETATM   29  C   UNL     1     -10.440  11.773  65.588  1.00  0.00    -0.308 C  
HETATM   30  C   UNL     1     -10.709  11.439  64.319  1.00  0.00    -0.420 C  
ENDBRANCH  16  21
TORSDOF 1
ENDMDL
MODEL       98
REMARK 921   NORMALIZED FREE ENERGY PREDICTED BY IDOCK:   -3.75 KCAL/MOL
REMARK 922        TOTAL FREE ENERGY PREDICTED BY IDOCK:   -4.44 KCAL/MOL
REMARK 923 INTER-LIGAND FREE ENERGY PREDICTED BY IDOCK:   -3.61 KCAL/MOL
REMARK 924 INTRA-LIGAND FREE ENERGY PREDICTED BY IDOCK:   -0.83 KCAL/MOL
REMARK 927      BINDING AFFINITY PREDICTED BY RF-SCORE:    0.00 PKD
ROOT
HETATM    1  C   UNL     1     -11.377  14.590  66.457  1.00  0.00    -0.354 C  
HETATM    2  C   UNL     1     -11.914  13.913  65.187  1.00  0.00    -0.394 C  
HETATM    3  C   UNL     1     -12.136  12.394  65.388  1.00  0.00    -0.428 C  
HETATM    4  C   UNL     1     -11.047  14.269  63.985  1.00  0.00     0.272 C  
HETATM    5  C   UNL     1     -10.890  11.560  65.627  1.00  0.00    -0.310 C  
HETATM    6  C   UNL     1     -12.856  11.782  64.180  1.00  0.00    -0.070 C  
HETATM    7  C   UNL     1     -10.639  10.889  66.765  1.00  0.00    -0.313 C  
HETATM    8  C   UNL     1      -9.658   9.735  66.933  1.00  0.00    -0.228 C  
HETATM    9  C   UNL     1      -8.091   9.991  67.074  1.00  0.00    -0.117 C  
HETATM   10  C   UNL     1     -10.009   8.641  65.913  1.00  0.00     0.044 C  
HETATM   11  C   UNL     1      -7.493  10.663  65.839  1.00  0.00    -0.131 C  
HETATM   12  C   UNL     1      -7.380  12.145  66.171  1.00  0.00     0.961 C  
HETATM   13  C   UNL     1      -7.879  12.335  67.626  1.00  0.00    -0.156 C  
HETATM   14  C   UNL     1      -7.193  13.480  68.363  1.00  0.00    -0.109 C  
HETATM   15  C   UNL     1      -7.028  13.169  69.821  1.00  0.00     0.353 C  
HETATM   16  C   UNL     1      -6.764  14.619  67.777  1.00  0.00    -0.194 C  
HETATM   17  C   UNL     1      -8.545  10.511  69.499  1.00  0.00    -0.047 C  
HETATM   18  C   UNL     1      -6.065  11.982  69.958  1.00  0.00    -0.146 C  
HETATM   19  C   UNL     1      -7.684  10.917  68.278  1.00  0.00    -0.111 C  
HETATM   20  C   UNL     1      -6.210  10.928  68.803  1.00  0.00    -0.044 C  
ENDROOT
BRANCH  16  21
HETATM   21  C   UNL     1      -6.116  15.701  68.501  1.00  0.00    -0.102 C  
HETATM   22  C   UNL     1      -6.653  16.827  68.985  1.00  0.00    -0.205 C  
HETATM   23  C   UNL     1      -5.754  17.794  69.748  1.00  0.00    -0.241 C  
HETATM   24  C   UNL     1      -5.781  19.191  69.129  1.00  0.00    -0.218 C  
HETATM   25  C   UNL     1      -7.220  19.693  68.980  1.00  0.00    -0.379 C  
HETATM   26  O   UNL     1      -5.126  19.188  67.859  1.00  0.00    -0.168 OA 
HETATM   27  C   UNL     1      -8.113  18.687  68.240  1.00  0.00    -0.339 C  
HETATM   28  H   UNL     1      -5.142  20.057  67.474  1.00  0.00     0.000 HD 
HETATM   29  C   UNL     1      -8.013  17.300  68.814  1.00  0.00    -0.250 C  
HETATM   30  C   UNL     1      -9.078  16.581  69.192  1.00  0.00    -0.184 C  
ENDBRANCH  16  21
TORSDOF 1
ENDMDL
MODEL       99
REMARK 921   NORMALIZED FREE ENERGY PREDICTED BY IDOCK:   -3.74 KCAL/MOL
REMARK 922        TOTAL FREE ENERGY PREDICTED BY IDOCK:   -4.43 KCAL/MOL
REMARK 923 INTER-LIGAND FREE ENERGY PREDICTED BY IDOCK:   -3.61 KCAL/MOL
REMARK 924 INTRA-LIGAND FREE ENERGY PREDICTED BY IDOCK:   -0.81 KCAL/MOL
REMARK 927      BINDING AFFINITY PREDICTED BY RF-SCORE:    0.00 PKD
ROOT
HETATM    1  C   UNL     1      -7.500  11.077  67.682  1.00  0.00    -0.096 C  
HETATM    2  C   UNL     1      -8.520   9.955  67.928  1.00  0.00    -0.121 C  
HETATM    3  C   UNL     1      -9.544   9.837  66.772  1.00  0.00    -0.228 C  
HETATM    4  C   UNL     1      -9.145  10.095  69.311  1.00  0.00    -0.208 C  
HETATM    5  C   UNL     1     -10.484  11.015  66.587  1.00  0.00    -0.307 C  
HETATM    6  C   UNL     1     -10.420   8.590  66.943  1.00  0.00    -0.345 C  
HETATM    7  C   UNL     1     -10.504  11.798  65.494  1.00  0.00    -0.311 C  
HETATM    8  C   UNL     1     -11.648  12.705  65.057  1.00  0.00    -0.384 C  
HETATM    9  C   UNL     1     -11.882  14.130  65.732  1.00  0.00    -0.385 C  
HETATM   10  C   UNL     1     -12.928  11.863  64.949  1.00  0.00     1.034 C  
HETATM   11  C   UNL     1     -12.188  14.028  67.227  1.00  0.00    -0.325 C  
HETATM   12  C   UNL     1     -10.881  14.323  67.951  1.00  0.00    -0.260 C  
HETATM   13  C   UNL     1      -9.813  14.638  66.873  1.00  0.00    -0.252 C  
HETATM   14  C   UNL     1      -8.749  15.626  67.339  1.00  0.00    -0.194 C  
HETATM   15  C   UNL     1      -8.290  16.505  66.213  1.00  0.00    -0.364 C  
HETATM   16  C   UNL     1      -8.293  15.718  68.607  1.00  0.00    -0.183 C  
HETATM   17  C   UNL     1     -10.064  14.985  64.210  1.00  0.00     1.566 C  
HETATM   18  C   UNL     1      -9.470  17.381  65.770  1.00  0.00     0.112 C  
HETATM   19  C   UNL     1     -10.658  15.111  65.634  1.00  0.00    -0.370 C  
HETATM   20  C   UNL     1     -10.856  16.648  65.860  1.00  0.00    -0.067 C  
ENDROOT
BRANCH  16  21
HETATM   21  C   UNL     1      -7.272  16.665  69.028  1.00  0.00    -0.222 C  
HETATM   22  C   UNL     1      -7.356  17.996  69.139  1.00  0.00    -0.120 C  
HETATM   23  C   UNL     1      -6.139  18.764  69.644  1.00  0.00    -0.283 C  
HETATM   24  C   UNL     1      -5.704  19.842  68.651  1.00  0.00    -0.220 C  
HETATM   25  C   UNL     1      -6.881  20.749  68.283  1.00  0.00    -0.153 C  
HETATM   26  O   UNL     1      -5.154  19.245  67.475  1.00  0.00    -0.165 OA 
HETATM   27  C   UNL     1      -8.105  19.951  67.811  1.00  0.00    -0.329 C  
HETATM   28  H   UNL     1      -4.884  19.915  66.858  1.00  0.00     0.000 HD 
HETATM   29  C   UNL     1      -8.470  18.844  68.762  1.00  0.00    -0.340 C  
HETATM   30  C   UNL     1      -9.700  18.684  69.268  1.00  0.00    -0.094 C  
ENDBRANCH  16  21
TORSDOF 1
ENDMDL
MODEL      100
REMARK 921   NORMALIZED FREE ENERGY PREDICTED BY IDOCK:   -3.65 KCAL/MOL
REMARK 922        TOTAL FREE ENERGY PREDICTED BY IDOCK:   -4.33 KCAL/MOL
REMARK 923 INTER-LIGAND FREE ENERGY PREDICTED BY IDOCK:   -3.87 KCAL/MOL
REMARK 924 INTRA-LIGAND FREE ENERGY PREDICTED BY IDOCK:   -0.47 KCAL/MOL
REMARK 927      BINDING AFFINITY PREDICTED BY RF-SCORE:    0.00 PKD
ROOT
HETATM    1  C   UNL     1      -9.452  12.577  64.335  1.00  0.00     0.346 C  
HETATM    2  C   UNL     1     -10.929  12.988  64.424  1.00  0.00    -0.400 C  
HETATM    3  C   UNL     1     -11.344  13.358  65.869  1.00  0.00    -0.327 C  
HETATM    4  C   UNL     1     -11.816  11.939  63.763  1.00  0.00    -0.558 C  
HETATM    5  C   UNL     1     -11.321  12.229  66.883  1.00  0.00    -0.392 C  
HETATM    6  C   UNL     1     -12.757  13.953  65.896  1.00  0.00    -0.466 C  
HETATM    7  C   UNL     1     -10.505  12.192  67.951  1.00  0.00    -0.224 C  
HETATM    8  C   UNL     1     -10.696  11.340  69.201  1.00  0.00    -0.247 C  
HETATM    9  C   UNL     1     -10.317   9.792  69.216  1.00  0.00    -0.230 C  
HETATM   10  C   UNL     1     -12.083  11.635  69.789  1.00  0.00    -0.357 C  
HETATM   11  C   UNL     1     -11.140   8.977  68.218  1.00  0.00     0.155 C  
HETATM   12  C   UNL     1     -10.260   8.791  66.989  1.00  0.00    -0.351 C  
HETATM   13  C   UNL     1      -8.898   9.468  67.286  1.00  0.00    -0.136 C  
HETATM   14  C   UNL     1      -7.718   8.798  66.590  1.00  0.00    -0.093 C  
HETATM   15  C   UNL     1      -6.479   8.861  67.433  1.00  0.00    -0.057 C  
HETATM   16  C   UNL     1      -7.783   8.201  65.379  1.00  0.00    -0.101 C  
HETATM   17  C   UNL     1      -7.933  10.531  69.571  1.00  0.00    -0.119 C  
HETATM   18  C   UNL     1      -6.711   8.025  68.700  1.00  0.00    -0.062 C  
HETATM   19  C   UNL     1      -8.818   9.480  68.857  1.00  0.00    -0.137 C  
HETATM   20  C   UNL     1      -8.189   8.095  69.227  1.00  0.00    -0.119 C  
ENDROOT
BRANCH  16  21
HETATM   21  C   UNL     1      -6.642   7.573  64.731  1.00  0.00    -0.040 C  
HETATM   22  C   UNL     1      -6.624   6.756  63.671  1.00  0.00    -0.042 C  
HETATM   23  C   UNL     1      -5.278   6.258  63.158  1.00  0.00    -0.018 C  
HETATM   24  C   UNL     1      -5.222   4.730  63.121  1.00  0.00    -0.009 C  
HETATM   25  C   UNL     1      -6.412   4.161  62.344  1.00  0.00    -0.022 C  
HETATM   26  O   UNL     1      -5.198   4.199  64.447  1.00  0.00    -0.008 OA 
HETATM   27  C   UNL     1      -7.755   4.706  62.857  1.00  0.00    -0.063 C  
HETATM   28  H   UNL     1      -5.163   3.249  64.424  1.00  0.00     0.000 HD 
HETATM   29  C   UNL     1      -7.763   6.206  62.962  1.00  0.00    -0.092 C  
HETATM   30  C   UNL     1      -8.703   6.978  62.402  1.00  0.00     0.302 C  
ENDBRANCH  16  21
TORSDOF 1
ENDMDL
MODEL      101
REMARK 921   NORMALIZED FREE ENERGY PREDICTED BY IDOCK:   -3.61 KCAL/MOL
REMARK 922        TOTAL FREE ENERGY PREDICTED BY IDOCK:   -4.29 KCAL/MOL
REMARK 923 INTER-LIGAND FREE ENERGY PREDICTED BY IDOCK:   -3.60 KCAL/MOL
REMARK 924 INTRA-LIGAND FREE ENERGY PREDICTED BY IDOCK:   -0.69 KCAL/MOL
REMARK 927      BINDING AFFINITY PREDICTED BY RF-SCORE:    0.00 PKD
ROOT
HETATM    1  C   UNL     1     -10.956   5.789  70.267  1.00  0.00    -0.347 C  
HETATM    2  C   UNL     1     -10.817   5.249  71.698  1.00  0.00    -0.181 C  
HETATM    3  C   UNL     1     -10.281   6.324  72.675  1.00  0.00    -0.203 C  
HETATM    4  C   UNL     1     -10.028   3.945  71.703  1.00  0.00    -0.223 C  
HETATM    5  C   UNL     1      -8.861   6.803  72.432  1.00  0.00    -0.136 C  
HETATM    6  C   UNL     1     -10.341   5.825  74.124  1.00  0.00    -0.295 C  
HETATM    7  C   UNL     1      -8.539   8.062  72.088  1.00  0.00    -0.206 C  
HETATM    8  C   UNL     1      -7.166   8.711  72.228  1.00  0.00    -0.040 C  
HETATM    9  C   UNL     1      -6.004   8.430  71.175  1.00  0.00    -0.035 C  
HETATM   10  C   UNL     1      -6.710   8.583  73.689  1.00  0.00    -0.099 C  
HETATM   11  C   UNL     1      -5.592   6.958  71.134  1.00  0.00    -0.028 C  
HETATM   12  C   UNL     1      -6.308   6.347  69.935  1.00  0.00    -0.039 C  
HETATM   13  C   UNL     1      -7.111   7.480  69.247  1.00  0.00    -0.077 C  
HETATM   14  C   UNL     1      -7.254   7.299  67.740  1.00  0.00    -0.091 C  
HETATM   15  C   UNL     1      -7.249   8.619  67.028  1.00  0.00    -0.076 C  
HETATM   16  C   UNL     1      -7.349   6.103  67.119  1.00  0.00    -0.076 C  
HETATM   17  C   UNL     1      -7.128  10.139  69.702  1.00  0.00    -0.115 C  
HETATM   18  C   UNL     1      -5.869   9.265  67.216  1.00  0.00    -0.046 C  
HETATM   19  C   UNL     1      -6.365   8.792  69.688  1.00  0.00    -0.039 C  
HETATM   20  C   UNL     1      -5.233   8.974  68.622  1.00  0.00    -0.034 C  
ENDROOT
BRANCH  16  21
HETATM   21  C   UNL     1      -7.491   5.953  65.679  1.00  0.00    -0.081 C  
HETATM   22  C   UNL     1      -8.479   5.375  64.988  1.00  0.00    -0.150 C  
HETATM   23  C   UNL     1      -8.407   5.384  63.465  1.00  0.00    -0.097 C  
HETATM   24  C   UNL     1      -8.481   3.968  62.892  1.00  0.00    -0.089 C  
HETATM   25  C   UNL     1      -9.705   3.225  63.434  1.00  0.00    -0.115 C  
HETATM   26  O   UNL     1      -7.289   3.243  63.196  1.00  0.00    -0.051 OA 
HETATM   27  C   UNL     1      -9.775   3.261  64.968  1.00  0.00    -0.084 C  
HETATM   28  H   UNL     1      -7.335   2.363  62.840  1.00  0.00     0.000 HD 
HETATM   29  C   UNL     1      -9.621   4.653  65.517  1.00  0.00    -0.187 C  
HETATM   30  C   UNL     1     -10.488   5.207  66.375  1.00  0.00    -0.356 C  
ENDBRANCH  16  21
TORSDOF 1
ENDMDL
MODEL      102
REMARK 921   NORMALIZED FREE ENERGY PREDICTED BY IDOCK:   -3.50 KCAL/MOL
REMARK 922        TOTAL FREE ENERGY PREDICTED BY IDOCK:   -4.17 KCAL/MOL
REMARK 923 INTER-LIGAND FREE ENERGY PREDICTED BY IDOCK:   -3.22 KCAL/MOL
REMARK 924 INTRA-LIGAND FREE ENERGY PREDICTED BY IDOCK:   -0.96 KCAL/MOL
REMARK 927      BINDING AFFINITY PREDICTED BY RF-SCORE:    0.00 PKD
ROOT
HETATM    1  C   UNL     1      -9.288  11.066  64.966  1.00  0.00    -0.250 C  
HETATM    2  C   UNL     1     -10.553  11.814  65.414  1.00  0.00    -0.325 C  
HETATM    3  C   UNL     1     -10.662  11.900  66.956  1.00  0.00    -0.280 C  
HETATM    4  C   UNL     1     -11.786  11.237  64.727  1.00  0.00     0.270 C  
HETATM    5  C   UNL     1     -10.857  10.585  67.689  1.00  0.00    -0.355 C  
HETATM    6  C   UNL     1     -11.819  12.817  67.372  1.00  0.00    -0.404 C  
HETATM    7  C   UNL     1      -9.967  10.065  68.553  1.00  0.00    -0.177 C  
HETATM    8  C   UNL     1     -10.252   9.005  69.610  1.00  0.00    -0.211 C  
HETATM    9  C   UNL     1     -10.354   7.460  69.230  1.00  0.00    -0.204 C  
HETATM   10  C   UNL     1     -11.407   9.494  70.496  1.00  0.00    -0.343 C  
HETATM   11  C   UNL     1     -11.497   7.170  68.256  1.00  0.00     0.470 C  
HETATM   12  C   UNL     1     -10.867   7.078  66.873  1.00  0.00    -0.350 C  
HETATM   13  C   UNL     1      -9.339   7.277  67.044  1.00  0.00    -0.181 C  
HETATM   14  C   UNL     1      -8.506   6.521  66.014  1.00  0.00    -0.145 C  
HETATM   15  C   UNL     1      -7.213   6.041  66.604  1.00  0.00    -0.074 C  
HETATM   16  C   UNL     1      -8.891   6.290  64.740  1.00  0.00     0.310 C  
HETATM   17  C   UNL     1      -7.834   7.433  69.278  1.00  0.00    -0.116 C  
HETATM   18  C   UNL     1      -7.532   5.002  67.688  1.00  0.00    -0.079 C  
HETATM   19  C   UNL     1      -9.072   6.868  68.539  1.00  0.00    -0.127 C  
HETATM   20  C   UNL     1      -8.846   5.320  68.487  1.00  0.00    -0.102 C  
ENDROOT
BRANCH  16  21
HETATM   21  C   UNL     1      -8.077   5.571  63.772  1.00  0.00    -0.121 C  
HETATM   22  C   UNL     1      -8.042   4.259  63.514  1.00  0.00    -0.092 C  
HETATM   23  C   UNL     1      -7.117   3.757  62.411  1.00  0.00    -0.036 C  
HETATM   24  C   UNL     1      -6.144   2.699  62.933  1.00  0.00    -0.010 C  
HETATM   25  C   UNL     1      -6.896   1.574  63.648  1.00  0.00    -0.026 C  
HETATM   26  O   UNL     1      -5.187   3.291  63.813  1.00  0.00    -0.008 OA 
HETATM   27  C   UNL     1      -7.848   2.107  64.731  1.00  0.00    -0.073 C  
HETATM   28  H   UNL     1      -4.583   2.634  64.138  1.00  0.00     0.000 HD 
HETATM   29  C   UNL     1      -8.743   3.202  64.219  1.00  0.00    -0.094 C  
HETATM   30  C   UNL     1     -10.076   3.184  64.346  1.00  0.00    -0.085 C  
ENDBRANCH  16  21
TORSDOF 1
ENDMDL
MODEL      103
REMARK 921   NORMALIZED FREE ENERGY PREDICTED BY IDOCK:   -3.49 KCAL/MOL
REMARK 922        TOTAL FREE ENERGY PREDICTED BY IDOCK:   -4.16 KCAL/MOL
REMARK 923 INTER-LIGAND FREE ENERGY PREDICTED BY IDOCK:   -3.39 KCAL/MOL
REMARK 924 INTRA-LIGAND FREE ENERGY PREDICTED BY IDOCK:   -0.78 KCAL/MOL
REMARK 927      BINDING AFFINITY PREDICTED BY RF-SCORE:    0.00 PKD
ROOT
HETATM    1  C   UNL     1      -5.433   9.333  68.039  1.00  0.00    -0.037 C  
HETATM    2  C   UNL     1      -5.363   9.283  66.506  1.00  0.00    -0.045 C  
HETATM    3  C   UNL     1      -6.288  10.336  65.847  1.00  0.00    -0.107 C  
HETATM    4  C   UNL     1      -5.575   7.859  66.007  1.00  0.00    -0.033 C  
HETATM    5  C   UNL     1      -7.779  10.139  66.051  1.00  0.00    -0.120 C  
HETATM    6  C   UNL     1      -6.050  10.401  64.333  1.00  0.00    -0.085 C  
HETATM    7  C   UNL     1      -8.568  10.997  66.722  1.00  0.00    -0.152 C  
HETATM    8  C   UNL     1     -10.086  11.092  66.622  1.00  0.00    -0.262 C  
HETATM    9  C   UNL     1     -11.034  10.067  67.390  1.00  0.00    -0.258 C  
HETATM   10  C   UNL     1     -10.469  11.290  65.148  1.00  0.00    -0.351 C  
HETATM   11  C   UNL     1     -10.833   8.623  66.930  1.00  0.00     0.029 C  
HETATM   12  C   UNL     1      -9.923   7.968  67.961  1.00  0.00    -0.216 C  
HETATM   13  C   UNL     1      -9.623   9.025  69.054  1.00  0.00    -0.160 C  
HETATM   14  C   UNL     1      -9.406   8.426  70.440  1.00  0.00    -0.170 C  
HETATM   15  C   UNL     1      -9.924   9.335  71.515  1.00  0.00    -0.281 C  
HETATM   16  C   UNL     1      -8.843   7.220  70.672  1.00  0.00    -0.148 C  
HETATM   17  C   UNL     1     -10.659  11.486  69.440  1.00  0.00    -0.056 C  
HETATM   18  C   UNL     1     -11.449   9.440  71.368  1.00  0.00    -0.449 C  
HETATM   19  C   UNL     1     -10.830  10.027  68.949  1.00  0.00    -0.250 C  
HETATM   20  C   UNL     1     -11.932   9.411  69.875  1.00  0.00     0.305 C  
ENDROOT
BRANCH  16  21
HETATM   21  C   UNL     1      -8.640   6.671  72.004  1.00  0.00    -0.123 C  
HETATM   22  C   UNL     1      -7.610   6.851  72.839  1.00  0.00    -0.085 C  
HETATM   23  C   UNL     1      -7.658   6.185  74.209  1.00  0.00    -0.092 C  
HETATM   24  C   UNL     1      -6.439   5.292  74.441  1.00  0.00    -0.070 C  
HETATM   25  C   UNL     1      -5.142   6.065  74.191  1.00  0.00    -0.028 C  
HETATM   26  O   UNL     1      -6.497   4.139  73.600  1.00  0.00    -0.041 OA 
HETATM   27  C   UNL     1      -5.133   6.756  72.818  1.00  0.00    -0.036 C  
HETATM   28  H   UNL     1      -5.739   3.584  73.744  1.00  0.00     0.000 HD 
HETATM   29  C   UNL     1      -6.376   7.567  72.576  1.00  0.00    -0.051 C  
HETATM   30  C   UNL     1      -6.356   8.854  72.207  1.00  0.00    -0.012 C  
ENDBRANCH  16  21
TORSDOF 1
ENDMDL
MODEL      104
REMARK 921   NORMALIZED FREE ENERGY PREDICTED BY IDOCK:   -3.47 KCAL/MOL
REMARK 922        TOTAL FREE ENERGY PREDICTED BY IDOCK:   -4.14 KCAL/MOL
REMARK 923 INTER-LIGAND FREE ENERGY PREDICTED BY IDOCK:   -3.67 KCAL/MOL
REMARK 924 INTRA-LIGAND FREE ENERGY PREDICTED BY IDOCK:   -0.47 KCAL/MOL
REMARK 927      BINDING AFFINITY PREDICTED BY RF-SCORE:    0.00 PKD
ROOT
HETATM    1  C   UNL     1     -10.646  17.357  65.869  1.00  0.00    -0.201 C  
HETATM    2  C   UNL     1     -10.462  18.841  66.220  1.00  0.00    -0.489 C  
HETATM    3  C   UNL     1      -8.979  19.278  66.137  1.00  0.00    -0.270 C  
HETATM    4  C   UNL     1     -11.141  19.164  67.546  1.00  0.00    -0.232 C  
HETATM    5  C   UNL     1      -8.037  18.648  67.147  1.00  0.00    -0.253 C  
HETATM    6  C   UNL     1      -8.848  20.798  66.294  1.00  0.00     0.340 C  
HETATM    7  C   UNL     1      -7.013  17.839  66.819  1.00  0.00    -0.228 C  
HETATM    8  C   UNL     1      -5.809  17.511  67.695  1.00  0.00    -0.150 C  
HETATM    9  C   UNL     1      -5.905  16.440  68.871  1.00  0.00    -0.132 C  
HETATM   10  C   UNL     1      -5.139  18.826  68.119  1.00  0.00    -0.180 C  
HETATM   11  C   UNL     1      -6.909  16.843  69.951  1.00  0.00     0.325 C  
HETATM   12  C   UNL     1      -8.188  16.070  69.656  1.00  0.00     0.140 C  
HETATM   13  C   UNL     1      -7.917  15.179  68.417  1.00  0.00    -0.136 C  
HETATM   14  C   UNL     1      -8.708  13.875  68.418  1.00  0.00    -0.173 C  
HETATM   15  C   UNL     1      -7.923  12.760  67.793  1.00  0.00    -0.157 C  
HETATM   16  C   UNL     1      -9.948  13.733  68.936  1.00  0.00    -0.043 C  
HETATM   17  C   UNL     1      -5.622  14.679  67.090  1.00  0.00     0.847 C  
HETATM   18  C   UNL     1      -6.699  12.475  68.675  1.00  0.00    -0.087 C  
HETATM   19  C   UNL     1      -6.354  15.004  68.415  1.00  0.00    -0.107 C  
HETATM   20  C   UNL     1      -6.098  13.765  69.338  1.00  0.00    -0.103 C  
ENDROOT
BRANCH  16  21
HETATM   21  C   UNL     1     -10.687  12.480  68.920  1.00  0.00    -0.202 C  
HETATM   22  C   UNL     1     -11.798  12.152  69.591  1.00  0.00    -0.391 C  
HETATM   23  C   UNL     1     -12.403  10.771  69.368  1.00  0.00    -0.133 C  
HETATM   24  C   UNL     1     -12.542  10.001  70.681  1.00  0.00    -0.220 C  
HETATM   25  C   UNL     1     -13.300  10.831  71.720  1.00  0.00    -0.429 C  
HETATM   26  O   UNL     1     -11.256   9.634  71.185  1.00  0.00    -0.331 OA 
HETATM   27  C   UNL     1     -12.693  12.231  71.901  1.00  0.00    -0.197 C  
HETATM   28  H   UNL     1     -11.343   9.156  72.001  1.00  0.00     0.000 HD 
HETATM   29  C   UNL     1     -12.490  12.942  70.591  1.00  0.00    -0.333 C  
HETATM   30  C   UNL     1     -12.955  14.173  70.341  1.00  0.00    -0.150 C  
ENDBRANCH  16  21
TORSDOF 1
ENDMDL
MODEL      105
REMARK 921   NORMALIZED FREE ENERGY PREDICTED BY IDOCK:   -3.45 KCAL/MOL
REMARK 922        TOTAL FREE ENERGY PREDICTED BY IDOCK:   -4.12 KCAL/MOL
REMARK 923 INTER-LIGAND FREE ENERGY PREDICTED BY IDOCK:   -3.16 KCAL/MOL
REMARK 924 INTRA-LIGAND FREE ENERGY PREDICTED BY IDOCK:   -0.96 KCAL/MOL
REMARK 927      BINDING AFFINITY PREDICTED BY RF-SCORE:    0.00 PKD
ROOT
HETATM    1  C   UNL     1     -12.883  12.534  70.823  1.00  0.00    -0.099 C  
HETATM    2  C   UNL     1     -12.597  14.034  70.990  1.00  0.00    -0.437 C  
HETATM    3  C   UNL     1     -12.602  14.781  69.634  1.00  0.00    -0.097 C  
HETATM    4  C   UNL     1     -11.338  14.247  71.823  1.00  0.00     0.983 C  
HETATM    5  C   UNL     1     -11.500  14.407  68.659  1.00  0.00    -0.316 C  
HETATM    6  C   UNL     1     -12.514  16.297  69.846  1.00  0.00     0.735 C  
HETATM    7  C   UNL     1     -11.716  13.831  67.464  1.00  0.00    -0.410 C  
HETATM    8  C   UNL     1     -10.746  13.804  66.288  1.00  0.00    -0.285 C  
HETATM    9  C   UNL     1      -9.526  12.780  66.241  1.00  0.00    -0.198 C  
HETATM   10  C   UNL     1     -10.344  15.248  65.951  1.00  0.00    -0.346 C  
HETATM   11  C   UNL     1      -8.538  12.992  67.389  1.00  0.00    -0.199 C  
HETATM   12  C   UNL     1      -8.879  11.948  68.445  1.00  0.00    -0.159 C  
HETATM   13  C   UNL     1     -10.050  11.095  67.894  1.00  0.00    -0.195 C  
HETATM   14  C   UNL     1     -10.036   9.651  68.384  1.00  0.00    -0.199 C  
HETATM   15  C   UNL     1     -10.549   8.712  67.332  1.00  0.00    -0.298 C  
HETATM   16  C   UNL     1      -9.596   9.260  69.600  1.00  0.00    -0.192 C  
HETATM   17  C   UNL     1     -11.191  11.062  65.450  1.00  0.00     0.113 C  
HETATM   18  C   UNL     1      -9.573   8.733  66.147  1.00  0.00    -0.323 C  
HETATM   19  C   UNL     1      -9.937  11.265  66.334  1.00  0.00    -0.252 C  
HETATM   20  C   UNL     1      -8.937  10.146  65.890  1.00  0.00    -0.182 C  
ENDROOT
BRANCH  16  21
HETATM   21  C   UNL     1      -9.598   7.876  70.049  1.00  0.00    -0.168 C  
HETATM   22  C   UNL     1      -8.801   6.870  69.672  1.00  0.00    -0.141 C  
HETATM   23  C   UNL     1      -8.986   5.507  70.329  1.00  0.00    -0.155 C  
HETATM   24  C   UNL     1      -9.241   4.414  69.291  1.00  0.00    -0.139 C  
HETATM   25  C   UNL     1      -8.153   4.422  68.215  1.00  0.00    -0.082 C  
HETATM   26  O   UNL     1     -10.528   4.582  68.695  1.00  0.00     0.161 OA 
HETATM   27  C   UNL     1      -7.961   5.813  67.592  1.00  0.00    -0.102 C  
HETATM   28  H   UNL     1     -10.686   3.903  68.050  1.00  0.00     0.000 HD 
HETATM   29  C   UNL     1      -7.790   6.888  68.631  1.00  0.00    -0.118 C  
HETATM   30  C   UNL     1      -6.767   7.751  68.636  1.00  0.00    -0.058 C  
ENDBRANCH  16  21
TORSDOF 1
ENDMDL
MODEL      106
REMARK 921   NORMALIZED FREE ENERGY PREDICTED BY IDOCK:   -3.33 KCAL/MOL
REMARK 922        TOTAL FREE ENERGY PREDICTED BY IDOCK:   -3.99 KCAL/MOL
REMARK 923 INTER-LIGAND FREE ENERGY PREDICTED BY IDOCK:   -3.39 KCAL/MOL
REMARK 924 INTRA-LIGAND FREE ENERGY PREDICTED BY IDOCK:   -0.60 KCAL/MOL
REMARK 927      BINDING AFFINITY PREDICTED BY RF-SCORE:    0.00 PKD
ROOT
HETATM    1  C   UNL     1      -5.991   8.255  64.735  1.00  0.00    -0.048 C  
HETATM    2  C   UNL     1      -6.794   8.694  63.501  1.00  0.00    -0.088 C  
HETATM    3  C   UNL     1      -7.377  10.120  63.664  1.00  0.00    -0.123 C  
HETATM    4  C   UNL     1      -7.823   7.633  63.129  1.00  0.00    -0.134 C  
HETATM    5  C   UNL     1      -8.430  10.294  64.744  1.00  0.00    -0.179 C  
HETATM    6  C   UNL     1      -7.999  10.609  62.351  1.00  0.00    -0.217 C  
HETATM    7  C   UNL     1      -8.273  11.070  65.831  1.00  0.00    -0.100 C  
HETATM    8  C   UNL     1      -9.387  11.615  66.717  1.00  0.00    -0.193 C  
HETATM    9  C   UNL     1     -10.091  10.704  67.820  1.00  0.00    -0.203 C  
HETATM   10  C   UNL     1     -10.382  12.385  65.837  1.00  0.00    -0.282 C  
HETATM   11  C   UNL     1     -10.807   9.497  67.214  1.00  0.00    -0.188 C  
HETATM   12  C   UNL     1      -9.865   8.311  67.384  1.00  0.00    -0.246 C  
HETATM   13  C   UNL     1      -8.606   8.821  68.129  1.00  0.00    -0.134 C  
HETATM   14  C   UNL     1      -7.950   7.765  69.012  1.00  0.00    -0.123 C  
HETATM   15  C   UNL     1      -7.355   8.378  70.246  1.00  0.00    -0.055 C  
HETATM   16  C   UNL     1      -7.926   6.443  68.734  1.00  0.00    -0.110 C  
HETATM   17  C   UNL     1      -8.104  11.205  69.288  1.00  0.00     0.045 C  
HETATM   18  C   UNL     1      -8.495   8.949  71.101  1.00  0.00    -0.250 C  
HETATM   19  C   UNL     1      -9.113  10.099  68.893  1.00  0.00    -0.165 C  
HETATM   20  C   UNL     1      -9.669   9.550  70.249  1.00  0.00    -0.314 C  
ENDROOT
BRANCH  16  21
HETATM   21  C   UNL     1      -7.288   5.454  69.588  1.00  0.00    -0.065 C  
HETATM   22  C   UNL     1      -6.480   4.444  69.245  1.00  0.00    -0.036 C  
HETATM   23  C   UNL     1      -5.907   3.562  70.348  1.00  0.00    -0.018 C  
HETATM   24  C   UNL     1      -6.248   2.089  70.122  1.00  0.00    -0.024 C  
HETATM   25  C   UNL     1      -5.834   1.644  68.717  1.00  0.00    -0.023 C  
HETATM   26  O   UNL     1      -7.645   1.863  70.320  1.00  0.00    -0.039 OA 
HETATM   27  C   UNL     1      -6.394   2.569  67.626  1.00  0.00    -0.032 C  
HETATM   28  H   UNL     1      -7.857   0.948  70.179  1.00  0.00     0.000 HD 
HETATM   29  C   UNL     1      -6.117   4.021  67.906  1.00  0.00    -0.032 C  
HETATM   30  C   UNL     1      -5.533   4.843  67.025  1.00  0.00    -0.013 C  
ENDBRANCH  16  21
TORSDOF 1
ENDMDL
MODEL      107
REMARK 921   NORMALIZED FREE ENERGY PREDICTED BY IDOCK:   -3.27 KCAL/MOL
REMARK 922        TOTAL FREE ENERGY PREDICTED BY IDOCK:   -3.93 KCAL/MOL
REMARK 923 INTER-LIGAND FREE ENERGY PREDICTED BY IDOCK:   -3.45 KCAL/MOL
REMARK 924 INTRA-LIGAND FREE ENERGY PREDICTED BY IDOCK:   -0.48 KCAL/MOL
REMARK 927      BINDING AFFINITY PREDICTED BY RF-SCORE:    0.00 PKD
ROOT
HETATM    1  C   UNL     1      -6.271   7.400  71.028  1.00  0.00    -0.036 C  
HETATM    2  C   UNL     1      -6.881   6.825  72.315  1.00  0.00    -0.063 C  
HETATM    3  C   UNL     1      -8.209   6.076  72.045  1.00  0.00    -0.107 C  
HETATM    4  C   UNL     1      -6.972   7.903  73.389  1.00  0.00    -0.116 C  
HETATM    5  C   UNL     1      -9.370   6.925  71.557  1.00  0.00    -0.155 C  
HETATM    6  C   UNL     1      -8.690   5.346  73.305  1.00  0.00    -0.116 C  
HETATM    7  C   UNL     1      -9.945   6.790  70.349  1.00  0.00    -0.193 C  
HETATM    8  C   UNL     1     -11.329   7.291  69.951  1.00  0.00    -0.145 C  
HETATM    9  C   UNL     1     -11.584   8.821  69.585  1.00  0.00     0.427 C  
HETATM   10  C   UNL     1     -12.360   6.718  70.934  1.00  0.00    -0.336 C  
HETATM   11  C   UNL     1     -11.295   9.761  70.756  1.00  0.00    -0.416 C  
HETATM   12  C   UNL     1      -9.903  10.329  70.515  1.00  0.00     0.398 C  
HETATM   13  C   UNL     1      -9.390   9.749  69.173  1.00  0.00    -0.185 C  
HETATM   14  C   UNL     1      -8.453  10.688  68.420  1.00  0.00    -0.132 C  
HETATM   15  C   UNL     1      -8.625  10.556  66.936  1.00  0.00    -0.125 C  
HETATM   16  C   UNL     1      -7.595  11.548  69.011  1.00  0.00    -0.058 C  
HETATM   17  C   UNL     1     -10.661   8.277  67.303  1.00  0.00    -0.335 C  
HETATM   18  C   UNL     1     -10.037  11.033  66.567  1.00  0.00    -0.270 C  
HETATM   19  C   UNL     1     -10.706   9.368  68.401  1.00  0.00    -0.213 C  
HETATM   20  C   UNL     1     -11.115  10.682  67.654  1.00  0.00    -0.385 C  
ENDROOT
BRANCH  16  21
HETATM   21  C   UNL     1      -6.706  12.431  68.272  1.00  0.00    -0.070 C  
HETATM   22  C   UNL     1      -6.098  13.549  68.686  1.00  0.00    -0.086 C  
HETATM   23  C   UNL     1      -5.176  14.279  67.717  1.00  0.00     0.007 C  
HETATM   24  C   UNL     1      -5.603  15.734  67.525  1.00  0.00    -0.069 C  
HETATM   25  C   UNL     1      -5.744  16.443  68.874  1.00  0.00    -0.127 C  
HETATM   26  O   UNL     1      -6.833  15.803  66.801  1.00  0.00    -0.229 OA 
HETATM   27  C   UNL     1      -6.649  15.670  69.845  1.00  0.00    -0.117 C  
HETATM   28  H   UNL     1      -7.099  16.707  66.681  1.00  0.00     0.000 HD 
HETATM   29  C   UNL     1      -6.262  14.221  69.961  1.00  0.00    -0.157 C  
HETATM   30  C   UNL     1      -6.029  13.612  71.131  1.00  0.00    -0.043 C  
ENDBRANCH  16  21
TORSDOF 1
ENDMDL
MODEL      108
REMARK 921   NORMALIZED FREE ENERGY PREDICTED BY IDOCK:   -3.19 KCAL/MOL
REMARK 922        TOTAL FREE ENERGY PREDICTED BY IDOCK:   -3.85 KCAL/MOL
REMARK 923 INTER-LIGAND FREE ENERGY PREDICTED BY IDOCK:   -3.11 KCAL/MOL
REMARK 924 INTRA-LIGAND FREE ENERGY PREDICTED BY IDOCK:   -0.74 KCAL/MOL
REMARK 927      BINDING AFFINITY PREDICTED BY RF-SCORE:    0.00 PKD
ROOT
HETATM    1  C   UNL     1     -11.292  10.165  70.163  1.00  0.00    -0.372 C  
HETATM    2  C   UNL     1     -12.502   9.648  70.956  1.00  0.00    -0.382 C  
HETATM    3  C   UNL     1     -12.075   8.823  72.196  1.00  0.00    -0.441 C  
HETATM    4  C   UNL     1     -13.481   8.934  70.032  1.00  0.00     2.224 C  
HETATM    5  C   UNL     1     -11.361   7.513  71.915  1.00  0.00    -0.298 C  
HETATM    6  C   UNL     1     -13.287   8.491  73.075  1.00  0.00     0.298 C  
HETATM    7  C   UNL     1     -10.089   7.258  72.269  1.00  0.00    -0.219 C  
HETATM    8  C   UNL     1      -9.450   5.880  72.399  1.00  0.00    -0.155 C  
HETATM    9  C   UNL     1      -8.955   5.071  71.118  1.00  0.00    -0.165 C  
HETATM   10  C   UNL     1     -10.293   5.037  73.366  1.00  0.00    -0.243 C  
HETATM   11  C   UNL     1     -10.098   4.737  70.158  1.00  0.00    -0.310 C  
HETATM   12  C   UNL     1     -10.042   5.780  69.049  1.00  0.00    -0.249 C  
HETATM   13  C   UNL     1      -8.834   6.706  69.342  1.00  0.00    -0.134 C  
HETATM   14  C   UNL     1      -8.180   7.272  68.086  1.00  0.00    -0.124 C  
HETATM   15  C   UNL     1      -6.698   7.422  68.263  1.00  0.00    -0.054 C  
HETATM   16  C   UNL     1      -8.843   7.578  66.949  1.00  0.00    -0.145 C  
HETATM   17  C   UNL     1      -6.883   6.504  71.195  1.00  0.00    -0.066 C  
HETATM   18  C   UNL     1      -6.085   6.024  68.427  1.00  0.00    -0.021 C  
HETATM   19  C   UNL     1      -7.891   5.822  70.237  1.00  0.00    -0.100 C  
HETATM   20  C   UNL     1      -7.011   5.029  69.214  1.00  0.00    -0.055 C  
ENDROOT
BRANCH  16  21
HETATM   21  C   UNL     1      -8.199   8.123  65.764  1.00  0.00    -0.126 C  
HETATM   22  C   UNL     1      -8.322   9.342  65.228  1.00  0.00    -0.147 C  
HETATM   23  C   UNL     1      -7.499   9.680  63.990  1.00  0.00    -0.128 C  
HETATM   24  C   UNL     1      -8.389  10.138  62.834  1.00  0.00    -0.167 C  
HETATM   25  C   UNL     1      -9.311  11.277  63.275  1.00  0.00    -0.291 C  
HETATM   26  O   UNL     1      -9.159   9.045  62.332  1.00  0.00    -0.441 OA 
HETATM   27  C   UNL     1     -10.102  10.926  64.544  1.00  0.00    -0.404 C  
HETATM   28  H   UNL     1      -9.712   9.329  61.614  1.00  0.00     0.000 HD 
HETATM   29  C   UNL     1      -9.220  10.403  65.644  1.00  0.00    -0.220 C  
HETATM   30  C   UNL     1      -9.214  10.905  66.885  1.00  0.00    -0.175 C  
ENDBRANCH  16  21
TORSDOF 1
ENDMDL
MODEL      109
REMARK 921   NORMALIZED FREE ENERGY PREDICTED BY IDOCK:   -3.16 KCAL/MOL
REMARK 922        TOTAL FREE ENERGY PREDICTED BY IDOCK:   -3.81 KCAL/MOL
REMARK 923 INTER-LIGAND FREE ENERGY PREDICTED BY IDOCK:   -2.75 KCAL/MOL
REMARK 924 INTRA-LIGAND FREE ENERGY PREDICTED BY IDOCK:   -1.07 KCAL/MOL
REMARK 927      BINDING AFFINITY PREDICTED BY RF-SCORE:    0.00 PKD
ROOT
HETATM    1  C   UNL     1      -9.793   8.679  66.109  1.00  0.00    -0.269 C  
HETATM    2  C   UNL     1      -8.912   9.346  65.042  1.00  0.00    -0.258 C  
HETATM    3  C   UNL     1      -8.607   8.391  63.861  1.00  0.00     0.098 C  
HETATM    4  C   UNL     1      -7.678   9.970  65.682  1.00  0.00    -0.136 C  
HETATM    5  C   UNL     1      -7.758   7.175  64.185  1.00  0.00    -0.120 C  
HETATM    6  C   UNL     1      -7.900   9.138  62.724  1.00  0.00    -0.124 C  
HETATM    7  C   UNL     1      -8.193   5.906  64.089  1.00  0.00    -0.075 C  
HETATM    8  C   UNL     1      -7.319   4.660  63.993  1.00  0.00    -0.058 C  
HETATM    9  C   UNL     1      -6.632   4.026  65.283  1.00  0.00    -0.047 C  
HETATM   10  C   UNL     1      -6.357   4.826  62.808  1.00  0.00    -0.025 C  
HETATM   11  C   UNL     1      -5.646   4.983  65.953  1.00  0.00    -0.017 C  
HETATM   12  C   UNL     1      -6.388   5.612  67.125  1.00  0.00    -0.042 C  
HETATM   13  C   UNL     1      -7.807   4.988  67.164  1.00  0.00    -0.096 C  
HETATM   14  C   UNL     1      -8.392   4.891  68.569  1.00  0.00    -0.083 C  
HETATM   15  C   UNL     1      -9.246   3.667  68.721  1.00  0.00    -0.222 C  
HETATM   16  C   UNL     1      -8.153   5.777  69.560  1.00  0.00    -0.108 C  
HETATM   17  C   UNL     1      -8.859   2.942  65.755  1.00  0.00    -0.140 C  
HETATM   18  C   UNL     1      -8.348   2.429  68.584  1.00  0.00    -0.079 C  
HETATM   19  C   UNL     1      -7.633   3.612  66.423  1.00  0.00    -0.084 C  
HETATM   20  C   UNL     1      -7.186   2.617  67.546  1.00  0.00    -0.053 C  
ENDROOT
BRANCH  16  21
HETATM   21  C   UNL     1      -8.727   5.667  70.893  1.00  0.00    -0.136 C  
HETATM   22  C   UNL     1      -8.361   4.869  71.902  1.00  0.00    -0.119 C  
HETATM   23  C   UNL     1      -9.110   4.975  73.225  1.00  0.00    -0.125 C  
HETATM   24  C   UNL     1      -9.696   3.628  73.647  1.00  0.00    -0.107 C  
HETATM   25  C   UNL     1      -8.617   2.542  73.650  1.00  0.00    -0.071 C  
HETATM   26  O   UNL     1     -10.769   3.255  72.780  1.00  0.00    -0.127 OA 
HETATM   27  C   UNL     1      -7.852   2.478  72.319  1.00  0.00    -0.053 C  
HETATM   28  H   UNL     1     -11.133   2.418  73.043  1.00  0.00     0.000 HD 
HETATM   29  C   UNL     1      -7.352   3.827  71.880  1.00  0.00    -0.055 C  
HETATM   30  C   UNL     1      -6.075   4.068  71.553  1.00  0.00    -0.014 C  
ENDBRANCH  16  21
TORSDOF 1
ENDMDL
MODEL      110
REMARK 921   NORMALIZED FREE ENERGY PREDICTED BY IDOCK:   -2.83 KCAL/MOL
REMARK 922        TOTAL FREE ENERGY PREDICTED BY IDOCK:   -3.46 KCAL/MOL
REMARK 923 INTER-LIGAND FREE ENERGY PREDICTED BY IDOCK:   -2.70 KCAL/MOL
REMARK 924 INTRA-LIGAND FREE ENERGY PREDICTED BY IDOCK:   -0.76 KCAL/MOL
REMARK 927      BINDING AFFINITY PREDICTED BY RF-SCORE:    0.00 PKD
ROOT
HETATM    1  C   UNL     1      -6.606  12.136  69.647  1.00  0.00    -0.029 C  
HETATM    2  C   UNL     1      -6.126  13.093  68.546  1.00  0.00    -0.078 C  
HETATM    3  C   UNL     1      -6.667  14.530  68.749  1.00  0.00    -0.091 C  
HETATM    4  C   UNL     1      -6.405  12.505  67.168  1.00  0.00    -0.050 C  
HETATM    5  C   UNL     1      -8.169  14.706  68.618  1.00  0.00    -0.159 C  
HETATM    6  C   UNL     1      -6.017  15.504  67.759  1.00  0.00    -0.169 C  
HETATM    7  C   UNL     1      -8.973  15.090  69.626  1.00  0.00     0.014 C  
HETATM    8  C   UNL     1     -10.374  15.676  69.487  1.00  0.00    -0.277 C  
HETATM    9  C   UNL     1     -11.638  14.746  69.212  1.00  0.00    -0.331 C  
HETATM   10  C   UNL     1     -10.304  16.900  68.562  1.00  0.00    -0.336 C  
HETATM   11  C   UNL     1     -11.538  13.995  67.884  1.00  0.00    -0.377 C  
HETATM   12  C   UNL     1     -11.055  12.591  68.222  1.00  0.00    -0.294 C  
HETATM   13  C   UNL     1     -10.911  12.507  69.763  1.00  0.00     0.422 C  
HETATM   14  C   UNL     1     -11.174  11.115  70.327  1.00  0.00    -0.126 C  
HETATM   15  C   UNL     1     -11.824  11.186  71.677  1.00  0.00     0.789 C  
HETATM   16  C   UNL     1     -10.883   9.962  69.685  1.00  0.00    -0.281 C  
HETATM   17  C   UNL     1     -11.631  14.258  71.685  1.00  0.00     0.353 C  
HETATM   18  C   UNL     1     -13.216  11.812  71.512  1.00  0.00    -0.292 C  
HETATM   19  C   UNL     1     -11.878  13.629  70.292  1.00  0.00    -0.336 C  
HETATM   20  C   UNL     1     -13.271  12.923  70.404  1.00  0.00     0.678 C  
ENDROOT
BRANCH  16  21
HETATM   21  C   UNL     1     -11.138   8.644  70.244  1.00  0.00    -0.230 C  
HETATM   22  C   UNL     1     -10.262   7.743  70.703  1.00  0.00    -0.199 C  
HETATM   23  C   UNL     1     -10.794   6.436  71.280  1.00  0.00    -0.306 C  
HETATM   24  C   UNL     1     -10.197   5.224  70.565  1.00  0.00    -0.264 C  
HETATM   25  C   UNL     1      -8.668   5.298  70.551  1.00  0.00    -0.132 C  
HETATM   26  O   UNL     1     -10.699   5.132  69.231  1.00  0.00    -0.141 OA 
HETATM   27  C   UNL     1      -8.157   6.638  69.999  1.00  0.00    -0.121 C  
HETATM   28  H   UNL     1     -10.328   4.379  68.787  1.00  0.00     0.000 HD 
HETATM   29  C   UNL     1      -8.814   7.819  70.659  1.00  0.00    -0.144 C  
HETATM   30  C   UNL     1      -8.129   8.828  71.213  1.00  0.00    -0.195 C  
ENDBRANCH  16  21
TORSDOF 1
ENDMDL
MODEL      111
REMARK 921   NORMALIZED FREE ENERGY PREDICTED BY IDOCK:   -2.82 KCAL/MOL
REMARK 922        TOTAL FREE ENERGY PREDICTED BY IDOCK:   -3.45 KCAL/MOL
REMARK 923 INTER-LIGAND FREE ENERGY PREDICTED BY IDOCK:   -2.43 KCAL/MOL
REMARK 924 INTRA-LIGAND FREE ENERGY PREDICTED BY IDOCK:   -1.02 KCAL/MOL
REMARK 927      BINDING AFFINITY PREDICTED BY RF-SCORE:    0.00 PKD
ROOT
HETATM    1  C   UNL     1      -8.875  17.289  68.819  1.00  0.00    -0.233 C  
HETATM    2  C   UNL     1      -8.876  18.306  67.668  1.00  0.00    -0.261 C  
HETATM    3  C   UNL     1     -10.199  18.272  66.864  1.00  0.00    -0.390 C  
HETATM    4  C   UNL     1      -7.619  18.152  66.820  1.00  0.00    -0.248 C  
HETATM    5  C   UNL     1     -10.482  16.996  66.092  1.00  0.00    -0.274 C  
HETATM    6  C   UNL     1     -10.254  19.425  65.855  1.00  0.00    -0.471 C  
HETATM    7  C   UNL     1     -11.516  16.175  66.347  1.00  0.00     0.542 C  
HETATM    8  C   UNL     1     -12.097  15.137  65.394  1.00  0.00     0.145 C  
HETATM    9  C   UNL     1     -11.397  13.721  65.181  1.00  0.00    -0.317 C  
HETATM   10  C   UNL     1     -12.476  15.835  64.079  1.00  0.00     0.489 C  
HETATM   11  C   UNL     1      -9.987  13.846  64.601  1.00  0.00     0.025 C  
HETATM   12  C   UNL     1      -9.028  13.717  65.778  1.00  0.00     0.688 C  
HETATM   13  C   UNL     1      -9.882  13.476  67.049  1.00  0.00    -0.251 C  
HETATM   14  C   UNL     1      -9.182  12.624  68.102  1.00  0.00    -0.209 C  
HETATM   15  C   UNL     1     -10.159  11.757  68.840  1.00  0.00    -0.088 C  
HETATM   16  C   UNL     1      -7.850  12.627  68.327  1.00  0.00    -0.144 C  
HETATM   17  C   UNL     1     -12.525  13.007  67.319  1.00  0.00     0.310 C  
HETATM   18  C   UNL     1     -10.754  10.746  67.850  1.00  0.00    -0.282 C  
HETATM   19  C   UNL     1     -11.222  12.871  66.492  1.00  0.00    -0.340 C  
HETATM   20  C   UNL     1     -10.951  11.332  66.407  1.00  0.00    -0.285 C  
ENDROOT
BRANCH  16  21
HETATM   21  C   UNL     1      -7.204  11.809  69.342  1.00  0.00     0.075 C  
HETATM   22  C   UNL     1      -6.955  10.495  69.328  1.00  0.00    -0.086 C  
HETATM   23  C   UNL     1      -6.222   9.878  70.514  1.00  0.00    -0.101 C  
HETATM   24  C   UNL     1      -7.027   8.739  71.140  1.00  0.00    -0.082 C  
HETATM   25  C   UNL     1      -7.431   7.712  70.080  1.00  0.00    -0.082 C  
HETATM   26  O   UNL     1      -8.187   9.251  71.799  1.00  0.00    -0.287 OA 
HETATM   27  C   UNL     1      -8.136   8.362  68.879  1.00  0.00    -0.114 C  
HETATM   28  H   UNL     1      -8.687   8.543  72.188  1.00  0.00     0.000 HD 
HETATM   29  C   UNL     1      -7.367   9.530  68.326  1.00  0.00    -0.077 C  
HETATM   30  C   UNL     1      -7.036   9.648  67.033  1.00  0.00    -0.085 C  
ENDBRANCH  16  21
TORSDOF 1
ENDMDL
MODEL      112
REMARK 921   NORMALIZED FREE ENERGY PREDICTED BY IDOCK:   -2.68 KCAL/MOL
REMARK 922        TOTAL FREE ENERGY PREDICTED BY IDOCK:   -3.30 KCAL/MOL
REMARK 923 INTER-LIGAND FREE ENERGY PREDICTED BY IDOCK:   -2.68 KCAL/MOL
REMARK 924 INTRA-LIGAND FREE ENERGY PREDICTED BY IDOCK:   -0.63 KCAL/MOL
REMARK 927      BINDING AFFINITY PREDICTED BY RF-SCORE:    0.00 PKD
ROOT
HETATM    1  C   UNL     1      -6.138   6.192  67.658  1.00  0.00    -0.018 C  
HETATM    2  C   UNL     1      -5.946   5.462  66.321  1.00  0.00    -0.022 C  
HETATM    3  C   UNL     1      -5.537   6.429  65.183  1.00  0.00    -0.022 C  
HETATM    4  C   UNL     1      -7.160   4.596  66.006  1.00  0.00    -0.075 C  
HETATM    5  C   UNL     1      -6.575   7.461  64.776  1.00  0.00    -0.043 C  
HETATM    6  C   UNL     1      -5.159   5.654  63.915  1.00  0.00    -0.010 C  
HETATM    7  C   UNL     1      -6.412   8.788  64.916  1.00  0.00    -0.065 C  
HETATM    8  C   UNL     1      -7.190   9.873  64.180  1.00  0.00    -0.134 C  
HETATM    9  C   UNL     1      -8.659  10.293  64.633  1.00  0.00    -0.194 C  
HETATM   10  C   UNL     1      -7.063   9.629  62.670  1.00  0.00    -0.104 C  
HETATM   11  C   UNL     1      -9.658   9.140  64.527  1.00  0.00     0.528 C  
HETATM   12  C   UNL     1      -9.800   8.567  65.931  1.00  0.00    -0.012 C  
HETATM   13  C   UNL     1      -8.908   9.416  66.872  1.00  0.00    -0.141 C  
HETATM   14  C   UNL     1      -9.443   9.514  68.297  1.00  0.00    -0.143 C  
HETATM   15  C   UNL     1      -9.136  10.851  68.904  1.00  0.00    -0.151 C  
HETATM   16  C   UNL     1     -10.129   8.535  68.926  1.00  0.00    -0.213 C  
HETATM   17  C   UNL     1      -7.551  11.701  66.406  1.00  0.00     0.085 C  
HETATM   18  C   UNL     1      -9.903  11.927  68.122  1.00  0.00    -0.192 C  
HETATM   19  C   UNL     1      -8.771  10.791  66.121  1.00  0.00    -0.186 C  
HETATM   20  C   UNL     1     -10.015  11.617  66.587  1.00  0.00    -0.230 C  
ENDROOT
BRANCH  16  21
HETATM   21  C   UNL     1     -10.626   8.648  70.288  1.00  0.00    -0.240 C  
HETATM   22  C   UNL     1     -10.490   7.790  71.306  1.00  0.00    -0.230 C  
HETATM   23  C   UNL     1     -11.079   8.166  72.660  1.00  0.00    -0.450 C  
HETATM   24  C   UNL     1     -12.057   7.103  73.160  1.00  0.00     0.828 C  
HETATM   25  C   UNL     1     -11.408   5.717  73.149  1.00  0.00    -0.190 C  
HETATM   26  O   UNL     1     -13.243   7.100  72.363  1.00  0.00    -0.479 OA 
HETATM   27  C   UNL     1     -10.790   5.376  71.784  1.00  0.00    -0.242 C  
HETATM   28  H   UNL     1     -13.851   6.439  72.674  1.00  0.00     0.000 HD 
HETATM   29  C   UNL     1      -9.892   6.469  71.272  1.00  0.00    -0.197 C  
HETATM   30  C   UNL     1      -8.631   6.259  70.872  1.00  0.00    -0.135 C  
ENDBRANCH  16  21
TORSDOF 1
ENDMDL
MODEL      113
REMARK 921   NORMALIZED FREE ENERGY PREDICTED BY IDOCK:   -2.65 KCAL/MOL
REMARK 922        TOTAL FREE ENERGY PREDICTED BY IDOCK:   -3.28 KCAL/MOL
REMARK 923 INTER-LIGAND FREE ENERGY PREDICTED BY IDOCK:   -2.73 KCAL/MOL
REMARK 924 INTRA-LIGAND FREE ENERGY PREDICTED BY IDOCK:   -0.55 KCAL/MOL
REMARK 927      BINDING AFFINITY PREDICTED BY RF-SCORE:    0.00 PKD
ROOT
HETATM    1  C   UNL     1      -5.777   9.060  66.801  1.00  0.00    -0.047 C  
HETATM    2  C   UNL     1      -5.828   9.049  65.266  1.00  0.00    -0.055 C  
HETATM    3  C   UNL     1      -6.472  10.337  64.696  1.00  0.00    -0.101 C  
HETATM    4  C   UNL     1      -6.455   7.755  64.762  1.00  0.00    -0.044 C  
HETATM    5  C   UNL     1      -7.943  10.545  65.009  1.00  0.00    -0.079 C  
HETATM    6  C   UNL     1      -6.329  10.390  63.170  1.00  0.00    -0.109 C  
HETATM    7  C   UNL     1      -8.419  11.560  65.751  1.00  0.00     0.130 C  
HETATM    8  C   UNL     1      -9.857  12.067  65.767  1.00  0.00    -0.263 C  
HETATM    9  C   UNL     1     -10.994  11.311  66.588  1.00  0.00    -0.326 C  
HETATM   10  C   UNL     1     -10.270  12.416  64.330  1.00  0.00    -0.358 C  
HETATM   11  C   UNL     1     -11.227   9.884  66.090  1.00  0.00     1.018 C  
HETATM   12  C   UNL     1     -10.464   8.969  67.039  1.00  0.00    -0.316 C  
HETATM   13  C   UNL     1      -9.813   9.865  68.124  1.00  0.00    -0.167 C  
HETATM   14  C   UNL     1      -9.674   9.179  69.479  1.00  0.00    -0.176 C  
HETATM   15  C   UNL     1      -9.849  10.155  70.605  1.00  0.00     0.335 C  
HETATM   16  C   UNL     1      -9.448   7.858  69.648  1.00  0.00    -0.160 C  
HETATM   17  C   UNL     1     -10.107  12.499  68.627  1.00  0.00    -0.139 C  
HETATM   18  C   UNL     1     -11.293  10.675  70.575  1.00  0.00    -0.355 C  
HETATM   19  C   UNL     1     -10.704  11.161  68.126  1.00  0.00    -0.244 C  
HETATM   20  C   UNL     1     -11.866  10.834  69.122  1.00  0.00    -0.347 C  
ENDROOT
BRANCH  16  21
HETATM   21  C   UNL     1      -9.313   7.226  70.951  1.00  0.00    -0.159 C  
HETATM   22  C   UNL     1      -8.525   6.207  71.313  1.00  0.00    -0.125 C  
HETATM   23  C   UNL     1      -8.543   5.751  72.768  1.00  0.00    -0.119 C  
HETATM   24  C   UNL     1      -8.884   4.266  72.885  1.00  0.00    -0.103 C  
HETATM   25  C   UNL     1      -7.960   3.424  72.001  1.00  0.00    -0.063 C  
HETATM   26  O   UNL     1     -10.249   4.036  72.533  1.00  0.00    -0.162 OA 
HETATM   27  C   UNL     1      -7.931   3.925  70.549  1.00  0.00    -0.054 C  
HETATM   28  H   UNL     1     -10.460   3.113  72.606  1.00  0.00     0.000 HD 
HETATM   29  C   UNL     1      -7.673   5.403  70.457  1.00  0.00    -0.084 C  
HETATM   30  C   UNL     1      -6.706   5.937  69.699  1.00  0.00    -0.055 C  
ENDBRANCH  16  21
TORSDOF 1
ENDMDL
MODEL      114
REMARK 921   NORMALIZED FREE ENERGY PREDICTED BY IDOCK:   -2.44 KCAL/MOL
REMARK 922        TOTAL FREE ENERGY PREDICTED BY IDOCK:   -3.06 KCAL/MOL
REMARK 923 INTER-LIGAND FREE ENERGY PREDICTED BY IDOCK:   -2.41 KCAL/MOL
REMARK 924 INTRA-LIGAND FREE ENERGY PREDICTED BY IDOCK:   -0.65 KCAL/MOL
REMARK 927      BINDING AFFINITY PREDICTED BY RF-SCORE:    0.00 PKD
ROOT
HETATM    1  C   UNL     1     -11.617  11.739  70.561  1.00  0.00     0.033 C  
HETATM    2  C   UNL     1     -12.072  10.445  69.869  1.00  0.00    -0.252 C  
HETATM    3  C   UNL     1     -10.965   9.362  69.877  1.00  0.00    -0.251 C  
HETATM    4  C   UNL     1     -12.644  10.751  68.490  1.00  0.00     1.416 C  
HETATM    5  C   UNL     1      -9.718   9.672  69.069  1.00  0.00    -0.169 C  
HETATM    6  C   UNL     1     -11.507   8.023  69.363  1.00  0.00     0.497 C  
HETATM    7  C   UNL     1      -8.494   9.827  69.604  1.00  0.00    -0.194 C  
HETATM    8  C   UNL     1      -7.167   9.727  68.859  1.00  0.00    -0.072 C  
HETATM    9  C   UNL     1      -6.620  10.934  67.973  1.00  0.00    -0.062 C  
HETATM   10  C   UNL     1      -7.105   8.368  68.147  1.00  0.00    -0.085 C  
HETATM   11  C   UNL     1      -7.548  11.272  66.805  1.00  0.00    -0.151 C  
HETATM   12  C   UNL     1      -8.374  12.472  67.249  1.00  0.00    -0.185 C  
HETATM   13  C   UNL     1      -7.897  12.864  68.671  1.00  0.00    -0.044 C  
HETATM   14  C   UNL     1      -8.015  14.355  68.966  1.00  0.00    -0.057 C  
HETATM   15  C   UNL     1      -6.904  14.826  69.857  1.00  0.00    -0.158 C  
HETATM   16  C   UNL     1      -8.981  15.159  68.469  1.00  0.00    -0.186 C  
HETATM   17  C   UNL     1      -5.815  11.960  70.129  1.00  0.00    -0.157 C  
HETATM   18  C   UNL     1      -5.578  14.681  69.095  1.00  0.00    -0.091 C  
HETATM   19  C   UNL     1      -6.435  12.288  68.749  1.00  0.00    -0.082 C  
HETATM   20  C   UNL     1      -5.536  13.424  68.156  1.00  0.00    -0.106 C  
ENDROOT
BRANCH  16  21
HETATM   21  C   UNL     1      -9.078  16.579  68.769  1.00  0.00    -0.256 C  
HETATM   22  C   UNL     1      -8.900  17.623  67.952  1.00  0.00    -0.246 C  
HETATM   23  C   UNL     1      -9.099  19.028  68.509  1.00  0.00    -0.401 C  
HETATM   24  C   UNL     1      -7.853  19.892  68.310  1.00  0.00    -0.263 C  
HETATM   25  C   UNL     1      -7.413  19.882  66.844  1.00  0.00    -0.280 C  
HETATM   26  O   UNL     1      -6.790  19.437  69.148  1.00  0.00    -0.314 OA 
HETATM   27  C   UNL     1      -7.254  18.456  66.295  1.00  0.00    -0.291 C  
HETATM   28  H   UNL     1      -6.016  19.974  69.024  1.00  0.00     0.000 HD 
HETATM   29  C   UNL     1      -8.457  17.597  66.570  1.00  0.00    -0.294 C  
HETATM   30  C   UNL     1      -9.106  16.912  65.620  1.00  0.00     0.295 C  
ENDBRANCH  16  21
TORSDOF 1
ENDMDL
MODEL      115
REMARK 921   NORMALIZED FREE ENERGY PREDICTED BY IDOCK:   -2.34 KCAL/MOL
REMARK 922        TOTAL FREE ENERGY PREDICTED BY IDOCK:   -2.94 KCAL/MOL
REMARK 923 INTER-LIGAND FREE ENERGY PREDICTED BY IDOCK:   -2.14 KCAL/MOL
REMARK 924 INTRA-LIGAND FREE ENERGY PREDICTED BY IDOCK:   -0.80 KCAL/MOL
REMARK 927      BINDING AFFINITY PREDICTED BY RF-SCORE:    0.00 PKD
ROOT
HETATM    1  C   UNL     1     -11.131   8.243  68.581  1.00  0.00     0.313 C  
HETATM    2  C   UNL     1     -11.303   9.567  69.340  1.00  0.00     0.018 C  
HETATM    3  C   UNL     1     -11.592  10.752  68.385  1.00  0.00    -0.311 C  
HETATM    4  C   UNL     1     -10.132   9.795  70.289  1.00  0.00    -0.323 C  
HETATM    5  C   UNL     1     -10.472  11.134  67.434  1.00  0.00    -0.255 C  
HETATM    6  C   UNL     1     -11.956  12.015  69.175  1.00  0.00    -0.326 C  
HETATM    7  C   UNL     1     -10.557  11.040  66.095  1.00  0.00    -0.288 C  
HETATM    8  C   UNL     1      -9.676  11.765  65.084  1.00  0.00    -0.228 C  
HETATM    9  C   UNL     1      -8.207  11.249  64.742  1.00  0.00     0.550 C  
HETATM   10  C   UNL     1      -9.743  13.273  65.368  1.00  0.00    -0.030 C  
HETATM   11  C   UNL     1      -7.279  11.271  65.958  1.00  0.00     0.138 C  
HETATM   12  C   UNL     1      -7.244   9.846  66.495  1.00  0.00    -0.095 C  
HETATM   13  C   UNL     1      -8.126   8.977  65.563  1.00  0.00    -0.110 C  
HETATM   14  C   UNL     1      -7.657   7.530  65.453  1.00  0.00    -0.095 C  
HETATM   15  C   UNL     1      -7.908   6.977  64.081  1.00  0.00    -0.106 C  
HETATM   16  C   UNL     1      -7.067   6.839  66.453  1.00  0.00    -0.071 C  
HETATM   17  C   UNL     1      -9.310   9.576  63.214  1.00  0.00     0.144 C  
HETATM   18  C   UNL     1      -7.036   7.749  63.080  1.00  0.00    -0.076 C  
HETATM   19  C   UNL     1      -8.138   9.773  64.206  1.00  0.00    -0.152 C  
HETATM   20  C   UNL     1      -6.867   9.266  63.445  1.00  0.00    -0.091 C  
ENDROOT
BRANCH  16  21
HETATM   21  C   UNL     1      -6.632   5.457  66.328  1.00  0.00    -0.052 C  
HETATM   22  C   UNL     1      -7.325   4.335  66.552  1.00  0.00    -0.080 C  
HETATM   23  C   UNL     1      -6.641   2.994  66.309  1.00  0.00    -0.036 C  
HETATM   24  C   UNL     1      -6.670   2.115  67.559  1.00  0.00    -0.039 C  
HETATM   25  C   UNL     1      -8.098   1.975  68.093  1.00  0.00    -0.067 C  
HETATM   26  O   UNL     1      -5.815   2.653  68.569  1.00  0.00    -0.022 OA 
HETATM   27  C   UNL     1      -8.777   3.338  68.297  1.00  0.00    -0.137 C  
HETATM   28  H   UNL     1      -5.833   2.106  69.346  1.00  0.00     0.000 HD 
HETATM   29  C   UNL     1      -8.670   4.220  67.083  1.00  0.00    -0.109 C  
HETATM   30  C   UNL     1      -9.725   4.805  66.502  1.00  0.00    -0.206 C  
ENDBRANCH  16  21
TORSDOF 1
ENDMDL
MODEL      116
REMARK 921   NORMALIZED FREE ENERGY PREDICTED BY IDOCK:   -2.18 KCAL/MOL
REMARK 922        TOTAL FREE ENERGY PREDICTED BY IDOCK:   -2.78 KCAL/MOL
REMARK 923 INTER-LIGAND FREE ENERGY PREDICTED BY IDOCK:   -2.31 KCAL/MOL
REMARK 924 INTRA-LIGAND FREE ENERGY PREDICTED BY IDOCK:   -0.47 KCAL/MOL
REMARK 927      BINDING AFFINITY PREDICTED BY RF-SCORE:    0.00 PKD
ROOT
HETATM    1  C   UNL     1     -12.906  14.035  71.069  1.00  0.00    -0.410 C  
HETATM    2  C   UNL     1     -12.185  15.223  71.725  1.00  0.00    -0.430 C  
HETATM    3  C   UNL     1     -11.712  16.264  70.681  1.00  0.00    -0.186 C  
HETATM    4  C   UNL     1     -11.090  14.730  72.664  1.00  0.00     0.918 C  
HETATM    5  C   UNL     1     -10.637  15.802  69.714  1.00  0.00    -0.312 C  
HETATM    6  C   UNL     1     -11.179  17.526  71.371  1.00  0.00     1.945 C  
HETATM    7  C   UNL     1     -10.815  15.695  68.385  1.00  0.00    -0.290 C  
HETATM    8  C   UNL     1      -9.715  15.646  67.330  1.00  0.00    -0.222 C  
HETATM    9  C   UNL     1      -8.902  14.306  67.041  1.00  0.00    -0.243 C  
HETATM   10  C   UNL     1      -8.818  16.881  67.499  1.00  0.00    -0.213 C  
HETATM   11  C   UNL     1      -8.115  13.823  68.260  1.00  0.00    -0.150 C  
HETATM   12  C   UNL     1      -8.953  12.726  68.903  1.00  0.00     0.328 C  
HETATM   13  C   UNL     1     -10.221  12.538  68.031  1.00  0.00    -0.225 C  
HETATM   14  C   UNL     1     -10.759  11.111  68.034  1.00  0.00    -0.254 C  
HETATM   15  C   UNL     1     -11.354  10.749  66.706  1.00  0.00     0.094 C  
HETATM   16  C   UNL     1     -10.688  10.270  69.089  1.00  0.00    -0.259 C  
HETATM   17  C   UNL     1     -10.867  13.592  65.633  1.00  0.00    -0.280 C  
HETATM   18  C   UNL     1     -10.232  10.742  65.658  1.00  0.00    -0.320 C  
HETATM   19  C   UNL     1      -9.789  13.078  66.618  1.00  0.00    -0.252 C  
HETATM   20  C   UNL     1      -9.141  11.843  65.908  1.00  0.00    -0.085 C  
ENDROOT
BRANCH  16  21
HETATM   21  C   UNL     1     -11.213   8.913  69.072  1.00  0.00     0.267 C  
HETATM   22  C   UNL     1     -11.040   7.934  69.967  1.00  0.00    -0.165 C  
HETATM   23  C   UNL     1     -11.738   6.599  69.732  1.00  0.00    -0.279 C  
HETATM   24  C   UNL     1     -10.740   5.441  69.712  1.00  0.00    -0.210 C  
HETATM   25  C   UNL     1      -9.867   5.453  70.969  1.00  0.00    -0.246 C  
HETATM   26  O   UNL     1      -9.922   5.507  68.542  1.00  0.00    -0.138 OA 
HETATM   27  C   UNL     1      -9.204   6.819  71.204  1.00  0.00    -0.159 C  
HETATM   28  H   UNL     1      -9.302   4.787  68.530  1.00  0.00     0.000 HD 
HETATM   29  C   UNL     1     -10.189   7.953  71.141  1.00  0.00    -0.221 C  
HETATM   30  C   UNL     1     -10.317   8.872  72.108  1.00  0.00    -0.313 C  
ENDBRANCH  16  21
TORSDOF 1
ENDMDL
MODEL      117
REMARK 921   NORMALIZED FREE ENERGY PREDICTED BY IDOCK:   -2.14 KCAL/MOL
REMARK 922        TOTAL FREE ENERGY PREDICTED BY IDOCK:   -2.74 KCAL/MOL
REMARK 923 INTER-LIGAND FREE ENERGY PREDICTED BY IDOCK:   -1.90 KCAL/MOL
REMARK 924 INTRA-LIGAND FREE ENERGY PREDICTED BY IDOCK:   -0.84 KCAL/MOL
REMARK 927      BINDING AFFINITY PREDICTED BY RF-SCORE:    0.00 PKD
ROOT
HETATM    1  C   UNL     1      -5.799  12.764  69.953  1.00  0.00    -0.134 C  
HETATM    2  C   UNL     1      -5.345  14.136  69.435  1.00  0.00    -0.082 C  
HETATM    3  C   UNL     1      -6.279  15.276  69.912  1.00  0.00    -0.161 C  
HETATM    4  C   UNL     1      -5.126  14.091  67.927  1.00  0.00    -0.054 C  
HETATM    5  C   UNL     1      -7.700  15.246  69.378  1.00  0.00    -0.225 C  
HETATM    6  C   UNL     1      -5.696  16.647  69.551  1.00  0.00    -0.176 C  
HETATM    7  C   UNL     1      -8.790  15.076  70.146  1.00  0.00     0.627 C  
HETATM    8  C   UNL     1     -10.223  15.438  69.770  1.00  0.00    -0.278 C  
HETATM    9  C   UNL     1     -11.094  14.498  68.823  1.00  0.00    -0.267 C  
HETATM   10  C   UNL     1     -10.264  16.919  69.366  1.00  0.00    -0.208 C  
HETATM   11  C   UNL     1     -10.489  14.348  67.427  1.00  0.00    -0.261 C  
HETATM   12  C   UNL     1      -9.745  13.019  67.424  1.00  0.00    -0.213 C  
HETATM   13  C   UNL     1      -9.951  12.369  68.816  1.00  0.00    -0.040 C  
HETATM   14  C   UNL     1      -9.960  10.844  68.782  1.00  0.00    -0.203 C  
HETATM   15  C   UNL     1     -10.905  10.282  69.804  1.00  0.00    -0.332 C  
HETATM   16  C   UNL     1      -9.233  10.093  67.927  1.00  0.00    -0.144 C  
HETATM   17  C   UNL     1     -11.540  13.098  70.871  1.00  0.00     0.714 C  
HETATM   18  C   UNL     1     -12.334  10.691  69.420  1.00  0.00    -0.071 C  
HETATM   19  C   UNL     1     -11.277  13.027  69.346  1.00  0.00    -0.209 C  
HETATM   20  C   UNL     1     -12.418  12.121  68.776  1.00  0.00     0.548 C  
ENDROOT
BRANCH  16  21
HETATM   21  C   UNL     1      -9.253   8.639  67.917  1.00  0.00    -0.148 C  
HETATM   22  C   UNL     1      -8.434   7.783  68.539  1.00  0.00    -0.129 C  
HETATM   23  C   UNL     1      -8.696   6.288  68.395  1.00  0.00    -0.116 C  
HETATM   24  C   UNL     1      -7.472   5.555  67.845  1.00  0.00    -0.080 C  
HETATM   25  C   UNL     1      -6.228   5.872  68.679  1.00  0.00    -0.029 C  
HETATM   26  O   UNL     1      -7.252   5.904  66.477  1.00  0.00    -0.071 OA 
HETATM   27  C   UNL     1      -6.006   7.384  68.839  1.00  0.00    -0.026 C  
HETATM   28  H   UNL     1      -6.492   5.449  66.136  1.00  0.00     0.000 HD 
HETATM   29  C   UNL     1      -7.244   8.099  69.305  1.00  0.00    -0.072 C  
HETATM   30  C   UNL     1      -7.268   8.913  70.368  1.00  0.00    -0.060 C  
ENDBRANCH  16  21
TORSDOF 1
ENDMDL
MODEL      118
REMARK 921   NORMALIZED FREE ENERGY PREDICTED BY IDOCK:   -1.79 KCAL/MOL
REMARK 922        TOTAL FREE ENERGY PREDICTED BY IDOCK:   -2.37 KCAL/MOL
REMARK 923 INTER-LIGAND FREE ENERGY PREDICTED BY IDOCK:   -2.85 KCAL/MOL
REMARK 924 INTRA-LIGAND FREE ENERGY PREDICTED BY IDOCK:    0.49 KCAL/MOL
REMARK 927      BINDING AFFINITY PREDICTED BY RF-SCORE:    0.00 PKD
ROOT
HETATM    1  C   UNL     1      -6.581  11.157  63.879  1.00  0.00     1.122 C  
HETATM    2  C   UNL     1      -7.292   9.833  63.561  1.00  0.00    -0.123 C  
HETATM    3  C   UNL     1      -8.649  10.058  62.848  1.00  0.00    -0.194 C  
HETATM    4  C   UNL     1      -7.373   8.958  64.806  1.00  0.00    -0.097 C  
HETATM    5  C   UNL     1      -9.727  10.750  63.663  1.00  0.00    -0.376 C  
HETATM    6  C   UNL     1      -9.240   8.728  62.366  1.00  0.00     0.457 C  
HETATM    7  C   UNL     1     -10.245  11.953  63.358  1.00  0.00    -0.478 C  
HETATM    8  C   UNL     1     -11.572  12.514  63.858  1.00  0.00    -0.516 C  
HETATM    9  C   UNL     1     -11.712  13.141  65.316  1.00  0.00    -0.375 C  
HETATM   10  C   UNL     1     -12.688  11.516  63.513  1.00  0.00    -0.043 C  
HETATM   11  C   UNL     1     -11.427  12.124  66.422  1.00  0.00    -0.430 C  
HETATM   12  C   UNL     1      -9.991  12.368  66.868  1.00  0.00    -0.223 C  
HETATM   13  C   UNL     1      -9.445  13.562  66.045  1.00  0.00    -0.109 C  
HETATM   14  C   UNL     1      -8.414  14.399  66.794  1.00  0.00    -0.076 C  
HETATM   15  C   UNL     1      -8.516  15.850  66.424  1.00  0.00    -0.348 C  
HETATM   16  C   UNL     1      -7.536  13.905  67.694  1.00  0.00    -0.187 C  
HETATM   17  C   UNL     1     -10.706  15.240  64.349  1.00  0.00     0.180 C  
HETATM   18  C   UNL     1      -9.874  16.378  66.907  1.00  0.00    -0.266 C  
HETATM   19  C   UNL     1     -10.740  14.342  65.610  1.00  0.00    -0.321 C  
HETATM   20  C   UNL     1     -11.027  15.318  66.800  1.00  0.00    -0.306 C  
ENDROOT
BRANCH  16  21
HETATM   21  C   UNL     1      -6.556  14.722  68.393  1.00  0.00    -0.101 C  
HETATM   22  C   UNL     1      -6.757  15.781  69.185  1.00  0.00    -0.154 C  
HETATM   23  C   UNL     1      -5.549  16.446  69.835  1.00  0.00    -0.185 C  
HETATM   24  C   UNL     1      -5.475  17.934  69.491  1.00  0.00    -0.204 C  
HETATM   25  C   UNL     1      -6.797  18.634  69.817  1.00  0.00     0.076 C  
HETATM   26  O   UNL     1      -5.149  18.113  68.111  1.00  0.00    -0.159 OA 
HETATM   27  C   UNL     1      -8.003  17.925  69.181  1.00  0.00     0.045 C  
HETATM   28  H   UNL     1      -5.104  19.037  67.897  1.00  0.00     0.000 HD 
HETATM   29  C   UNL     1      -8.015  16.448  69.464  1.00  0.00     0.140 C  
HETATM   30  C   UNL     1      -9.069  15.806  69.984  1.00  0.00     0.399 C  
ENDBRANCH  16  21
TORSDOF 1
ENDMDL
MODEL      119
REMARK 921   NORMALIZED FREE ENERGY PREDICTED BY IDOCK:   -1.44 KCAL/MOL
REMARK 922        TOTAL FREE ENERGY PREDICTED BY IDOCK:   -2.00 KCAL/MOL
REMARK 923 INTER-LIGAND FREE ENERGY PREDICTED BY IDOCK:   -1.09 KCAL/MOL
REMARK 924 INTRA-LIGAND FREE ENERGY PREDICTED BY IDOCK:   -0.91 KCAL/MOL
REMARK 927      BINDING AFFINITY PREDICTED BY RF-SCORE:    0.00 PKD
ROOT
HETATM    1  C   UNL     1     -10.626  11.539  65.925  1.00  0.00    -0.318 C  
HETATM    2  C   UNL     1     -10.148  10.237  65.265  1.00  0.00    -0.359 C  
HETATM    3  C   UNL     1      -9.321   9.362  66.238  1.00  0.00    -0.253 C  
HETATM    4  C   UNL     1      -9.455  10.533  63.940  1.00  0.00    -0.338 C  
HETATM    5  C   UNL     1      -7.989   9.936  66.688  1.00  0.00    -0.113 C  
HETATM    6  C   UNL     1      -9.028   7.988  65.623  1.00  0.00    -0.102 C  
HETATM    7  C   UNL     1      -7.702  10.262  67.961  1.00  0.00    -0.089 C  
HETATM    8  C   UNL     1      -6.308  10.442  68.551  1.00  0.00    -0.051 C  
HETATM    9  C   UNL     1      -5.476  11.782  68.321  1.00  0.00    -0.042 C  
HETATM   10  C   UNL     1      -5.495   9.166  68.288  1.00  0.00    -0.038 C  
HETATM   11  C   UNL     1      -5.168  12.035  66.845  1.00  0.00    -0.037 C  
HETATM   12  C   UNL     1      -6.201  13.043  66.359  1.00  0.00     2.614 C  
HETATM   13  C   UNL     1      -7.095  13.412  67.570  1.00  0.00    -0.154 C  
HETATM   14  C   UNL     1      -7.635  14.838  67.518  1.00  0.00    -0.215 C  
HETATM   15  C   UNL     1      -7.745  15.429  68.893  1.00  0.00    -0.165 C  
HETATM   16  C   UNL     1      -7.951  15.495  66.382  1.00  0.00     0.159 C  
HETATM   17  C   UNL     1      -6.852  12.781  70.181  1.00  0.00     0.704 C  
HETATM   18  C   UNL     1      -6.332  15.567  69.476  1.00  0.00    -0.155 C  
HETATM   19  C   UNL     1      -6.191  13.092  68.816  1.00  0.00    -0.079 C  
HETATM   20  C   UNL     1      -5.368  14.403  69.049  1.00  0.00    -0.085 C  
ENDROOT
BRANCH  16  21
HETATM   21  C   UNL     1      -8.470  16.854  66.357  1.00  0.00    -0.325 C  
HETATM   22  C   UNL     1      -7.801  18.006  66.231  1.00  0.00    -0.288 C  
HETATM   23  C   UNL     1      -8.593  19.309  66.196  1.00  0.00    -0.267 C  
HETATM   24  C   UNL     1      -8.130  20.276  67.285  1.00  0.00    -0.338 C  
HETATM   25  C   UNL     1      -6.615  20.488  67.216  1.00  0.00    -0.311 C  
HETATM   26  O   UNL     1      -8.502  19.791  68.576  1.00  0.00    -0.316 OA 
HETATM   27  C   UNL     1      -5.842  19.161  67.218  1.00  0.00    -0.174 C  
HETATM   28  H   UNL     1      -8.214  20.392  69.253  1.00  0.00     0.000 HD 
HETATM   29  C   UNL     1      -6.363  18.192  66.193  1.00  0.00    -0.260 C  
HETATM   30  C   UNL     1      -5.585  17.593  65.282  1.00  0.00     0.308 C  
ENDBRANCH  16  21
TORSDOF 1
ENDMDL
MODEL      120
REMARK 921   NORMALIZED FREE ENERGY PREDICTED BY IDOCK:   -1.39 KCAL/MOL
REMARK 922        TOTAL FREE ENERGY PREDICTED BY IDOCK:   -1.95 KCAL/MOL
REMARK 923 INTER-LIGAND FREE ENERGY PREDICTED BY IDOCK:   -1.47 KCAL/MOL
REMARK 924 INTRA-LIGAND FREE ENERGY PREDICTED BY IDOCK:   -0.47 KCAL/MOL
REMARK 927      BINDING AFFINITY PREDICTED BY RF-SCORE:    0.00 PKD
ROOT
HETATM    1  C   UNL     1     -12.363  13.942  70.353  1.00  0.00    -0.433 C  
HETATM    2  C   UNL     1     -11.581  15.116  70.960  1.00  0.00    -0.390 C  
HETATM    3  C   UNL     1     -11.623  16.372  70.054  1.00  0.00     0.002 C  
HETATM    4  C   UNL     1     -10.178  14.674  71.359  1.00  0.00     2.164 C  
HETATM    5  C   UNL     1     -10.925  16.253  68.711  1.00  0.00    -0.343 C  
HETATM    6  C   UNL     1     -11.009  17.581  70.769  1.00  0.00     1.594 C  
HETATM    7  C   UNL     1     -11.556  16.325  67.526  1.00  0.00     0.299 C  
HETATM    8  C   UNL     1     -10.909  16.626  66.178  1.00  0.00    -0.024 C  
HETATM    9  C   UNL     1     -10.121  15.502  65.367  1.00  0.00    -0.387 C  
HETATM   10  C   UNL     1     -10.142  17.952  66.287  1.00  0.00    -0.351 C  
HETATM   11  C   UNL     1      -8.904  14.974  66.128  1.00  0.00    -0.047 C  
HETATM   12  C   UNL     1      -9.339  13.665  66.774  1.00  0.00    -0.269 C  
HETATM   13  C   UNL     1     -10.809  13.406  66.356  1.00  0.00    -0.294 C  
HETATM   14  C   UNL     1     -11.162  11.927  66.247  1.00  0.00    -0.392 C  
HETATM   15  C   UNL     1     -12.154  11.681  65.148  1.00  0.00     0.334 C  
HETATM   16  C   UNL     1     -10.632  10.955  67.021  1.00  0.00    -0.307 C  
HETATM   17  C   UNL     1     -12.376  14.698  64.580  1.00  0.00    -0.416 C  
HETATM   18  C   UNL     1     -11.488  12.025  63.808  1.00  0.00    -0.547 C  
HETATM   19  C   UNL     1     -10.970  14.225  65.023  1.00  0.00    -0.394 C  
HETATM   20  C   UNL     1     -10.498  13.241  63.900  1.00  0.00     0.014 C  
ENDROOT
BRANCH  16  21
HETATM   21  C   UNL     1     -10.987   9.549  66.903  1.00  0.00     0.064 C  
HETATM   22  C   UNL     1     -10.666   8.532  67.710  1.00  0.00    -0.170 C  
HETATM   23  C   UNL     1     -11.202   7.143  67.381  1.00  0.00    -0.057 C  
HETATM   24  C   UNL     1     -10.070   6.124  67.242  1.00  0.00    -0.165 C  
HETATM   25  C   UNL     1      -9.165   6.144  68.476  1.00  0.00    -0.115 C  
HETATM   26  O   UNL     1      -9.306   6.384  66.063  1.00  0.00    -0.308 OA 
HETATM   27  C   UNL     1      -8.667   7.559  68.808  1.00  0.00    -0.128 C  
HETATM   28  H   UNL     1      -8.602   5.751  65.977  1.00  0.00     0.000 HD 
HETATM   29  C   UNL     1      -9.785   8.563  68.862  1.00  0.00    -0.172 C  
HETATM   30  C   UNL     1      -9.993   9.378  69.905  1.00  0.00    -0.237 C  
ENDBRANCH  16  21
TORSDOF 1
ENDMDL
MODEL      121
REMARK 921   NORMALIZED FREE ENERGY PREDICTED BY IDOCK:   -1.03 KCAL/MOL
REMARK 922        TOTAL FREE ENERGY PREDICTED BY IDOCK:   -1.56 KCAL/MOL
REMARK 923 INTER-LIGAND FREE ENERGY PREDICTED BY IDOCK:   -0.70 KCAL/MOL
REMARK 924 INTRA-LIGAND FREE ENERGY PREDICTED BY IDOCK:   -0.86 KCAL/MOL
REMARK 927      BINDING AFFINITY PREDICTED BY RF-SCORE:    0.00 PKD
ROOT
HETATM    1  C   UNL     1     -11.769   7.097  69.607  1.00  0.00     0.116 C  
HETATM    2  C   UNL     1     -11.941   7.206  71.129  1.00  0.00    -0.381 C  
HETATM    3  C   UNL     1     -11.020   8.289  71.743  1.00  0.00    -0.342 C  
HETATM    4  C   UNL     1     -11.819   5.833  71.780  1.00  0.00     0.047 C  
HETATM    5  C   UNL     1      -9.528   8.023  71.663  1.00  0.00    -0.213 C  
HETATM    6  C   UNL     1     -11.354   8.515  73.223  1.00  0.00     1.091 C  
HETATM    7  C   UNL     1      -8.664   8.783  70.967  1.00  0.00    -0.248 C  
HETATM    8  C   UNL     1      -7.153   8.837  71.162  1.00  0.00    -0.089 C  
HETATM    9  C   UNL     1      -6.198   7.709  70.566  1.00  0.00    -0.037 C  
HETATM   10  C   UNL     1      -6.860   9.171  72.632  1.00  0.00     0.390 C  
HETATM   11  C   UNL     1      -6.486   6.326  71.152  1.00  0.00    -0.049 C  
HETATM   12  C   UNL     1      -7.351   5.600  70.130  1.00  0.00    -0.069 C  
HETATM   13  C   UNL     1      -7.537   6.550  68.919  1.00  0.00    -0.100 C  
HETATM   14  C   UNL     1      -7.686   5.821  67.588  1.00  0.00    -0.097 C  
HETATM   15  C   UNL     1      -7.064   6.600  66.467  1.00  0.00    -0.068 C  
HETATM   16  C   UNL     1      -8.281   4.618  67.438  1.00  0.00    -0.101 C  
HETATM   17  C   UNL     1      -6.381   8.924  68.365  1.00  0.00    -0.055 C  
HETATM   18  C   UNL     1      -5.549   6.669  66.707  1.00  0.00    -0.014 C  
HETATM   19  C   UNL     1      -6.300   7.518  69.008  1.00  0.00    -0.039 C  
HETATM   20  C   UNL     1      -5.166   6.776  68.226  1.00  0.00    -0.012 C  
ENDROOT
BRANCH  16  21
HETATM   21  C   UNL     1      -8.417   3.943  66.156  1.00  0.00    -0.110 C  
HETATM   22  C   UNL     1      -7.471   3.369  65.404  1.00  0.00    -0.077 C  
HETATM   23  C   UNL     1      -7.886   2.688  64.105  1.00  0.00    -0.077 C  
HETATM   24  C   UNL     1      -7.130   3.261  62.906  1.00  0.00    -0.047 C  
HETATM   25  C   UNL     1      -5.619   3.228  63.149  1.00  0.00    -0.009 C  
HETATM   26  O   UNL     1      -7.558   4.597  62.637  1.00  0.00    -0.056 OA 
HETATM   27  C   UNL     1      -5.230   3.888  64.480  1.00  0.00    -0.009 C  
HETATM   28  H   UNL     1      -7.089   4.953  61.892  1.00  0.00     0.000 HD 
HETATM   29  C   UNL     1      -6.039   3.369  65.637  1.00  0.00    -0.027 C  
HETATM   30  C   UNL     1      -5.493   2.890  66.762  1.00  0.00    -0.020 C  
ENDBRANCH  16  21
TORSDOF 1
ENDMDL
MODEL      122
REMARK 921   NORMALIZED FREE ENERGY PREDICTED BY IDOCK:    1.24 KCAL/MOL
REMARK 922        TOTAL FREE ENERGY PREDICTED BY IDOCK:    0.84 KCAL/MOL
REMARK 923 INTER-LIGAND FREE ENERGY PREDICTED BY IDOCK:   -2.14 KCAL/MOL
REMARK 924 INTRA-LIGAND FREE ENERGY PREDICTED BY IDOCK:    2.98 KCAL/MOL
REMARK 927      BINDING AFFINITY PREDICTED BY RF-SCORE:    0.00 PKD
ROOT
HETATM    1  C   UNL     1     -10.573   8.673  66.610  1.00  0.00    -0.131 C  
HETATM    2  C   UNL     1     -10.638   9.894  65.679  1.00  0.00     0.206 C  
HETATM    3  C   UNL     1      -9.256  10.235  65.070  1.00  0.00    -0.259 C  
HETATM    4  C   UNL     1     -11.324  11.062  66.378  1.00  0.00     0.097 C  
HETATM    5  C   UNL     1      -8.190  10.701  66.045  1.00  0.00    -0.158 C  
HETATM    6  C   UNL     1      -9.386  11.323  63.997  1.00  0.00    -0.134 C  
HETATM    7  C   UNL     1      -7.053  10.029  66.295  1.00  0.00    -0.105 C  
HETATM    8  C   UNL     1      -5.785  10.605  66.916  1.00  0.00    -0.057 C  
HETATM    9  C   UNL     1      -5.660  10.832  68.489  1.00  0.00    -0.040 C  
HETATM   10  C   UNL     1      -5.340  11.819  66.087  1.00  0.00     0.362 C  
HETATM   11  C   UNL     1      -6.687  11.832  69.020  1.00  0.00    -0.102 C  
HETATM   12  C   UNL     1      -7.821  11.005  69.613  1.00  0.00     0.201 C  
HETATM   13  C   UNL     1      -7.436   9.512  69.462  1.00  0.00    -0.092 C  
HETATM   14  C   UNL     1      -7.990   8.623  70.571  1.00  0.00    -0.107 C  
HETATM   15  C   UNL     1      -7.042   7.508  70.902  1.00  0.00    -0.059 C  
HETATM   16  C   UNL     1      -9.170   8.826  71.196  1.00  0.00    -0.299 C  
HETATM   17  C   UNL     1      -5.128   8.373  68.652  1.00  0.00    -0.029 C  
HETATM   18  C   UNL     1      -5.762   8.118  71.491  1.00  0.00    -0.035 C  
HETATM   19  C   UNL     1      -5.867   9.537  69.357  1.00  0.00    -0.034 C  
HETATM   20  C   UNL     1      -5.374   9.494  70.842  1.00  0.00    -0.042 C  
ENDROOT
BRANCH  16  21
HETATM   21  C   UNL     1      -9.682   7.961  72.248  1.00  0.00    -0.269 C  
HETATM   22  C   UNL     1      -9.740   6.625  72.283  1.00  0.00    -0.155 C  
HETATM   23  C   UNL     1     -10.294   5.952  73.533  1.00  0.00    -0.256 C  
HETATM   24  C   UNL     1     -11.467   5.030  73.200  1.00  0.00    -0.282 C  
HETATM   25  C   UNL     1     -11.084   4.037  72.100  1.00  0.00     0.541 C  
HETATM   26  O   UNL     1     -12.606   5.795  72.801  1.00  0.00    -0.511 OA 
HETATM   27  C   UNL     1     -10.496   4.737  70.865  1.00  0.00    -0.107 C  
HETATM   28  H   UNL     1     -13.335   5.222  72.594  1.00  0.00     0.000 HD 
HETATM   29  C   UNL     1      -9.396   5.699  71.221  1.00  0.00    -0.171 C  
HETATM   30  C   UNL     1      -8.182   5.673  70.654  1.00  0.00    -0.118 C  
ENDBRANCH  16  21
TORSDOF 1
ENDMDL
MODEL      123
REMARK 921   NORMALIZED FREE ENERGY PREDICTED BY IDOCK:    1.32 KCAL/MOL
REMARK 922        TOTAL FREE ENERGY PREDICTED BY IDOCK:    0.93 KCAL/MOL
REMARK 923 INTER-LIGAND FREE ENERGY PREDICTED BY IDOCK:   -0.14 KCAL/MOL
REMARK 924 INTRA-LIGAND FREE ENERGY PREDICTED BY IDOCK:    1.07 KCAL/MOL
REMARK 927      BINDING AFFINITY PREDICTED BY RF-SCORE:    0.00 PKD
ROOT
HETATM    1  C   UNL     1      -9.843   7.236  65.776  1.00  0.00     0.658 C  
HETATM    2  C   UNL     1      -8.772   7.240  64.674  1.00  0.00     0.393 C  
HETATM    3  C   UNL     1      -8.117   5.849  64.495  1.00  0.00    -0.132 C  
HETATM    4  C   UNL     1      -7.783   8.378  64.897  1.00  0.00    -0.106 C  
HETATM    5  C   UNL     1      -7.293   5.339  65.664  1.00  0.00    -0.076 C  
HETATM    6  C   UNL     1      -7.203   5.830  63.264  1.00  0.00    -0.053 C  
HETATM    7  C   UNL     1      -7.602   4.246  66.383  1.00  0.00    -0.089 C  
HETATM    8  C   UNL     1      -6.648   3.452  67.268  1.00  0.00    -0.038 C  
HETATM    9  C   UNL     1      -6.261   3.954  68.731  1.00  0.00    -0.032 C  
HETATM   10  C   UNL     1      -5.434   3.029  66.427  1.00  0.00    -0.017 C  
HETATM   11  C   UNL     1      -5.541   5.303  68.717  1.00  0.00    -0.015 C  
HETATM   12  C   UNL     1      -6.594   6.353  69.047  1.00  0.00    -0.048 C  
HETATM   13  C   UNL     1      -7.931   5.609  69.295  1.00  0.00    -0.096 C  
HETATM   14  C   UNL     1      -8.839   6.305  70.303  1.00  0.00    -0.153 C  
HETATM   15  C   UNL     1      -9.617   5.311  71.113  1.00  0.00    -0.218 C  
HETATM   16  C   UNL     1      -8.917   7.643  70.466  1.00  0.00    -0.151 C  
HETATM   17  C   UNL     1      -8.455   2.970  69.488  1.00  0.00    -0.100 C  
HETATM   18  C   UNL     1      -8.630   4.503  71.968  1.00  0.00    -0.120 C  
HETATM   19  C   UNL     1      -7.483   4.157  69.699  1.00  0.00    -0.053 C  
HETATM   20  C   UNL     1      -7.261   4.233  71.247  1.00  0.00    -0.040 C  
ENDROOT
BRANCH  16  21
HETATM   21  C   UNL     1      -9.795   8.286  71.431  1.00  0.00    -0.240 C  
HETATM   22  C   UNL     1     -11.128   8.219  71.529  1.00  0.00    -0.315 C  
HETATM   23  C   UNL     1     -11.814   8.965  72.668  1.00  0.00    -0.002 C  
HETATM   24  C   UNL     1     -12.868   9.940  72.143  1.00  0.00    -0.345 C  
HETATM   25  C   UNL     1     -13.851   9.229  71.209  1.00  0.00    -0.198 C  
HETATM   26  O   UNL     1     -12.246  11.033  71.466  1.00  0.00    -0.242 OA 
HETATM   27  C   UNL     1     -13.134   8.455  70.092  1.00  0.00     1.787 C  
HETATM   28  H   UNL     1     -12.901  11.639  71.140  1.00  0.00     0.000 HD 
HETATM   29  C   UNL     1     -12.047   7.560  70.620  1.00  0.00    -0.116 C  
HETATM   30  C   UNL     1     -11.961   6.256  70.330  1.00  0.00     0.015 C  
ENDBRANCH  16  21
TORSDOF 1
ENDMDL
MODEL      124
REMARK 921   NORMALIZED FREE ENERGY PREDICTED BY IDOCK:    1.91 KCAL/MOL
REMARK 922        TOTAL FREE ENERGY PREDICTED BY IDOCK:    1.55 KCAL/MOL
REMARK 923 INTER-LIGAND FREE ENERGY PREDICTED BY IDOCK:    2.56 KCAL/MOL
REMARK 924 INTRA-LIGAND FREE ENERGY PREDICTED BY IDOCK:   -1.01 KCAL/MOL
REMARK 927      BINDING AFFINITY PREDICTED BY RF-SCORE:    0.00 PKD
ROOT
HETATM    1  C   UNL     1     -10.150  15.318  64.606  1.00  0.00     0.373 C  
HETATM    2  C   UNL     1     -11.160  16.054  65.500  1.00  0.00    -0.108 C  
HETATM    3  C   UNL     1     -10.558  16.417  66.880  1.00  0.00    -0.252 C  
HETATM    4  C   UNL     1     -12.473  15.284  65.569  1.00  0.00     0.635 C  
HETATM    5  C   UNL     1     -10.204  15.250  67.784  1.00  0.00    -0.237 C  
HETATM    6  C   UNL     1     -11.511  17.320  67.671  1.00  0.00     0.584 C  
HETATM    7  C   UNL     1      -8.952  14.956  68.179  1.00  0.00    -0.176 C  
HETATM    8  C   UNL     1      -8.564  14.093  69.375  1.00  0.00     0.475 C  
HETATM    9  C   UNL     1      -8.609  12.502  69.299  1.00  0.00     0.905 C  
HETATM   10  C   UNL     1      -9.239  14.664  70.631  1.00  0.00     2.075 C  
HETATM   11  C   UNL     1     -10.017  11.966  69.037  1.00  0.00     0.078 C  
HETATM   12  C   UNL     1     -10.087  11.660  67.547  1.00  0.00    -0.209 C  
HETATM   13  C   UNL     1      -8.698  11.982  66.940  1.00  0.00    -0.193 C  
HETATM   14  C   UNL     1      -8.334  11.103  65.748  1.00  0.00    -0.041 C  
HETATM   15  C   UNL     1      -6.861  10.822  65.707  1.00  0.00    -0.054 C  
HETATM   16  C   UNL     1      -9.224  10.616  64.855  1.00  0.00    -0.252 C  
HETATM   17  C   UNL     1      -6.374  12.642  68.140  1.00  0.00    -0.080 C  
HETATM   18  C   UNL     1      -6.493   9.983  66.939  1.00  0.00    -0.069 C  
HETATM   19  C   UNL     1      -7.718  11.874  68.165  1.00  0.00    -0.126 C  
HETATM   20  C   UNL     1      -7.323  10.360  68.217  1.00  0.00    -0.088 C  
ENDROOT
BRANCH  16  21
HETATM   21  C   UNL     1      -8.853   9.784  63.722  1.00  0.00    -0.259 C  
HETATM   22  C   UNL     1      -8.491   8.496  63.709  1.00  0.00    -0.033 C  
HETATM   23  C   UNL     1      -8.185   7.838  62.368  1.00  0.00    -0.125 C  
HETATM   24  C   UNL     1      -6.781   7.233  62.348  1.00  0.00    -0.068 C  
HETATM   25  C   UNL     1      -6.575   6.296  63.541  1.00  0.00    -0.033 C  
HETATM   26  O   UNL     1      -5.792   8.264  62.354  1.00  0.00    -0.077 OA 
HETATM   27  C   UNL     1      -6.924   6.970  64.877  1.00  0.00    -0.051 C  
HETATM   28  H   UNL     1      -4.919   7.888  62.342  1.00  0.00     0.000 HD 
HETATM   29  C   UNL     1      -8.277   7.628  64.851  1.00  0.00    -0.098 C  
HETATM   30  C   UNL     1      -9.227   7.394  65.766  1.00  0.00     0.063 C  
ENDBRANCH  16  21
TORSDOF 1
ENDMDL
MODEL      125
REMARK 921   NORMALIZED FREE ENERGY PREDICTED BY IDOCK:    2.06 KCAL/MOL
REMARK 922        TOTAL FREE ENERGY PREDICTED BY IDOCK:    1.71 KCAL/MOL
REMARK 923 INTER-LIGAND FREE ENERGY PREDICTED BY IDOCK:    2.43 KCAL/MOL
REMARK 924 INTRA-LIGAND FREE ENERGY PREDICTED BY IDOCK:   -0.73 KCAL/MOL
REMARK 927      BINDING AFFINITY PREDICTED BY RF-SCORE:    0.00 PKD
ROOT
HETATM    1  C   UNL     1      -5.774  16.582  70.216  1.00  0.00    -0.160 C  
HETATM    2  C   UNL     1      -5.349  17.836  69.438  1.00  0.00    -0.194 C  
HETATM    3  C   UNL     1      -6.308  19.027  69.684  1.00  0.00    -0.280 C  
HETATM    4  C   UNL     1      -5.126  17.502  67.967  1.00  0.00    -0.130 C  
HETATM    5  C   UNL     1      -7.727  18.862  69.169  1.00  0.00    -0.181 C  
HETATM    6  C   UNL     1      -5.754  20.313  69.061  1.00  0.00    -0.323 C  
HETATM    7  C   UNL     1      -8.815  18.823  69.958  1.00  0.00     1.509 C  
HETATM    8  C   UNL     1     -10.254  19.073  69.521  1.00  0.00     0.268 C  
HETATM    9  C   UNL     1     -11.103  17.947  68.779  1.00  0.00     0.699 C  
HETATM   10  C   UNL     1     -10.327  20.445  68.836  1.00  0.00    -0.005 C  
HETATM   11  C   UNL     1     -10.492  17.539  67.438  1.00  0.00    -0.342 C  
HETATM   12  C   UNL     1      -9.719  16.252  67.694  1.00  0.00    -0.234 C  
HETATM   13  C   UNL     1      -9.914  15.882  69.186  1.00  0.00    -0.245 C  
HETATM   14  C   UNL     1      -9.890  14.381  69.452  1.00  0.00     0.137 C  
HETATM   15  C   UNL     1     -10.824  14.009  70.566  1.00  0.00     0.803 C  
HETATM   16  C   UNL     1      -9.144  13.493  68.759  1.00  0.00     0.090 C  
HETATM   17  C   UNL     1     -11.523  16.965  71.062  1.00  0.00     0.637 C  
HETATM   18  C   UNL     1     -12.261  14.304  70.112  1.00  0.00    -0.407 C  
HETATM   19  C   UNL     1     -11.255  16.603  69.580  1.00  0.00    -0.050 C  
HETATM   20  C   UNL     1     -12.375  15.578  69.201  1.00  0.00    -0.064 C  
ENDROOT
BRANCH  16  21
HETATM   21  C   UNL     1      -9.133  12.065  69.033  1.00  0.00     0.334 C  
HETATM   22  C   UNL     1      -8.132  11.306  69.494  1.00  0.00     0.378 C  
HETATM   23  C   UNL     1      -8.392   9.823  69.734  1.00  0.00    -0.189 C  
HETATM   24  C   UNL     1      -7.411   8.948  68.954  1.00  0.00    -0.075 C  
HETATM   25  C   UNL     1      -5.965   9.361  69.242  1.00  0.00    -0.037 C  
HETATM   26  O   UNL     1      -7.677   9.025  67.553  1.00  0.00    -0.095 OA 
HETATM   27  C   UNL     1      -5.737  10.866  69.027  1.00  0.00    -0.040 C  
HETATM   28  H   UNL     1      -7.067   8.481  67.068  1.00  0.00     0.000 HD 
HETATM   29  C   UNL     1      -6.760  11.708  69.738  1.00  0.00    -0.013 C  
HETATM   30  C   UNL     1      -6.441  12.707  70.571  1.00  0.00     0.642 C  
ENDBRANCH  16  21
TORSDOF 1
ENDMDL
MODEL      126
REMARK 921   NORMALIZED FREE ENERGY PREDICTED BY IDOCK:    2.13 KCAL/MOL
REMARK 922        TOTAL FREE ENERGY PREDICTED BY IDOCK:    1.78 KCAL/MOL
REMARK 923 INTER-LIGAND FREE ENERGY PREDICTED BY IDOCK:    0.37 KCAL/MOL
REMARK 924 INTRA-LIGAND FREE ENERGY PREDICTED BY IDOCK:    1.41 KCAL/MOL
REMARK 927      BINDING AFFINITY PREDICTED BY RF-SCORE:    0.00 PKD
ROOT
HETATM    1  C   UNL     1      -5.774  16.582  70.216  1.00  0.00    -0.160 C  
HETATM    2  C   UNL     1      -5.349  17.836  69.438  1.00  0.00    -0.194 C  
HETATM    3  C   UNL     1      -6.308  19.027  69.684  1.00  0.00    -0.280 C  
HETATM    4  C   UNL     1      -5.126  17.502  67.967  1.00  0.00    -0.130 C  
HETATM    5  C   UNL     1      -7.727  18.862  69.169  1.00  0.00    -0.181 C  
HETATM    6  C   UNL     1      -5.754  20.313  69.061  1.00  0.00    -0.323 C  
HETATM    7  C   UNL     1      -8.815  18.823  69.958  1.00  0.00     1.509 C  
HETATM    8  C   UNL     1     -10.254  19.073  69.521  1.00  0.00     0.268 C  
HETATM    9  C   UNL     1     -11.103  17.947  68.779  1.00  0.00     0.699 C  
HETATM   10  C   UNL     1     -10.327  20.445  68.836  1.00  0.00    -0.005 C  
HETATM   11  C   UNL     1     -10.492  17.539  67.438  1.00  0.00    -0.342 C  
HETATM   12  C   UNL     1      -9.719  16.252  67.694  1.00  0.00    -0.234 C  
HETATM   13  C   UNL     1      -9.914  15.882  69.186  1.00  0.00    -0.245 C  
HETATM   14  C   UNL     1      -9.890  14.381  69.452  1.00  0.00     0.137 C  
HETATM   15  C   UNL     1     -10.824  14.009  70.566  1.00  0.00     0.803 C  
HETATM   16  C   UNL     1      -9.144  13.493  68.759  1.00  0.00     0.090 C  
HETATM   17  C   UNL     1     -11.523  16.965  71.062  1.00  0.00     0.637 C  
HETATM   18  C   UNL     1     -12.261  14.304  70.112  1.00  0.00    -0.407 C  
HETATM   19  C   UNL     1     -11.255  16.603  69.580  1.00  0.00    -0.050 C  
HETATM   20  C   UNL     1     -12.375  15.578  69.201  1.00  0.00    -0.064 C  
ENDROOT
BRANCH  16  21
HETATM   21  C   UNL     1      -9.133  12.065  69.033  1.00  0.00     0.334 C  
HETATM   22  C   UNL     1     -10.165  11.216  69.108  1.00  0.00    -0.163 C  
HETATM   23  C   UNL     1      -9.879   9.742  69.375  1.00  0.00    -0.217 C  
HETATM   24  C   UNL     1     -10.626   9.241  70.611  1.00  0.00    -0.262 C  
HETATM   25  C   UNL     1     -12.120   9.557  70.509  1.00  0.00    -0.148 C  
HETATM   26  O   UNL     1     -10.078   9.822  71.796  1.00  0.00     0.114 OA 
HETATM   27  C   UNL     1     -12.381  11.040  70.205  1.00  0.00    -0.389 C  
HETATM   28  H   UNL     1     -10.542   9.511  72.564  1.00  0.00     0.000 HD 
HETATM   29  C   UNL     1     -11.578  11.536  69.034  1.00  0.00    -0.383 C  
HETATM   30  C   UNL     1     -12.119  12.166  67.983  1.00  0.00    -0.043 C  
ENDBRANCH  16  21
TORSDOF 1
ENDMDL
MODEL      127
REMARK 921   NORMALIZED FREE ENERGY PREDICTED BY IDOCK:    3.84 KCAL/MOL
REMARK 922        TOTAL FREE ENERGY PREDICTED BY IDOCK:    3.59 KCAL/MOL
REMARK 923 INTER-LIGAND FREE ENERGY PREDICTED BY IDOCK:    4.41 KCAL/MOL
REMARK 924 INTRA-LIGAND FREE ENERGY PREDICTED BY IDOCK:   -0.82 KCAL/MOL
REMARK 927      BINDING AFFINITY PREDICTED BY RF-SCORE:    0.00 PKD
ROOT
HETATM    1  C   UNL     1      -7.039   9.621  65.021  1.00  0.00    -0.116 C  
HETATM    2  C   UNL     1      -7.533  10.162  63.671  1.00  0.00    -0.129 C  
HETATM    3  C   UNL     1      -7.956  11.649  63.761  1.00  0.00     1.701 C  
HETATM    4  C   UNL     1      -8.596   9.240  63.084  1.00  0.00    -0.209 C  
HETATM    5  C   UNL     1      -9.165  11.952  64.628  1.00  0.00     0.286 C  
HETATM    6  C   UNL     1      -8.253  12.217  62.368  1.00  0.00     2.943 C  
HETATM    7  C   UNL     1      -9.121  12.698  65.746  1.00  0.00     0.265 C  
HETATM    8  C   UNL     1     -10.308  13.376  66.422  1.00  0.00    -0.288 C  
HETATM    9  C   UNL     1     -11.314  12.558  67.349  1.00  0.00    -0.371 C  
HETATM   10  C   UNL     1     -11.015  14.269  65.392  1.00  0.00    -0.335 C  
HETATM   11  C   UNL     1     -12.046  11.453  66.587  1.00  0.00     1.051 C  
HETATM   12  C   UNL     1     -11.307  10.158  66.898  1.00  0.00     0.466 C  
HETATM   13  C   UNL     1     -10.159  10.502  67.880  1.00  0.00    -0.204 C  
HETATM   14  C   UNL     1      -9.816   9.369  68.841  1.00  0.00    -0.176 C  
HETATM   15  C   UNL     1      -9.395   9.897  70.180  1.00  0.00    -0.200 C  
HETATM   16  C   UNL     1      -9.904   8.055  68.537  1.00  0.00    -0.185 C  
HETATM   17  C   UNL     1      -9.595  12.800  69.176  1.00  0.00     0.561 C  
HETATM   18  C   UNL     1     -10.597  10.605  70.822  1.00  0.00     0.772 C  
HETATM   19  C   UNL     1     -10.639  11.831  68.569  1.00  0.00    -0.242 C  
HETATM   20  C   UNL     1     -11.506  11.352  69.781  1.00  0.00    -0.376 C  
ENDROOT
BRANCH  16  21
HETATM   21  C   UNL     1      -9.567   6.990  69.468  1.00  0.00    -0.153 C  
HETATM   22  C   UNL     1      -8.444   6.266  69.545  1.00  0.00    -0.129 C  
HETATM   23  C   UNL     1      -8.324   5.223  70.650  1.00  0.00    -0.113 C  
HETATM   24  C   UNL     1      -8.033   3.834  70.081  1.00  0.00    -0.047 C  
HETATM   25  C   UNL     1      -6.818   3.871  69.150  1.00  0.00    -0.046 C  
HETATM   26  O   UNL     1      -9.174   3.331  69.384  1.00  0.00    -0.125 OA 
HETATM   27  C   UNL     1      -6.948   4.953  68.068  1.00  0.00    -0.061 C  
HETATM   28  H   UNL     1      -8.994   2.468  69.030  1.00  0.00     0.000 HD 
HETATM   29  C   UNL     1      -7.312   6.296  68.640  1.00  0.00    -0.086 C  
HETATM   30  C   UNL     1      -6.621   7.415  68.388  1.00  0.00    -0.046 C  
ENDBRANCH  16  21
TORSDOF 1
ENDMDL
MODEL      128
REMARK 921   NORMALIZED FREE ENERGY PREDICTED BY IDOCK:    4.29 KCAL/MOL
REMARK 922        TOTAL FREE ENERGY PREDICTED BY IDOCK:    4.08 KCAL/MOL
REMARK 923 INTER-LIGAND FREE ENERGY PREDICTED BY IDOCK:    0.63 KCAL/MOL
REMARK 924 INTRA-LIGAND FREE ENERGY PREDICTED BY IDOCK:    3.45 KCAL/MOL
REMARK 927      BINDING AFFINITY PREDICTED BY RF-SCORE:    0.00 PKD
ROOT
HETATM    1  C   UNL     1     -12.030   6.460  70.014  1.00  0.00    -0.020 C  
HETATM    2  C   UNL     1     -12.218   6.646  71.527  1.00  0.00    -0.391 C  
HETATM    3  C   UNL     1     -11.329   7.783  72.087  1.00  0.00    -0.353 C  
HETATM    4  C   UNL     1     -12.066   5.313  72.251  1.00  0.00     0.418 C  
HETATM    5  C   UNL     1      -9.829   7.551  72.031  1.00  0.00    -0.200 C  
HETATM    6  C   UNL     1     -11.679   8.081  73.550  1.00  0.00     1.453 C  
HETATM    7  C   UNL     1      -8.979   8.294  71.300  1.00  0.00    -0.200 C  
HETATM    8  C   UNL     1      -7.471   8.397  71.502  1.00  0.00    -0.111 C  
HETATM    9  C   UNL     1      -6.484   7.263  70.974  1.00  0.00    -0.043 C  
HETATM   10  C   UNL     1      -7.198   8.817  72.954  1.00  0.00     0.131 C  
HETATM   11  C   UNL     1      -6.742   5.907  71.633  1.00  0.00    -0.059 C  
HETATM   12  C   UNL     1      -7.581   5.105  70.646  1.00  0.00    -0.071 C  
HETATM   13  C   UNL     1      -7.780   5.983  69.385  1.00  0.00    -0.098 C  
HETATM   14  C   UNL     1      -7.901   5.180  68.094  1.00  0.00    -0.087 C  
HETATM   15  C   UNL     1      -7.289   5.912  66.936  1.00  0.00    -0.079 C  
HETATM   16  C   UNL     1      -8.464   3.955  68.005  1.00  0.00    -0.105 C  
HETATM   17  C   UNL     1      -6.680   8.352  68.710  1.00  0.00    -0.058 C  
HETATM   18  C   UNL     1      -5.779   6.032  67.183  1.00  0.00    -0.016 C  
HETATM   19  C   UNL     1      -6.569   6.986  69.429  1.00  0.00    -0.045 C  
HETATM   20  C   UNL     1      -5.410   6.231  68.696  1.00  0.00    -0.008 C  
ENDROOT
BRANCH  16  21
HETATM   21  C   UNL     1      -8.574   3.209  66.761  1.00  0.00    -0.121 C  
HETATM   22  C   UNL     1      -8.944   3.643  65.551  1.00  0.00    -0.138 C  
HETATM   23  C   UNL     1      -8.940   2.657  64.389  1.00  0.00    -0.118 C  
HETATM   24  C   UNL     1     -10.310   2.578  63.716  1.00  0.00    -0.126 C  
HETATM   25  C   UNL     1     -10.804   3.972  63.322  1.00  0.00     0.001 C  
HETATM   26  O   UNL     1     -11.256   1.945  64.580  1.00  0.00     0.473 OA 
HETATM   27  C   UNL     1     -10.765   4.957  64.500  1.00  0.00     0.759 C  
HETATM   28  H   UNL     1     -12.108   1.896  64.161  1.00  0.00     0.000 HD 
HETATM   29  C   UNL     1      -9.434   4.963  65.199  1.00  0.00    -0.070 C  
HETATM   30  C   UNL     1      -8.727   6.077  65.429  1.00  0.00    -0.090 C  
ENDBRANCH  16  21
TORSDOF 1
ENDMDL
MODEL      129
REMARK 921   NORMALIZED FREE ENERGY PREDICTED BY IDOCK:    4.34 KCAL/MOL
REMARK 922        TOTAL FREE ENERGY PREDICTED BY IDOCK:    4.12 KCAL/MOL
REMARK 923 INTER-LIGAND FREE ENERGY PREDICTED BY IDOCK:    5.01 KCAL/MOL
REMARK 924 INTRA-LIGAND FREE ENERGY PREDICTED BY IDOCK:   -0.89 KCAL/MOL
REMARK 927      BINDING AFFINITY PREDICTED BY RF-SCORE:    0.00 PKD
ROOT
HETATM    1  C   UNL     1     -10.418  16.309  66.249  1.00  0.00    -0.314 C  
HETATM    2  C   UNL     1     -10.880  17.036  67.521  1.00  0.00    -0.203 C  
HETATM    3  C   UNL     1      -9.686  17.514  68.383  1.00  0.00    -0.316 C  
HETATM    4  C   UNL     1     -11.903  16.194  68.274  1.00  0.00     0.083 C  
HETATM    5  C   UNL     1      -8.824  16.425  68.997  1.00  0.00    -0.240 C  
HETATM    6  C   UNL     1     -10.166  18.404  69.536  1.00  0.00     0.320 C  
HETATM    7  C   UNL     1      -7.528  16.229  68.693  1.00  0.00    -0.185 C  
HETATM    8  C   UNL     1      -6.513  15.463  69.533  1.00  0.00    -0.158 C  
HETATM    9  C   UNL     1      -6.460  13.870  69.523  1.00  0.00    -0.115 C  
HETATM   10  C   UNL     1      -6.489  16.065  70.946  1.00  0.00     1.120 C  
HETATM   11  C   UNL     1      -7.754  13.237  70.038  1.00  0.00     1.805 C  
HETATM   12  C   UNL     1      -8.556  12.840  68.805  1.00  0.00     0.172 C  
HETATM   13  C   UNL     1      -7.708  13.207  67.561  1.00  0.00    -0.168 C  
HETATM   14  C   UNL     1      -7.939  12.283  66.370  1.00  0.00     0.333 C  
HETATM   15  C   UNL     1      -6.679  12.088  65.578  1.00  0.00     2.618 C  
HETATM   16  C   UNL     1      -9.118  11.694  66.076  1.00  0.00    -0.188 C  
HETATM   17  C   UNL     1      -5.160  14.074  67.373  1.00  0.00     0.377 C  
HETATM   18  C   UNL     1      -5.663  11.346  66.459  1.00  0.00    -0.142 C  
HETATM   19  C   UNL     1      -6.232  13.230  68.104  1.00  0.00    -0.111 C  
HETATM   20  C   UNL     1      -5.745  11.748  67.975  1.00  0.00    -0.046 C  
ENDROOT
BRANCH  16  21
HETATM   21  C   UNL     1      -9.317  10.819  64.931  1.00  0.00    -0.261 C  
HETATM   22  C   UNL     1      -9.242   9.484  64.870  1.00  0.00    -0.284 C  
HETATM   23  C   UNL     1      -9.534   8.797  63.542  1.00  0.00     1.573 C  
HETATM   24  C   UNL     1      -8.366   7.918  63.096  1.00  0.00     0.047 C  
HETATM   25  C   UNL     1      -7.965   6.942  64.205  1.00  0.00    -0.078 C  
HETATM   26  O   UNL     1      -7.248   8.725  62.721  1.00  0.00    -0.097 OA 
HETATM   27  C   UNL     1      -7.711   7.654  65.542  1.00  0.00    -0.101 C  
HETATM   28  H   UNL     1      -6.521   8.178  62.444  1.00  0.00     0.000 HD 
HETATM   29  C   UNL     1      -8.836   8.575  65.925  1.00  0.00    -0.219 C  
HETATM   30  C   UNL     1      -9.456   8.527  67.112  1.00  0.00    -0.208 C  
ENDBRANCH  16  21
TORSDOF 1
ENDMDL
MODEL      130
REMARK 921   NORMALIZED FREE ENERGY PREDICTED BY IDOCK:    5.41 KCAL/MOL
REMARK 922        TOTAL FREE ENERGY PREDICTED BY IDOCK:    5.25 KCAL/MOL
REMARK 923 INTER-LIGAND FREE ENERGY PREDICTED BY IDOCK:    6.15 KCAL/MOL
REMARK 924 INTRA-LIGAND FREE ENERGY PREDICTED BY IDOCK:   -0.90 KCAL/MOL
REMARK 927      BINDING AFFINITY PREDICTED BY RF-SCORE:    0.00 PKD
ROOT
HETATM    1  C   UNL     1      -9.429  15.359  64.537  1.00  0.00     2.800 C  
HETATM    2  C   UNL     1     -10.566  16.391  64.583  1.00  0.00     0.276 C  
HETATM    3  C   UNL     1     -10.766  16.973  66.004  1.00  0.00    -0.116 C  
HETATM    4  C   UNL     1     -11.831  15.819  63.954  1.00  0.00     0.305 C  
HETATM    5  C   UNL     1     -11.246  16.000  67.066  1.00  0.00     0.033 C  
HETATM    6  C   UNL     1     -11.763  18.137  65.983  1.00  0.00     2.762 C  
HETATM    7  C   UNL     1     -10.528  15.651  68.148  1.00  0.00    -0.259 C  
HETATM    8  C   UNL     1     -11.075  15.032  69.430  1.00  0.00    -0.290 C  
HETATM    9  C   UNL     1     -11.428  13.480  69.517  1.00  0.00    -0.318 C  
HETATM   10  C   UNL     1     -12.182  15.942  69.981  1.00  0.00    -0.213 C  
HETATM   11  C   UNL     1     -12.533  13.074  68.541  1.00  0.00     0.421 C  
HETATM   12  C   UNL     1     -11.834  12.458  67.336  1.00  0.00    -0.360 C  
HETATM   13  C   UNL     1     -10.311  12.468  67.627  1.00  0.00    -0.222 C  
HETATM   14  C   UNL     1      -9.558  11.311  66.979  1.00  0.00    -0.197 C  
HETATM   15  C   UNL     1      -8.418  10.852  67.840  1.00  0.00    -0.129 C  
HETATM   16  C   UNL     1      -9.888  10.751  65.795  1.00  0.00    -0.292 C  
HETATM   17  C   UNL     1      -8.964  13.091  69.880  1.00  0.00     2.901 C  
HETATM   18  C   UNL     1      -8.995  10.266  69.137  1.00  0.00    -0.187 C  
HETATM   19  C   UNL     1     -10.229  12.515  69.197  1.00  0.00     0.224 C  
HETATM   20  C   UNL     1     -10.283  11.013  69.636  1.00  0.00     0.070 C  
ENDROOT
BRANCH  16  21
HETATM   21  C   UNL     1      -9.151   9.651  65.193  1.00  0.00    -0.279 C  
HETATM   22  C   UNL     1      -9.103   8.368  65.568  1.00  0.00    -0.108 C  
HETATM   23  C   UNL     1      -8.276   7.395  64.736  1.00  0.00    -0.060 C  
HETATM   24  C   UNL     1      -7.226   6.680  65.587  1.00  0.00    -0.070 C  
HETATM   25  C   UNL     1      -7.872   6.028  66.813  1.00  0.00    -0.101 C  
HETATM   26  O   UNL     1      -6.206   7.594  65.994  1.00  0.00    -0.040 OA 
HETATM   27  C   UNL     1      -8.728   7.020  67.615  1.00  0.00    -0.121 C  
HETATM   28  H   UNL     1      -5.553   7.149  66.523  1.00  0.00     0.000 HD 
HETATM   29  C   UNL     1      -9.700   7.771  66.748  1.00  0.00    -0.296 C  
HETATM   30  C   UNL     1     -11.014   7.838  67.002  1.00  0.00     0.016 C  
ENDBRANCH  16  21
TORSDOF 1
ENDMDL
MODEL      131
REMARK 921   NORMALIZED FREE ENERGY PREDICTED BY IDOCK:    5.41 KCAL/MOL
REMARK 922        TOTAL FREE ENERGY PREDICTED BY IDOCK:    5.26 KCAL/MOL
REMARK 923 INTER-LIGAND FREE ENERGY PREDICTED BY IDOCK:    3.04 KCAL/MOL
REMARK 924 INTRA-LIGAND FREE ENERGY PREDICTED BY IDOCK:    2.22 KCAL/MOL
REMARK 927      BINDING AFFINITY PREDICTED BY RF-SCORE:    0.00 PKD
ROOT
HETATM    1  C   UNL     1     -11.375  10.831  68.211  1.00  0.00    -0.376 C  
HETATM    2  C   UNL     1     -11.975  12.088  67.563  1.00  0.00    -0.144 C  
HETATM    3  C   UNL     1     -11.991  11.994  66.018  1.00  0.00    -0.110 C  
HETATM    4  C   UNL     1     -11.305  13.343  68.111  1.00  0.00    -0.321 C  
HETATM    5  C   UNL     1     -10.636  11.964  65.334  1.00  0.00    -0.315 C  
HETATM    6  C   UNL     1     -12.773  13.164  65.408  1.00  0.00    -0.422 C  
HETATM    7  C   UNL     1     -10.175  10.921  64.622  1.00  0.00    -0.411 C  
HETATM    8  C   UNL     1      -9.052  10.960  63.591  1.00  0.00    -0.196 C  
HETATM    9  C   UNL     1      -7.521  10.969  64.033  1.00  0.00     0.734 C  
HETATM   10  C   UNL     1      -9.390  12.026  62.538  1.00  0.00     1.130 C  
HETATM   11  C   UNL     1      -7.156  12.201  64.862  1.00  0.00     4.521 C  
HETATM   12  C   UNL     1      -7.180  11.758  66.320  1.00  0.00     0.335 C  
HETATM   13  C   UNL     1      -7.522  10.246  66.340  1.00  0.00    -0.114 C  
HETATM   14  C   UNL     1      -6.893   9.494  67.508  1.00  0.00    -0.083 C  
HETATM   15  C   UNL     1      -6.522   8.093  67.117  1.00  0.00    -0.057 C  
HETATM   16  C   UNL     1      -6.674  10.024  68.730  1.00  0.00    -0.049 C  
HETATM   17  C   UNL     1      -7.742   8.474  64.318  1.00  0.00    -0.130 C  
HETATM   18  C   UNL     1      -5.415   8.164  66.055  1.00  0.00    -0.028 C  
HETATM   19  C   UNL     1      -7.086   9.743  64.916  1.00  0.00    -0.125 C  
HETATM   20  C   UNL     1      -5.571   9.382  65.076  1.00  0.00    -0.057 C  
ENDROOT
BRANCH  16  21
HETATM   21  C   UNL     1      -6.077   9.285  69.832  1.00  0.00    -0.038 C  
HETATM   22  C   UNL     1      -6.416   8.087  70.322  1.00  0.00    -0.037 C  
HETATM   23  C   UNL     1      -5.597   7.510  71.470  1.00  0.00    -0.035 C  
HETATM   24  C   UNL     1      -6.478   7.177  72.675  1.00  0.00    -0.052 C  
HETATM   25  C   UNL     1      -7.651   6.284  72.261  1.00  0.00    -0.095 C  
HETATM   26  O   UNL     1      -6.961   8.374  73.287  1.00  0.00    -0.150 OA 
HETATM   27  C   UNL     1      -8.438   6.869  71.079  1.00  0.00    -0.131 C  
HETATM   28  H   UNL     1      -7.509   8.167  74.036  1.00  0.00     0.000 HD 
HETATM   29  C   UNL     1      -7.546   7.264  69.935  1.00  0.00    -0.094 C  
HETATM   30  C   UNL     1      -7.737   6.850  68.675  1.00  0.00    -0.113 C  
ENDBRANCH  16  21
TORSDOF 1
ENDMDL
MODEL      132
REMARK 921   NORMALIZED FREE ENERGY PREDICTED BY IDOCK:    6.29 KCAL/MOL
REMARK 922        TOTAL FREE ENERGY PREDICTED BY IDOCK:    6.19 KCAL/MOL
REMARK 923 INTER-LIGAND FREE ENERGY PREDICTED BY IDOCK:    6.84 KCAL/MOL
REMARK 924 INTRA-LIGAND FREE ENERGY PREDICTED BY IDOCK:   -0.65 KCAL/MOL
REMARK 927      BINDING AFFINITY PREDICTED BY RF-SCORE:    0.00 PKD
ROOT
HETATM    1  C   UNL     1     -12.191  14.535  69.251  1.00  0.00    -0.264 C  
HETATM    2  C   UNL     1     -12.197  15.989  69.745  1.00  0.00    -0.027 C  
HETATM    3  C   UNL     1     -11.476  16.941  68.759  1.00  0.00     0.231 C  
HETATM    4  C   UNL     1     -11.690  16.067  71.180  1.00  0.00    -0.487 C  
HETATM    5  C   UNL     1      -9.983  16.724  68.589  1.00  0.00    -0.276 C  
HETATM    6  C   UNL     1     -11.669  18.404  69.173  1.00  0.00     4.236 C  
HETATM    7  C   UNL     1      -9.404  16.343  67.437  1.00  0.00    -0.223 C  
HETATM    8  C   UNL     1      -7.931  16.501  67.074  1.00  0.00    -0.239 C  
HETATM    9  C   UNL     1      -6.827  15.495  67.629  1.00  0.00    -0.207 C  
HETATM   10  C   UNL     1      -7.544  17.980  67.228  1.00  0.00    -0.213 C  
HETATM   11  C   UNL     1      -6.722  15.522  69.154  1.00  0.00    -0.145 C  
HETATM   12  C   UNL     1      -7.519  14.326  69.658  1.00  0.00     0.180 C  
HETATM   13  C   UNL     1      -8.060  13.572  68.417  1.00  0.00    -0.145 C  
HETATM   14  C   UNL     1      -8.203  12.069  68.631  1.00  0.00    -0.052 C  
HETATM   15  C   UNL     1      -7.913  11.308  67.370  1.00  0.00    -0.132 C  
HETATM   16  C   UNL     1      -8.524  11.490  69.808  1.00  0.00     1.372 C  
HETATM   17  C   UNL     1      -7.546  13.926  65.793  1.00  0.00     4.855 C  
HETATM   18  C   UNL     1      -6.435  11.514  67.009  1.00  0.00    -0.134 C  
HETATM   19  C   UNL     1      -7.072  13.986  67.266  1.00  0.00     0.062 C  
HETATM   20  C   UNL     1      -5.904  12.949  67.362  1.00  0.00    -0.065 C  
ENDROOT
BRANCH  16  21
HETATM   21  C   UNL     1      -8.661  10.053  69.988  1.00  0.00    -0.122 C  
HETATM   22  C   UNL     1      -9.694   9.363  70.482  1.00  0.00    -0.331 C  
HETATM   23  C   UNL     1      -9.600   7.842  70.529  1.00  0.00    -0.167 C  
HETATM   24  C   UNL     1      -9.813   7.311  71.947  1.00  0.00    -0.162 C  
HETATM   25  C   UNL     1     -11.115   7.853  72.542  1.00  0.00    -0.423 C  
HETATM   26  O   UNL     1      -8.707   7.657  72.782  1.00  0.00    -0.120 OA 
HETATM   27  C   UNL     1     -11.202   9.385  72.451  1.00  0.00     0.646 C  
HETATM   28  H   UNL     1      -8.839   7.326  73.663  1.00  0.00     0.000 HD 
HETATM   29  C   UNL     1     -10.912   9.894  71.066  1.00  0.00    -0.360 C  
HETATM   30  C   UNL     1     -11.729  10.719  70.398  1.00  0.00    -0.445 C  
ENDBRANCH  16  21
TORSDOF 1
ENDMDL
MODEL      133
REMARK 921   NORMALIZED FREE ENERGY PREDICTED BY IDOCK:    6.33 KCAL/MOL
REMARK 922        TOTAL FREE ENERGY PREDICTED BY IDOCK:    6.23 KCAL/MOL
REMARK 923 INTER-LIGAND FREE ENERGY PREDICTED BY IDOCK:    0.57 KCAL/MOL
REMARK 924 INTRA-LIGAND FREE ENERGY PREDICTED BY IDOCK:    5.66 KCAL/MOL
REMARK 927      BINDING AFFINITY PREDICTED BY RF-SCORE:    0.00 PKD
ROOT
HETATM    1  C   UNL     1     -10.528  11.712  66.604  1.00  0.00    -0.268 C  
HETATM    2  C   UNL     1     -10.747  13.009  67.398  1.00  0.00    -0.256 C  
HETATM    3  C   UNL     1      -9.410  13.662  67.824  1.00  0.00    -0.218 C  
HETATM    4  C   UNL     1     -11.727  12.774  68.542  1.00  0.00    -0.371 C  
HETATM    5  C   UNL     1      -8.568  12.881  68.817  1.00  0.00     0.168 C  
HETATM    6  C   UNL     1      -9.650  15.048  68.436  1.00  0.00    -0.212 C  
HETATM    7  C   UNL     1      -7.349  12.385  68.544  1.00  0.00    -0.105 C  
HETATM    8  C   UNL     1      -6.297  11.969  69.567  1.00  0.00    -0.123 C  
HETATM    9  C   UNL     1      -6.383  10.569  70.323  1.00  0.00    -0.137 C  
HETATM   10  C   UNL     1      -6.028  13.155  70.505  1.00  0.00    -0.093 C  
HETATM   11  C   UNL     1      -7.643  10.442  71.181  1.00  0.00     2.057 C  
HETATM   12  C   UNL     1      -8.638   9.630  70.361  1.00  0.00    -0.200 C  
HETATM   13  C   UNL     1      -7.940   9.245  69.032  1.00  0.00    -0.097 C  
HETATM   14  C   UNL     1      -8.410   7.912  68.459  1.00  0.00    -0.128 C  
HETATM   15  C   UNL     1      -7.292   7.193  67.763  1.00  0.00    -0.097 C  
HETATM   16  C   UNL     1      -9.665   7.427  68.581  1.00  0.00    -0.152 C  
HETATM   17  C   UNL     1      -5.377   9.552  68.248  1.00  0.00    -0.036 C  
HETATM   18  C   UNL     1      -6.233   6.817  68.809  1.00  0.00    -0.027 C  
HETATM   19  C   UNL     1      -6.407   9.312  69.378  1.00  0.00    -0.044 C  
HETATM   20  C   UNL     1      -6.072   7.892  69.943  1.00  0.00    -0.026 C  
ENDROOT
BRANCH  16  21
HETATM   21  C   UNL     1     -10.093   6.154  68.021  1.00  0.00    -0.178 C  
HETATM   22  C   UNL     1      -9.692   5.556  66.894  1.00  0.00    -0.163 C  
HETATM   23  C   UNL     1     -10.274   4.190  66.546  1.00  0.00     0.053 C  
HETATM   24  C   UNL     1     -10.933   4.197  65.166  1.00  0.00     0.134 C  
HETATM   25  C   UNL     1      -9.967   4.729  64.105  1.00  0.00     0.383 C  
HETATM   26  O   UNL     1     -12.126   4.981  65.185  1.00  0.00    -0.029 OA 
HETATM   27  C   UNL     1      -9.366   6.088  64.494  1.00  0.00     0.982 C  
HETATM   28  H   UNL     1     -12.536   4.985  64.328  1.00  0.00     0.000 HD 
HETATM   29  C   UNL     1      -8.794   6.085  65.885  1.00  0.00    -0.155 C  
HETATM   30  C   UNL     1      -7.545   6.479  66.169  1.00  0.00    -0.090 C  
ENDBRANCH  16  21
TORSDOF 1
ENDMDL
MODEL      134
REMARK 921   NORMALIZED FREE ENERGY PREDICTED BY IDOCK:    8.51 KCAL/MOL
REMARK 922        TOTAL FREE ENERGY PREDICTED BY IDOCK:    8.54 KCAL/MOL
REMARK 923 INTER-LIGAND FREE ENERGY PREDICTED BY IDOCK:    9.27 KCAL/MOL
REMARK 924 INTRA-LIGAND FREE ENERGY PREDICTED BY IDOCK:   -0.73 KCAL/MOL
REMARK 927      BINDING AFFINITY PREDICTED BY RF-SCORE:    0.00 PKD
ROOT
HETATM    1  C   UNL     1      -9.334  11.284  65.164  1.00  0.00    -0.211 C  
HETATM    2  C   UNL     1     -10.480  12.305  65.240  1.00  0.00    -0.315 C  
HETATM    3  C   UNL     1     -10.014  13.658  65.833  1.00  0.00    -0.304 C  
HETATM    4  C   UNL     1     -11.692  11.696  65.936  1.00  0.00     0.035 C  
HETATM    5  C   UNL     1      -9.578  13.638  67.287  1.00  0.00    -0.238 C  
HETATM    6  C   UNL     1     -11.118  14.716  65.713  1.00  0.00    -0.331 C  
HETATM    7  C   UNL     1      -8.328  13.906  67.702  1.00  0.00    -0.183 C  
HETATM    8  C   UNL     1      -7.914  14.306  69.114  1.00  0.00     0.046 C  
HETATM    9  C   UNL     1      -7.760  13.221  70.272  1.00  0.00     2.569 C  
HETATM   10  C   UNL     1      -8.730  15.537  69.535  1.00  0.00    -0.223 C  
HETATM   11  C   UNL     1      -9.073  12.501  70.580  1.00  0.00     7.771 C  
HETATM   12  C   UNL     1      -9.012  11.169  69.845  1.00  0.00     1.228 C  
HETATM   13  C   UNL     1      -7.637  11.092  69.134  1.00  0.00    -0.113 C  
HETATM   14  C   UNL     1      -7.095   9.673  69.005  1.00  0.00    -0.066 C  
HETATM   15  C   UNL     1      -5.599   9.648  69.115  1.00  0.00    -0.035 C  
HETATM   16  C   UNL     1      -7.862   8.573  68.838  1.00  0.00    -0.109 C  
HETATM   17  C   UNL     1      -5.491  12.718  69.296  1.00  0.00    -0.073 C  
HETATM   18  C   UNL     1      -5.210  10.088  70.534  1.00  0.00    -0.047 C  
HETATM   19  C   UNL     1      -6.730  12.074  69.963  1.00  0.00     0.267 C  
HETATM   20  C   UNL     1      -6.158  11.192  71.123  1.00  0.00     0.476 C  
ENDROOT
BRANCH  16  21
HETATM   21  C   UNL     1      -7.322   7.228  68.712  1.00  0.00    -0.096 C  
HETATM   22  C   UNL     1      -7.356   6.406  67.657  1.00  0.00    -0.088 C  
HETATM   23  C   UNL     1      -6.676   5.046  67.770  1.00  0.00    -0.055 C  
HETATM   24  C   UNL     1      -7.648   3.906  67.469  1.00  0.00    -0.068 C  
HETATM   25  C   UNL     1      -8.342   4.123  66.122  1.00  0.00    -0.109 C  
HETATM   26  O   UNL     1      -8.619   3.789  68.511  1.00  0.00    -0.088 OA 
HETATM   27  C   UNL     1      -8.989   5.513  66.019  1.00  0.00    -0.154 C  
HETATM   28  H   UNL     1      -9.224   3.080  68.324  1.00  0.00     0.000 HD 
HETATM   29  C   UNL     1      -8.039   6.617  66.395  1.00  0.00    -0.113 C  
HETATM   30  C   UNL     1      -7.795   7.677  65.613  1.00  0.00    -0.109 C  
ENDBRANCH  16  21
TORSDOF 1
ENDMDL
MODEL      135
REMARK 921   NORMALIZED FREE ENERGY PREDICTED BY IDOCK:    9.00 KCAL/MOL
REMARK 922        TOTAL FREE ENERGY PREDICTED BY IDOCK:    9.05 KCAL/MOL
REMARK 923 INTER-LIGAND FREE ENERGY PREDICTED BY IDOCK:   -0.69 KCAL/MOL
REMARK 924 INTRA-LIGAND FREE ENERGY PREDICTED BY IDOCK:    9.74 KCAL/MOL
REMARK 927      BINDING AFFINITY PREDICTED BY RF-SCORE:    0.00 PKD
ROOT
HETATM    1  C   UNL     1      -5.915  11.217  67.636  1.00  0.00    -0.051 C  
HETATM    2  C   UNL     1      -5.693   9.736  67.975  1.00  0.00    -0.040 C  
HETATM    3  C   UNL     1      -6.044   8.808  66.785  1.00  0.00    -0.058 C  
HETATM    4  C   UNL     1      -6.394   9.377  69.281  1.00  0.00    -0.044 C  
HETATM    5  C   UNL     1      -7.504   8.771  66.372  1.00  0.00    -0.087 C  
HETATM    6  C   UNL     1      -5.627   7.362  67.079  1.00  0.00    -0.027 C  
HETATM    7  C   UNL     1      -7.960   9.191  65.178  1.00  0.00    -0.117 C  
HETATM    8  C   UNL     1      -9.294   8.817  64.542  1.00  0.00     0.585 C  
HETATM    9  C   UNL     1     -10.652   9.523  64.987  1.00  0.00     1.766 C  
HETATM   10  C   UNL     1      -9.394   7.286  64.475  1.00  0.00     1.811 C  
HETATM   11  C   UNL     1     -10.987   9.275  66.459  1.00  0.00     0.425 C  
HETATM   12  C   UNL     1     -10.537  10.518  67.215  1.00  0.00    -0.317 C  
HETATM   13  C   UNL     1      -9.971  11.516  66.174  1.00  0.00    -0.257 C  
HETATM   14  C   UNL     1     -10.170  12.979  66.559  1.00  0.00    -0.270 C  
HETATM   15  C   UNL     1     -10.405  13.834  65.349  1.00  0.00    -0.347 C  
HETATM   16  C   UNL     1     -10.161  13.444  67.827  1.00  0.00    -0.232 C  
HETATM   17  C   UNL     1      -9.985  11.428  63.477  1.00  0.00    -0.424 C  
HETATM   18  C   UNL     1     -11.736  13.414  64.709  1.00  0.00    -0.393 C  
HETATM   19  C   UNL     1     -10.662  11.087  64.828  1.00  0.00    -0.304 C  
HETATM   20  C   UNL     1     -12.016  11.872  64.815  1.00  0.00    -0.222 C  
ENDROOT
BRANCH  16  21
HETATM   21  C   UNL     1     -10.347  14.845  68.171  1.00  0.00    -0.237 C  
HETATM   22  C   UNL     1     -10.288  15.920  67.377  1.00  0.00    -0.288 C  
HETATM   23  C   UNL     1     -10.562  17.291  67.984  1.00  0.00    -0.394 C  
HETATM   24  C   UNL     1      -9.395  18.251  67.748  1.00  0.00    -0.271 C  
HETATM   25  C   UNL     1      -9.030  18.310  66.263  1.00  0.00    -0.197 C  
HETATM   26  O   UNL     1      -8.260  17.857  68.520  1.00  0.00    -0.288 OA 
HETATM   27  C   UNL     1      -8.794  16.914  65.666  1.00  0.00     0.389 C  
HETATM   28  H   UNL     1      -7.535  18.453  68.374  1.00  0.00     0.000 HD 
HETATM   29  C   UNL     1      -9.916  15.961  65.975  1.00  0.00    -0.360 C  
HETATM   30  C   UNL     1     -10.560  15.253  65.038  1.00  0.00    -0.444 C  
ENDBRANCH  16  21
TORSDOF 1
ENDMDL
MODEL      136
REMARK 921   NORMALIZED FREE ENERGY PREDICTED BY IDOCK:   11.33 KCAL/MOL
REMARK 922        TOTAL FREE ENERGY PREDICTED BY IDOCK:   11.52 KCAL/MOL
REMARK 923 INTER-LIGAND FREE ENERGY PREDICTED BY IDOCK:   12.04 KCAL/MOL
REMARK 924 INTRA-LIGAND FREE ENERGY PREDICTED BY IDOCK:   -0.53 KCAL/MOL
REMARK 927      BINDING AFFINITY PREDICTED BY RF-SCORE:    0.00 PKD
ROOT
HETATM    1  C   UNL     1     -13.717  11.957  69.518  1.00  0.00     4.676 C  
HETATM    2  C   UNL     1     -13.661  11.775  71.042  1.00  0.00     0.980 C  
HETATM    3  C   UNL     1     -13.426  13.117  71.780  1.00  0.00    -0.420 C  
HETATM    4  C   UNL     1     -12.676  10.672  71.413  1.00  0.00    -0.545 C  
HETATM    5  C   UNL     1     -12.083  13.786  71.542  1.00  0.00    -0.016 C  
HETATM    6  C   UNL     1     -13.573  12.940  73.295  1.00  0.00     2.464 C  
HETATM    7  C   UNL     1     -11.933  14.978  70.939  1.00  0.00    -0.374 C  
HETATM    8  C   UNL     1     -10.710  15.885  71.030  1.00  0.00     0.134 C  
HETATM    9  C   UNL     1      -9.402  15.602  70.165  1.00  0.00     0.408 C  
HETATM   10  C   UNL     1     -10.414  16.162  72.511  1.00  0.00     3.469 C  
HETATM   11  C   UNL     1      -8.754  14.258  70.501  1.00  0.00     2.710 C  
HETATM   12  C   UNL     1      -9.215  13.282  69.426  1.00  0.00     1.086 C  
HETATM   13  C   UNL     1     -10.106  14.070  68.433  1.00  0.00    -0.236 C  
HETATM   14  C   UNL     1     -10.039  13.543  67.003  1.00  0.00    -0.244 C  
HETATM   15  C   UNL     1     -10.165  14.657  66.005  1.00  0.00    -0.326 C  
HETATM   16  C   UNL     1      -9.864  12.245  66.673  1.00  0.00    -0.230 C  
HETATM   17  C   UNL     1     -10.607  16.714  68.251  1.00  0.00    -0.338 C  
HETATM   18  C   UNL     1      -8.940  15.572  66.143  1.00  0.00    -0.329 C  
HETATM   19  C   UNL     1      -9.639  15.561  68.611  1.00  0.00    -0.203 C  
HETATM   20  C   UNL     1      -8.435  15.715  67.623  1.00  0.00    -0.169 C  
ENDROOT
BRANCH  16  21
HETATM   21  C   UNL     1      -9.809  11.764  65.301  1.00  0.00    -0.267 C  
HETATM   22  C   UNL     1      -8.945  10.907  64.746  1.00  0.00    -0.155 C  
HETATM   23  C   UNL     1      -9.130  10.533  63.280  1.00  0.00    -0.267 C  
HETATM   24  C   UNL     1      -7.871  10.827  62.464  1.00  0.00    -0.113 C  
HETATM   25  C   UNL     1      -6.643  10.174  63.103  1.00  0.00    -0.136 C  
HETATM   26  O   UNL     1      -7.673  12.237  62.341  1.00  0.00     0.709 OA 
HETATM   27  C   UNL     1      -6.499  10.538  64.589  1.00  0.00     0.023 C  
HETATM   28  H   UNL     1      -6.890  12.420  61.834  1.00  0.00     0.000 HD 
HETATM   29  C   UNL     1      -7.771  10.316  65.359  1.00  0.00    -0.146 C  
HETATM   30  C   UNL     1      -7.835   9.589  66.483  1.00  0.00    -0.101 C  
ENDBRANCH  16  21
TORSDOF 1
ENDMDL
MODEL      137
REMARK 921   NORMALIZED FREE ENERGY PREDICTED BY IDOCK:   11.48 KCAL/MOL
REMARK 922        TOTAL FREE ENERGY PREDICTED BY IDOCK:   11.68 KCAL/MOL
REMARK 923 INTER-LIGAND FREE ENERGY PREDICTED BY IDOCK:    4.16 KCAL/MOL
REMARK 924 INTRA-LIGAND FREE ENERGY PREDICTED BY IDOCK:    7.52 KCAL/MOL
REMARK 927      BINDING AFFINITY PREDICTED BY RF-SCORE:    0.00 PKD
ROOT
HETATM    1  C   UNL     1     -10.924  10.873  71.539  1.00  0.00     2.520 C  
HETATM    2  C   UNL     1     -10.812   9.345  71.646  1.00  0.00    -0.348 C  
HETATM    3  C   UNL     1      -9.338   8.873  71.709  1.00  0.00    -0.304 C  
HETATM    4  C   UNL     1     -11.642   8.671  70.559  1.00  0.00    -0.158 C  
HETATM    5  C   UNL     1      -8.503   9.114  70.465  1.00  0.00    -0.236 C  
HETATM    6  C   UNL     1      -9.258   7.372  72.016  1.00  0.00    -0.155 C  
HETATM    7  C   UNL     1      -7.433   9.927  70.423  1.00  0.00    -0.137 C  
HETATM    8  C   UNL     1      -6.328   9.907  69.372  1.00  0.00    -0.045 C  
HETATM    9  C   UNL     1      -6.534  10.574  67.939  1.00  0.00    -0.060 C  
HETATM   10  C   UNL     1      -5.738   8.491  69.307  1.00  0.00    -0.035 C  
HETATM   11  C   UNL     1      -7.662   9.917  67.142  1.00  0.00    -0.092 C  
HETATM   12  C   UNL     1      -8.883  10.812  67.313  1.00  0.00    -0.133 C  
HETATM   13  C   UNL     1      -8.455  12.021  68.183  1.00  0.00    -0.171 C  
HETATM   14  C   UNL     1      -9.214  13.304  67.861  1.00  0.00    -0.213 C  
HETATM   15  C   UNL     1      -8.340  14.512  68.029  1.00  0.00    -0.153 C  
HETATM   16  C   UNL     1     -10.500  13.349  67.452  1.00  0.00    -0.243 C  
HETATM   17  C   UNL     1      -6.014  12.775  69.052  1.00  0.00    -0.084 C  
HETATM   18  C   UNL     1      -7.218  14.448  66.983  1.00  0.00     0.409 C  
HETATM   19  C   UNL     1      -6.898  12.103  67.973  1.00  0.00    -0.081 C  
HETATM   20  C   UNL     1      -6.722  12.987  66.693  1.00  0.00     1.399 C  
ENDROOT
BRANCH  16  21
HETATM   21  C   UNL     1     -11.207  14.586  67.155  1.00  0.00    -0.341 C  
HETATM   22  C   UNL     1     -10.718  15.741  66.689  1.00  0.00    -0.287 C  
HETATM   23  C   UNL     1     -11.686  16.888  66.424  1.00  0.00     1.742 C  
HETATM   24  C   UNL     1     -11.290  18.147  67.196  1.00  0.00     0.767 C  
HETATM   25  C   UNL     1      -9.829  18.515  66.923  1.00  0.00    -0.350 C  
HETATM   26  O   UNL     1     -11.498  17.961  68.597  1.00  0.00     0.350 OA 
HETATM   27  C   UNL     1      -8.877  17.333  67.163  1.00  0.00    -0.237 C  
HETATM   28  H   UNL     1     -11.252  18.743  69.077  1.00  0.00     0.000 HD 
HETATM   29  C   UNL     1      -9.327  16.082  66.460  1.00  0.00    -0.296 C  
HETATM   30  C   UNL     1      -8.537  15.372  65.644  1.00  0.00     1.135 C  
ENDBRANCH  16  21
TORSDOF 1
ENDMDL
MODEL      138
REMARK 921   NORMALIZED FREE ENERGY PREDICTED BY IDOCK:   13.29 KCAL/MOL
REMARK 922        TOTAL FREE ENERGY PREDICTED BY IDOCK:   13.59 KCAL/MOL
REMARK 923 INTER-LIGAND FREE ENERGY PREDICTED BY IDOCK:    2.28 KCAL/MOL
REMARK 924 INTRA-LIGAND FREE ENERGY PREDICTED BY IDOCK:   11.31 KCAL/MOL
REMARK 927      BINDING AFFINITY PREDICTED BY RF-SCORE:    0.00 PKD
ROOT
HETATM    1  C   UNL     1      -6.519  11.708  67.020  1.00  0.00    -0.148 C  
HETATM    2  C   UNL     1      -6.754  10.198  66.871  1.00  0.00    -0.079 C  
HETATM    3  C   UNL     1      -7.321   9.833  65.477  1.00  0.00    -0.112 C  
HETATM    4  C   UNL     1      -7.571   9.667  68.042  1.00  0.00    -0.083 C  
HETATM    5  C   UNL     1      -8.714  10.351  65.164  1.00  0.00    -0.194 C  
HETATM    6  C   UNL     1      -7.358   8.312  65.283  1.00  0.00    -0.081 C  
HETATM    7  C   UNL     1      -8.986  11.236  64.188  1.00  0.00     0.105 C  
HETATM    8  C   UNL     1     -10.349  11.483  63.552  1.00  0.00    -0.484 C  
HETATM    9  C   UNL     1     -11.454  12.374  64.277  1.00  0.00    -0.427 C  
HETATM   10  C   UNL     1     -10.893  10.148  63.022  1.00  0.00     2.327 C  
HETATM   11  C   UNL     1     -11.896  11.786  65.617  1.00  0.00     0.022 C  
HETATM   12  C   UNL     1     -11.126  12.544  66.691  1.00  0.00    -0.327 C  
HETATM   13  C   UNL     1     -10.258  13.610  65.976  1.00  0.00    -0.312 C  
HETATM   14  C   UNL     1     -10.031  14.869  66.805  1.00  0.00    -0.252 C  
HETATM   15  C   UNL     1      -9.964  16.090  65.936  1.00  0.00    -0.380 C  
HETATM   16  C   UNL     1      -9.928  14.890  68.152  1.00  0.00    -0.222 C  
HETATM   17  C   UNL     1     -10.207  14.378  63.390  1.00  0.00     4.954 C  
HETATM   18  C   UNL     1     -11.338  16.294  65.281  1.00  0.00     0.109 C  
HETATM   19  C   UNL     1     -10.999  13.842  64.608  1.00  0.00    -0.406 C  
HETATM   20  C   UNL     1     -12.061  14.948  64.923  1.00  0.00    -0.275 C  
ENDROOT
BRANCH  16  21
HETATM   21  C   UNL     1      -9.705  16.104  68.922  1.00  0.00    -0.242 C  
HETATM   22  C   UNL     1      -9.494  17.350  68.484  1.00  0.00    -0.297 C  
HETATM   23  C   UNL     1      -9.325  18.465  69.510  1.00  0.00     0.456 C  
HETATM   24  C   UNL     1      -8.002  19.207  69.318  1.00  0.00    -0.054 C  
HETATM   25  C   UNL     1      -7.852  19.689  67.873  1.00  0.00    -0.333 C  
HETATM   26  O   UNL     1      -6.902  18.368  69.676  1.00  0.00    -0.129 OA 
HETATM   27  C   UNL     1      -8.062  18.555  66.858  1.00  0.00    -0.254 C  
HETATM   28  H   UNL     1      -6.080  18.829  69.557  1.00  0.00     0.000 HD 
HETATM   29  C   UNL     1      -9.330  17.786  67.110  1.00  0.00    -0.264 C  
HETATM   30  C   UNL     1     -10.259  17.569  66.170  1.00  0.00    -0.339 C  
ENDBRANCH  16  21
TORSDOF 1
ENDMDL
MODEL      139
REMARK 921   NORMALIZED FREE ENERGY PREDICTED BY IDOCK:   13.34 KCAL/MOL
REMARK 922        TOTAL FREE ENERGY PREDICTED BY IDOCK:   13.65 KCAL/MOL
REMARK 923 INTER-LIGAND FREE ENERGY PREDICTED BY IDOCK:   14.14 KCAL/MOL
REMARK 924 INTRA-LIGAND FREE ENERGY PREDICTED BY IDOCK:   -0.48 KCAL/MOL
REMARK 927      BINDING AFFINITY PREDICTED BY RF-SCORE:    0.00 PKD
ROOT
HETATM    1  C   UNL     1     -11.172   8.520  64.669  1.00  0.00    10.642 C  
HETATM    2  C   UNL     1     -10.389   9.741  64.166  1.00  0.00     1.472 C  
HETATM    3  C   UNL     1      -9.377   9.365  63.055  1.00  0.00     0.274 C  
HETATM    4  C   UNL     1      -9.783  10.507  65.336  1.00  0.00    -0.315 C  
HETATM    5  C   UNL     1      -8.228   8.465  63.472  1.00  0.00    -0.106 C  
HETATM    6  C   UNL     1      -8.756  10.622  62.433  1.00  0.00    -0.307 C  
HETATM    7  C   UNL     1      -8.035   7.222  62.997  1.00  0.00    -0.097 C  
HETATM    8  C   UNL     1      -6.729   6.436  63.038  1.00  0.00    -0.041 C  
HETATM    9  C   UNL     1      -6.248   5.696  64.365  1.00  0.00    -0.025 C  
HETATM   10  C   UNL     1      -5.629   7.277  62.374  1.00  0.00    -0.045 C  
HETATM   11  C   UNL     1      -6.003   6.665  65.522  1.00  0.00    -0.034 C  
HETATM   12  C   UNL     1      -7.249   6.609  66.397  1.00  0.00    -0.072 C  
HETATM   13  C   UNL     1      -8.212   5.570  65.769  1.00  0.00    -0.124 C  
HETATM   14  C   UNL     1      -9.082   4.847  66.791  1.00  0.00    -0.118 C  
HETATM   15  C   UNL     1      -9.339   3.426  66.383  1.00  0.00    -0.164 C  
HETATM   16  C   UNL     1      -9.543   5.403  67.933  1.00  0.00    -0.152 C  
HETATM   17  C   UNL     1      -7.834   3.843  63.730  1.00  0.00    -0.083 C  
HETATM   18  C   UNL     1      -8.004   2.668  66.399  1.00  0.00    -0.081 C  
HETATM   19  C   UNL     1      -7.262   4.637  64.931  1.00  0.00    -0.063 C  
HETATM   20  C   UNL     1      -6.784   3.549  65.950  1.00  0.00    -0.041 C  
ENDROOT
BRANCH  16  21
HETATM   21  C   UNL     1     -10.377   4.696  68.892  1.00  0.00     0.116 C  
HETATM   22  C   UNL     1     -10.495   4.896  70.210  1.00  0.00    -0.158 C  
HETATM   23  C   UNL     1     -11.478   4.033  70.993  1.00  0.00     3.969 C  
HETATM   24  C   UNL     1     -10.788   3.300  72.143  1.00  0.00     0.572 C  
HETATM   25  C   UNL     1     -10.010   4.280  73.025  1.00  0.00    -0.196 C  
HETATM   26  O   UNL     1      -9.914   2.289  71.638  1.00  0.00    -0.158 OA 
HETATM   27  C   UNL     1      -9.052   5.161  72.209  1.00  0.00    -0.144 C  
HETATM   28  H   UNL     1      -9.486   1.832  72.353  1.00  0.00     0.000 HD 
HETATM   29  C   UNL     1      -9.731   5.812  71.035  1.00  0.00    -0.213 C  
HETATM   30  C   UNL     1      -9.689   7.130  70.798  1.00  0.00    -0.171 C  
ENDBRANCH  16  21
TORSDOF 1
ENDMDL
MODEL      140
REMARK 921   NORMALIZED FREE ENERGY PREDICTED BY IDOCK:   13.65 KCAL/MOL
REMARK 922        TOTAL FREE ENERGY PREDICTED BY IDOCK:   13.98 KCAL/MOL
REMARK 923 INTER-LIGAND FREE ENERGY PREDICTED BY IDOCK:   14.45 KCAL/MOL
REMARK 924 INTRA-LIGAND FREE ENERGY PREDICTED BY IDOCK:   -0.47 KCAL/MOL
REMARK 927      BINDING AFFINITY PREDICTED BY RF-SCORE:    0.00 PKD
ROOT
HETATM    1  C   UNL     1     -11.599  10.524  69.716  1.00  0.00    -0.368 C  
HETATM    2  C   UNL     1     -11.499   9.012  69.462  1.00  0.00     0.291 C  
HETATM    3  C   UNL     1     -10.156   8.426  69.963  1.00  0.00    -0.192 C  
HETATM    4  C   UNL     1     -11.822   8.693  68.007  1.00  0.00     2.773 C  
HETATM    5  C   UNL     1      -8.907   8.900  69.242  1.00  0.00    -0.139 C  
HETATM    6  C   UNL     1     -10.164   6.895  69.881  1.00  0.00    -0.214 C  
HETATM    7  C   UNL     1      -7.927   9.613  69.823  1.00  0.00    -0.154 C  
HETATM    8  C   UNL     1      -6.499   9.765  69.310  1.00  0.00    -0.048 C  
HETATM    9  C   UNL     1      -6.145  10.777  68.131  1.00  0.00    -0.050 C  
HETATM   10  C   UNL     1      -5.895   8.367  69.117  1.00  0.00    -0.038 C  
HETATM   11  C   UNL     1      -6.855  10.426  66.823  1.00  0.00    -0.091 C  
HETATM   12  C   UNL     1      -8.067  11.343  66.735  1.00  0.00    -0.161 C  
HETATM   13  C   UNL     1      -8.044  12.265  67.980  1.00  0.00    -0.156 C  
HETATM   14  C   UNL     1      -8.649  13.643  67.732  1.00  0.00    -0.182 C  
HETATM   15  C   UNL     1      -7.941  14.701  68.526  1.00  0.00    -0.136 C  
HETATM   16  C   UNL     1      -9.674  13.887  66.887  1.00  0.00    -0.268 C  
HETATM   17  C   UNL     1      -6.158  12.591  69.882  1.00  0.00    -0.130 C  
HETATM   18  C   UNL     1      -6.498  14.808  68.013  1.00  0.00    -0.163 C  
HETATM   19  C   UNL     1      -6.532  12.275  68.413  1.00  0.00    -0.057 C  
HETATM   20  C   UNL     1      -5.892  13.429  67.571  1.00  0.00    -0.026 C  
ENDROOT
BRANCH  16  21
HETATM   21  C   UNL     1     -10.239  15.210  66.669  1.00  0.00    -0.270 C  
HETATM   22  C   UNL     1     -11.184  15.587  65.800  1.00  0.00    -0.133 C  
HETATM   23  C   UNL     1     -11.632  17.044  65.796  1.00  0.00     1.446 C  
HETATM   24  C   UNL     1     -11.471  17.677  64.414  1.00  0.00     2.846 C  
HETATM   25  C   UNL     1     -12.163  16.830  63.343  1.00  0.00     5.466 C  
HETATM   26  O   UNL     1     -10.087  17.839  64.097  1.00  0.00     3.756 OA 
HETATM   27  C   UNL     1     -11.721  15.359  63.390  1.00  0.00     1.727 C  
HETATM   28  H   UNL     1      -9.987  18.233  63.238  1.00  0.00     0.000 HD 
HETATM   29  C   UNL     1     -11.812  14.777  64.774  1.00  0.00    -0.425 C  
HETATM   30  C   UNL     1     -12.464  13.641  65.053  1.00  0.00    -0.454 C  
ENDBRANCH  16  21
TORSDOF 1
ENDMDL
MODEL      141
REMARK 921   NORMALIZED FREE ENERGY PREDICTED BY IDOCK:   14.38 KCAL/MOL
REMARK 922        TOTAL FREE ENERGY PREDICTED BY IDOCK:   14.75 KCAL/MOL
REMARK 923 INTER-LIGAND FREE ENERGY PREDICTED BY IDOCK:   15.58 KCAL/MOL
REMARK 924 INTRA-LIGAND FREE ENERGY PREDICTED BY IDOCK:   -0.84 KCAL/MOL
REMARK 927      BINDING AFFINITY PREDICTED BY RF-SCORE:    0.00 PKD
ROOT
HETATM    1  C   UNL     1      -6.078  12.797  70.127  1.00  0.00    -0.090 C  
HETATM    2  C   UNL     1      -5.817  14.290  70.375  1.00  0.00    -0.160 C  
HETATM    3  C   UNL     1      -6.798  14.887  71.414  1.00  0.00     1.253 C  
HETATM    4  C   UNL     1      -5.760  15.048  69.054  1.00  0.00    -0.096 C  
HETATM    5  C   UNL     1      -8.259  14.937  71.004  1.00  0.00     2.698 C  
HETATM    6  C   UNL     1      -6.392  16.317  71.790  1.00  0.00     2.706 C  
HETATM    7  C   UNL     1      -9.238  14.251  71.620  1.00  0.00     6.542 C  
HETATM    8  C   UNL     1     -10.731  14.553  71.548  1.00  0.00     1.515 C  
HETATM    9  C   UNL     1     -11.606  14.114  70.290  1.00  0.00    -0.267 C  
HETATM   10  C   UNL     1     -10.958  16.011  71.972  1.00  0.00     0.590 C  
HETATM   11  C   UNL     1     -11.145  14.780  68.993  1.00  0.00    -0.268 C  
HETATM   12  C   UNL     1     -10.281  13.754  68.271  1.00  0.00    -0.245 C  
HETATM   13  C   UNL     1     -10.271  12.465  69.132  1.00  0.00     0.205 C  
HETATM   14  C   UNL     1     -10.138  11.185  68.315  1.00  0.00    -0.196 C  
HETATM   15  C   UNL     1     -10.908  10.057  68.937  1.00  0.00    -0.250 C  
HETATM   16  C   UNL     1      -9.439  11.082  67.163  1.00  0.00    -0.181 C  
HETATM   17  C   UNL     1     -11.690  11.822  71.334  1.00  0.00     1.261 C  
HETATM   18  C   UNL     1     -12.403  10.403  68.883  1.00  0.00     0.627 C  
HETATM   19  C   UNL     1     -11.589  12.572  69.984  1.00  0.00    -0.207 C  
HETATM   20  C   UNL     1     -12.693  11.934  69.077  1.00  0.00     1.008 C  
ENDROOT
BRANCH  16  21
HETATM   21  C   UNL     1      -9.321   9.847  66.402  1.00  0.00    -0.213 C  
HETATM   22  C   UNL     1      -8.346   8.931  66.434  1.00  0.00    -0.117 C  
HETATM   23  C   UNL     1      -8.481   7.693  65.555  1.00  0.00    -0.132 C  
HETATM   24  C   UNL     1      -7.278   7.534  64.624  1.00  0.00    -0.068 C  
HETATM   25  C   UNL     1      -5.968   7.573  65.415  1.00  0.00    -0.038 C  
HETATM   26  O   UNL     1      -7.281   8.554  63.624  1.00  0.00    -0.091 OA 
HETATM   27  C   UNL     1      -5.873   8.811  66.320  1.00  0.00    -0.051 C  
HETATM   28  H   UNL     1      -6.534   8.455  63.045  1.00  0.00     0.000 HD 
HETATM   29  C   UNL     1      -7.099   8.995  67.171  1.00  0.00    -0.079 C  
HETATM   30  C   UNL     1      -7.056   9.147  68.502  1.00  0.00    -0.072 C  
ENDBRANCH  16  21
TORSDOF 1
ENDMDL
MODEL      142
REMARK 921   NORMALIZED FREE ENERGY PREDICTED BY IDOCK:   14.51 KCAL/MOL
REMARK 922        TOTAL FREE ENERGY PREDICTED BY IDOCK:   14.89 KCAL/MOL
REMARK 923 INTER-LIGAND FREE ENERGY PREDICTED BY IDOCK:   15.75 KCAL/MOL
REMARK 924 INTRA-LIGAND FREE ENERGY PREDICTED BY IDOCK:   -0.86 KCAL/MOL
REMARK 927      BINDING AFFINITY PREDICTED BY RF-SCORE:    0.00 PKD
ROOT
HETATM    1  C   UNL     1     -11.314   9.959  69.354  1.00  0.00    -0.143 C  
HETATM    2  C   UNL     1     -11.929   8.801  68.555  1.00  0.00     2.537 C  
HETATM    3  C   UNL     1     -10.857   7.791  68.077  1.00  0.00    -0.046 C  
HETATM    4  C   UNL     1     -12.828   9.337  67.446  1.00  0.00    11.581 C  
HETATM    5  C   UNL     1      -9.852   8.309  67.064  1.00  0.00    -0.298 C  
HETATM    6  C   UNL     1     -11.513   6.550  67.459  1.00  0.00     0.158 C  
HETATM    7  C   UNL     1      -8.533   8.417  67.301  1.00  0.00    -0.124 C  
HETATM    8  C   UNL     1      -7.435   8.525  66.249  1.00  0.00    -0.090 C  
HETATM    9  C   UNL     1      -7.126   9.903  65.510  1.00  0.00    -0.118 C  
HETATM   10  C   UNL     1      -7.556   7.331  65.290  1.00  0.00    -0.102 C  
HETATM   11  C   UNL     1      -8.316  10.413  64.697  1.00  0.00    -0.155 C  
HETATM   12  C   UNL     1      -9.002  11.466  65.557  1.00  0.00    -0.096 C  
HETATM   13  C   UNL     1      -8.184  11.601  66.867  1.00  0.00    -0.169 C  
HETATM   14  C   UNL     1      -8.222  13.002  67.469  1.00  0.00    -0.181 C  
HETATM   15  C   UNL     1      -6.922  13.346  68.134  1.00  0.00    -0.116 C  
HETATM   16  C   UNL     1      -9.281  13.838  67.393  1.00  0.00    -0.221 C  
HETATM   17  C   UNL     1      -5.804  10.536  67.561  1.00  0.00    -0.044 C  
HETATM   18  C   UNL     1      -5.830  13.412  67.057  1.00  0.00     0.887 C  
HETATM   19  C   UNL     1      -6.750  11.092  66.468  1.00  0.00    -0.135 C  
HETATM   20  C   UNL     1      -6.026  12.361  65.907  1.00  0.00     2.875 C  
ENDROOT
BRANCH  16  21
HETATM   21  C   UNL     1      -9.297  15.169  67.981  1.00  0.00    -0.187 C  
HETATM   22  C   UNL     1      -9.040  16.346  67.400  1.00  0.00    -0.206 C  
HETATM   23  C   UNL     1      -9.165  17.614  68.236  1.00  0.00    -0.283 C  
HETATM   24  C   UNL     1      -7.865  18.421  68.229  1.00  0.00    -0.298 C  
HETATM   25  C   UNL     1      -7.398  18.686  66.795  1.00  0.00    -0.234 C  
HETATM   26  O   UNL     1      -6.848  17.736  68.961  1.00  0.00    -0.238 OA 
HETATM   27  C   UNL     1      -7.315  17.398  65.963  1.00  0.00    -0.265 C  
HETATM   28  H   UNL     1      -6.041  18.237  68.956  1.00  0.00     0.000 HD 
HETATM   29  C   UNL     1      -8.573  16.579  66.046  1.00  0.00    -0.241 C  
HETATM   30  C   UNL     1      -9.244  16.147  64.970  1.00  0.00     1.705 C  
ENDBRANCH  16  21
TORSDOF 1
ENDMDL
MODEL      143
REMARK 921   NORMALIZED FREE ENERGY PREDICTED BY IDOCK:   14.70 KCAL/MOL
REMARK 922        TOTAL FREE ENERGY PREDICTED BY IDOCK:   15.09 KCAL/MOL
REMARK 923 INTER-LIGAND FREE ENERGY PREDICTED BY IDOCK:   15.46 KCAL/MOL
REMARK 924 INTRA-LIGAND FREE ENERGY PREDICTED BY IDOCK:   -0.37 KCAL/MOL
REMARK 927      BINDING AFFINITY PREDICTED BY RF-SCORE:    0.00 PKD
ROOT
HETATM    1  C   UNL     1      -8.004  13.024  66.959  1.00  0.00    -0.015 C  
HETATM    2  C   UNL     1      -6.714  12.247  66.655  1.00  0.00     0.401 C  
HETATM    3  C   UNL     1      -7.003  10.880  65.987  1.00  0.00    -0.066 C  
HETATM    4  C   UNL     1      -5.834  12.168  67.896  1.00  0.00    -0.069 C  
HETATM    5  C   UNL     1      -7.734   9.859  66.840  1.00  0.00    -0.098 C  
HETATM    6  C   UNL     1      -5.704  10.217  65.515  1.00  0.00    -0.096 C  
HETATM    7  C   UNL     1      -8.961   9.383  66.560  1.00  0.00    -0.176 C  
HETATM    8  C   UNL     1      -9.574   8.098  67.105  1.00  0.00    -0.227 C  
HETATM    9  C   UNL     1     -10.195   8.032  68.571  1.00  0.00    -0.231 C  
HETATM   10  C   UNL     1      -8.628   6.931  66.789  1.00  0.00    -0.120 C  
HETATM   11  C   UNL     1      -9.158   8.307  69.661  1.00  0.00    -0.154 C  
HETATM   12  C   UNL     1      -9.337   9.765  70.063  1.00  0.00    -0.274 C  
HETATM   13  C   UNL     1     -10.513  10.336  69.230  1.00  0.00    -0.250 C  
HETATM   14  C   UNL     1     -11.299  11.426  69.951  1.00  0.00    -0.300 C  
HETATM   15  C   UNL     1     -12.756  11.375  69.594  1.00  0.00     0.160 C  
HETATM   16  C   UNL     1     -10.761  12.310  70.820  1.00  0.00     3.410 C  
HETATM   17  C   UNL     1     -12.257   9.097  67.586  1.00  0.00     5.493 C  
HETATM   18  C   UNL     1     -13.339  10.057  70.123  1.00  0.00     0.484 C  
HETATM   19  C   UNL     1     -11.351   9.063  68.842  1.00  0.00     0.406 C  
HETATM   20  C   UNL     1     -12.329   8.857  70.046  1.00  0.00     0.881 C  
ENDROOT
BRANCH  16  21
HETATM   21  C   UNL     1     -11.530  13.346  71.492  1.00  0.00     2.030 C  
HETATM   22  C   UNL     1     -12.000  14.497  70.998  1.00  0.00    -0.394 C  
HETATM   23  C   UNL     1     -12.818  15.402  71.912  1.00  0.00    -0.474 C  
HETATM   24  C   UNL     1     -12.215  16.804  71.998  1.00  0.00     0.695 C  
HETATM   25  C   UNL     1     -12.001  17.392  70.601  1.00  0.00     3.950 C  
HETATM   26  O   UNL     1     -10.980  16.774  72.715  1.00  0.00     1.386 OA 
HETATM   27  C   UNL     1     -11.205  16.446  69.689  1.00  0.00    -0.257 C  
HETATM   28  H   UNL     1     -10.605  17.645  72.769  1.00  0.00     0.000 HD 
HETATM   29  C   UNL     1     -11.767  15.051  69.678  1.00  0.00    -0.353 C  
HETATM   30  C   UNL     1     -12.083  14.392  68.556  1.00  0.00    -0.278 C  
ENDBRANCH  16  21
TORSDOF 1
ENDMDL
MODEL      144
REMARK 921   NORMALIZED FREE ENERGY PREDICTED BY IDOCK:   15.99 KCAL/MOL
REMARK 922        TOTAL FREE ENERGY PREDICTED BY IDOCK:   16.46 KCAL/MOL
REMARK 923 INTER-LIGAND FREE ENERGY PREDICTED BY IDOCK:   16.93 KCAL/MOL
REMARK 924 INTRA-LIGAND FREE ENERGY PREDICTED BY IDOCK:   -0.47 KCAL/MOL
REMARK 927      BINDING AFFINITY PREDICTED BY RF-SCORE:    0.00 PKD
ROOT
HETATM    1  C   UNL     1     -11.328   6.938  66.080  1.00  0.00     2.239 C  
HETATM    2  C   UNL     1     -10.886   6.733  64.624  1.00  0.00     7.832 C  
HETATM    3  C   UNL     1     -10.902   5.239  64.216  1.00  0.00     2.201 C  
HETATM    4  C   UNL     1      -9.562   7.442  64.363  1.00  0.00     2.844 C  
HETATM    5  C   UNL     1      -9.906   4.340  64.926  1.00  0.00    -0.184 C  
HETATM    6  C   UNL     1     -10.652   5.080  62.712  1.00  0.00     1.135 C  
HETATM    7  C   UNL     1     -10.253   3.325  65.737  1.00  0.00     0.661 C  
HETATM    8  C   UNL     1      -9.365   2.153  66.143  1.00  0.00     0.105 C  
HETATM    9  C   UNL     1      -8.257   2.306  67.279  1.00  0.00    -0.076 C  
HETATM   10  C   UNL     1      -8.846   1.468  64.871  1.00  0.00    -0.114 C  
HETATM   11  C   UNL     1      -7.183   3.332  66.916  1.00  0.00    -0.059 C  
HETATM   12  C   UNL     1      -7.558   4.618  67.641  1.00  0.00    -0.078 C  
HETATM   13  C   UNL     1      -8.839   4.330  68.465  1.00  0.00    -0.134 C  
HETATM   14  C   UNL     1      -8.937   5.149  69.748  1.00  0.00    -0.141 C  
HETATM   15  C   UNL     1      -9.605   4.370  70.843  1.00  0.00    -0.255 C  
HETATM   16  C   UNL     1      -8.462   6.405  69.891  1.00  0.00    -0.131 C  
HETATM   17  C   UNL     1     -10.130   2.009  68.940  1.00  0.00     0.767 C  
HETATM   18  C   UNL     1      -8.707   3.179  71.206  1.00  0.00    -0.120 C  
HETATM   19  C   UNL     1      -8.809   2.772  68.676  1.00  0.00    -0.158 C  
HETATM   20  C   UNL     1      -7.954   2.569  69.971  1.00  0.00    -0.053 C  
ENDROOT
BRANCH  16  21
HETATM   21  C   UNL     1      -8.572   7.171  71.124  1.00  0.00    -0.129 C  
HETATM   22  C   UNL     1      -7.879   8.249  71.507  1.00  0.00    -0.138 C  
HETATM   23  C   UNL     1      -8.216   8.894  72.846  1.00  0.00     0.437 C  
HETATM   24  C   UNL     1      -6.988   8.977  73.753  1.00  0.00     0.370 C  
HETATM   25  C   UNL     1      -5.823   9.659  73.031  1.00  0.00     0.354 C  
HETATM   26  O   UNL     1      -6.602   7.674  74.192  1.00  0.00    -0.083 OA 
HETATM   27  C   UNL     1      -5.526   9.013  71.669  1.00  0.00    -0.053 C  
HETATM   28  H   UNL     1      -5.839   7.725  74.756  1.00  0.00     0.000 HD 
HETATM   29  C   UNL     1      -6.760   8.868  70.822  1.00  0.00    -0.059 C  
HETATM   30  C   UNL     1      -6.848   9.320  69.564  1.00  0.00    -0.048 C  
ENDBRANCH  16  21
TORSDOF 1
ENDMDL
MODEL      145
REMARK 921   NORMALIZED FREE ENERGY PREDICTED BY IDOCK:   17.38 KCAL/MOL
REMARK 922        TOTAL FREE ENERGY PREDICTED BY IDOCK:   17.93 KCAL/MOL
REMARK 923 INTER-LIGAND FREE ENERGY PREDICTED BY IDOCK:   18.40 KCAL/MOL
REMARK 924 INTRA-LIGAND FREE ENERGY PREDICTED BY IDOCK:   -0.47 KCAL/MOL
REMARK 927      BINDING AFFINITY PREDICTED BY RF-SCORE:    0.00 PKD
ROOT
HETATM    1  C   UNL     1     -11.421  18.477  67.992  1.00  0.00     1.106 C  
HETATM    2  C   UNL     1     -11.474  19.407  69.213  1.00  0.00     3.649 C  
HETATM    3  C   UNL     1     -10.221  20.312  69.310  1.00  0.00    -0.012 C  
HETATM    4  C   UNL     1     -11.775  18.611  70.478  1.00  0.00     7.553 C  
HETATM    5  C   UNL     1      -8.903  19.605  69.571  1.00  0.00     0.311 C  
HETATM    6  C   UNL     1     -10.390  21.362  70.414  1.00  0.00     2.922 C  
HETATM    7  C   UNL     1      -7.874  19.589  68.705  1.00  0.00    -0.377 C  
HETATM    8  C   UNL     1      -6.420  19.275  69.041  1.00  0.00    -0.324 C  
HETATM    9  C   UNL     1      -5.916  17.775  69.227  1.00  0.00    -0.226 C  
HETATM   10  C   UNL     1      -5.962  20.217  70.165  1.00  0.00    -0.386 C  
HETATM   11  C   UNL     1      -6.610  17.062  70.388  1.00  0.00     0.967 C  
HETATM   12  C   UNL     1      -7.714  16.213  69.770  1.00  0.00     0.316 C  
HETATM   13  C   UNL     1      -7.638  16.400  68.234  1.00  0.00    -0.163 C  
HETATM   14  C   UNL     1      -8.083  15.172  67.447  1.00  0.00    -0.209 C  
HETATM   15  C   UNL     1      -7.296  15.022  66.178  1.00  0.00     2.809 C  
HETATM   16  C   UNL     1      -9.044  14.312  67.849  1.00  0.00    -0.190 C  
HETATM   17  C   UNL     1      -5.800  17.658  66.712  1.00  0.00    -0.203 C  
HETATM   18  C   UNL     1      -5.832  14.743  66.546  1.00  0.00     3.161 C  
HETATM   19  C   UNL     1      -6.151  16.845  67.982  1.00  0.00    -0.139 C  
HETATM   20  C   UNL     1      -5.361  15.501  67.838  1.00  0.00    -0.139 C  
ENDROOT
BRANCH  16  21
HETATM   21  C   UNL     1      -9.456  13.149  67.079  1.00  0.00    -0.242 C  
HETATM   22  C   UNL     1     -10.367  12.218  67.385  1.00  0.00    -0.219 C  
HETATM   23  C   UNL     1     -10.644  11.108  66.378  1.00  0.00    -0.315 C  
HETATM   24  C   UNL     1     -10.437   9.726  66.997  1.00  0.00    -0.227 C  
HETATM   25  C   UNL     1     -11.244   9.582  68.289  1.00  0.00     0.058 C  
HETATM   26  O   UNL     1      -9.051   9.494  67.252  1.00  0.00    -0.130 OA 
HETATM   27  C   UNL     1     -10.975  10.731  69.273  1.00  0.00    -0.292 C  
HETATM   28  H   UNL     1      -8.922   8.634  67.636  1.00  0.00     0.000 HD 
HETATM   29  C   UNL     1     -11.106  12.082  68.626  1.00  0.00    -0.298 C  
HETATM   30  C   UNL     1     -11.880  13.061  69.114  1.00  0.00    -0.360 C  
ENDBRANCH  16  21
TORSDOF 1
ENDMDL
MODEL      146
REMARK 921   NORMALIZED FREE ENERGY PREDICTED BY IDOCK:   19.71 KCAL/MOL
REMARK 922        TOTAL FREE ENERGY PREDICTED BY IDOCK:   20.40 KCAL/MOL
REMARK 923 INTER-LIGAND FREE ENERGY PREDICTED BY IDOCK:   21.17 KCAL/MOL
REMARK 924 INTRA-LIGAND FREE ENERGY PREDICTED BY IDOCK:   -0.78 KCAL/MOL
REMARK 927      BINDING AFFINITY PREDICTED BY RF-SCORE:    0.00 PKD
ROOT
HETATM    1  C   UNL     1     -13.700  12.002  69.511  1.00  0.00     4.759 C  
HETATM    2  C   UNL     1     -13.549  11.461  70.940  1.00  0.00     0.982 C  
HETATM    3  C   UNL     1     -13.556  12.595  71.995  1.00  0.00    -0.426 C  
HETATM    4  C   UNL     1     -12.350  10.524  71.032  1.00  0.00    -0.503 C  
HETATM    5  C   UNL     1     -12.385  13.560  71.950  1.00  0.00     0.051 C  
HETATM    6  C   UNL     1     -13.606  12.020  73.415  1.00  0.00     4.947 C  
HETATM    7  C   UNL     1     -12.499  14.870  71.669  1.00  0.00    -0.395 C  
HETATM    8  C   UNL     1     -11.479  15.954  72.001  1.00  0.00    -0.422 C  
HETATM    9  C   UNL     1     -10.176  16.168  71.108  1.00  0.00     1.550 C  
HETATM   10  C   UNL     1     -11.186  15.907  73.508  1.00  0.00     1.209 C  
HETATM   11  C   UNL     1      -9.261  14.943  71.102  1.00  0.00     2.913 C  
HETATM   12  C   UNL     1      -9.560  14.193  69.810  1.00  0.00     0.903 C  
HETATM   13  C   UNL     1     -10.629  15.006  69.037  1.00  0.00    -0.245 C  
HETATM   14  C   UNL     1     -10.515  14.878  67.522  1.00  0.00    -0.254 C  
HETATM   15  C   UNL     1     -10.900  16.155  66.835  1.00  0.00    -0.175 C  
HETATM   16  C   UNL     1     -10.098  13.766  66.877  1.00  0.00    -0.260 C  
HETATM   17  C   UNL     1     -11.654  17.453  69.522  1.00  0.00     1.910 C  
HETATM   18  C   UNL     1      -9.878  17.236  67.214  1.00  0.00    -0.267 C  
HETATM   19  C   UNL     1     -10.462  16.468  69.591  1.00  0.00    -0.267 C  
HETATM   20  C   UNL     1      -9.353  17.104  68.688  1.00  0.00    -0.269 C  
ENDROOT
BRANCH  16  21
HETATM   21  C   UNL     1     -10.003  13.664  65.429  1.00  0.00    -0.236 C  
HETATM   22  C   UNL     1     -10.801  13.007  64.579  1.00  0.00    -0.390 C  
HETATM   23  C   UNL     1     -10.502  13.090  63.087  1.00  0.00     1.249 C  
HETATM   24  C   UNL     1     -10.319  11.701  62.474  1.00  0.00     0.810 C  
HETATM   25  C   UNL     1     -11.513  10.800  62.801  1.00  0.00     1.794 C  
HETATM   26  O   UNL     1      -9.108  11.105  62.939  1.00  0.00    -0.301 OA 
HETATM   27  C   UNL     1     -11.816  10.761  64.307  1.00  0.00     1.911 C  
HETATM   28  H   UNL     1      -8.994  10.242  62.558  1.00  0.00     0.000 HD 
HETATM   29  C   UNL     1     -11.913  12.136  64.908  1.00  0.00    -0.356 C  
HETATM   30  C   UNL     1     -12.960  12.550  65.635  1.00  0.00     0.954 C  
ENDBRANCH  16  21
TORSDOF 1
ENDMDL
MODEL      147
REMARK 921   NORMALIZED FREE ENERGY PREDICTED BY IDOCK:   20.01 KCAL/MOL
REMARK 922        TOTAL FREE ENERGY PREDICTED BY IDOCK:   20.71 KCAL/MOL
REMARK 923 INTER-LIGAND FREE ENERGY PREDICTED BY IDOCK:   18.44 KCAL/MOL
REMARK 924 INTRA-LIGAND FREE ENERGY PREDICTED BY IDOCK:    2.27 KCAL/MOL
REMARK 927      BINDING AFFINITY PREDICTED BY RF-SCORE:    0.00 PKD
ROOT
HETATM    1  C   UNL     1      -7.557  10.451  69.367  1.00  0.00    -0.140 C  
HETATM    2  C   UNL     1      -7.553  10.241  70.889  1.00  0.00     1.131 C  
HETATM    3  C   UNL     1      -7.026   8.838  71.281  1.00  0.00    -0.088 C  
HETATM    4  C   UNL     1      -8.915  10.589  71.479  1.00  0.00     5.322 C  
HETATM    5  C   UNL     1      -7.878   7.658  70.851  1.00  0.00    -0.090 C  
HETATM    6  C   UNL     1      -6.844   8.728  72.799  1.00  0.00     0.065 C  
HETATM    7  C   UNL     1      -7.476   6.716  69.980  1.00  0.00    -0.094 C  
HETATM    8  C   UNL     1      -8.077   5.324  69.817  1.00  0.00    -0.087 C  
HETATM    9  C   UNL     1      -9.428   5.094  69.003  1.00  0.00    -0.186 C  
HETATM   10  C   UNL     1      -8.057   4.619  71.181  1.00  0.00    -0.088 C  
HETATM   11  C   UNL     1     -10.620   5.820  69.627  1.00  0.00    -0.396 C  
HETATM   12  C   UNL     1     -10.804   7.104  68.829  1.00  0.00    -0.157 C  
HETATM   13  C   UNL     1      -9.737   7.109  67.704  1.00  0.00    -0.172 C  
HETATM   14  C   UNL     1     -10.188   7.830  66.438  1.00  0.00    -0.053 C  
HETATM   15  C   UNL     1      -9.622   7.180  65.210  1.00  0.00     1.177 C  
HETATM   16  C   UNL     1     -11.011   8.901  66.419  1.00  0.00     0.905 C  
HETATM   17  C   UNL     1      -8.015   5.188  66.918  1.00  0.00    -0.104 C  
HETATM   18  C   UNL     1     -10.217   5.770  65.090  1.00  0.00     1.253 C  
HETATM   19  C   UNL     1      -9.388   5.588  67.511  1.00  0.00    -0.114 C  
HETATM   20  C   UNL     1     -10.445   5.072  66.478  1.00  0.00    -0.325 C  
ENDROOT
BRANCH  16  21
HETATM   21  C   UNL     1     -11.424   9.577  65.199  1.00  0.00     5.520 C  
HETATM   22  C   UNL     1     -10.667  10.032  64.194  1.00  0.00     1.893 C  
HETATM   23  C   UNL     1     -11.355  10.677  62.997  1.00  0.00     1.723 C  
HETATM   24  C   UNL     1     -10.837  12.094  62.748  1.00  0.00     0.756 C  
HETATM   25  C   UNL     1      -9.310  12.104  62.643  1.00  0.00     1.253 C  
HETATM   26  O   UNL     1     -11.266  12.973  63.789  1.00  0.00    -0.478 OA 
HETATM   27  C   UNL     1      -8.641  11.417  63.844  1.00  0.00     0.493 C  
HETATM   28  H   UNL     1     -10.944  13.854  63.634  1.00  0.00     0.000 HD 
HETATM   29  C   UNL     1      -9.218  10.057  64.122  1.00  0.00    -0.319 C  
HETATM   30  C   UNL     1      -8.473   8.949  64.236  1.00  0.00    -0.165 C  
ENDBRANCH  16  21
TORSDOF 1
ENDMDL
MODEL      148
REMARK 921   NORMALIZED FREE ENERGY PREDICTED BY IDOCK:   21.79 KCAL/MOL
REMARK 922        TOTAL FREE ENERGY PREDICTED BY IDOCK:   22.59 KCAL/MOL
REMARK 923 INTER-LIGAND FREE ENERGY PREDICTED BY IDOCK:   19.49 KCAL/MOL
REMARK 924 INTRA-LIGAND FREE ENERGY PREDICTED BY IDOCK:    3.10 KCAL/MOL
REMARK 927      BINDING AFFINITY PREDICTED BY RF-SCORE:    0.00 PKD
ROOT
HETATM    1  C   UNL     1     -10.967  10.933  68.634  1.00  0.00    -0.274 C  
HETATM    2  C   UNL     1     -12.007  11.471  69.627  1.00  0.00    -0.407 C  
HETATM    3  C   UNL     1     -11.414  11.663  71.044  1.00  0.00     1.084 C  
HETATM    4  C   UNL     1     -13.274  10.624  69.584  1.00  0.00     0.935 C  
HETATM    5  C   UNL     1     -10.984  10.400  71.768  1.00  0.00     1.849 C  
HETATM    6  C   UNL     1     -12.409  12.385  71.960  1.00  0.00     0.627 C  
HETATM    7  C   UNL     1      -9.714  10.124  72.113  1.00  0.00     4.881 C  
HETATM    8  C   UNL     1      -9.266   9.120  73.170  1.00  0.00     1.791 C  
HETATM    9  C   UNL     1      -9.220   7.557  72.862  1.00  0.00    -0.218 C  
HETATM   10  C   UNL     1      -9.960   9.462  74.497  1.00  0.00     9.897 C  
HETATM   11  C   UNL     1     -10.598   6.984  72.527  1.00  0.00    -0.255 C  
HETATM   12  C   UNL     1     -10.666   6.895  71.008  1.00  0.00    -0.258 C  
HETATM   13  C   UNL     1      -9.303   7.382  70.453  1.00  0.00    -0.161 C  
HETATM   14  C   UNL     1      -8.901   6.709  69.145  1.00  0.00    -0.129 C  
HETATM   15  C   UNL     1      -7.415   6.523  69.061  1.00  0.00    -0.095 C  
HETATM   16  C   UNL     1      -9.771   6.307  68.192  1.00  0.00    -0.123 C  
HETATM   17  C   UNL     1      -7.009   7.994  71.734  1.00  0.00    -0.069 C  
HETATM   18  C   UNL     1      -6.988   5.536  70.157  1.00  0.00    -0.064 C  
HETATM   19  C   UNL     1      -8.307   7.154  71.648  1.00  0.00    -0.110 C  
HETATM   20  C   UNL     1      -7.825   5.674  71.478  1.00  0.00    -0.112 C  
ENDROOT
BRANCH  16  21
HETATM   21  C   UNL     1      -9.364   5.671  66.949  1.00  0.00    -0.129 C  
HETATM   22  C   UNL     1      -8.386   6.023  66.106  1.00  0.00    -0.126 C  
HETATM   23  C   UNL     1      -8.136   5.158  64.877  1.00  0.00    -0.119 C  
HETATM   24  C   UNL     1      -8.224   5.976  63.588  1.00  0.00    -0.025 C  
HETATM   25  C   UNL     1      -7.309   7.202  63.659  1.00  0.00    -0.085 C  
HETATM   26  O   UNL     1      -9.572   6.379  63.342  1.00  0.00     1.449 OA 
HETATM   27  C   UNL     1      -7.556   8.038  64.924  1.00  0.00    -0.106 C  
HETATM   28  H   UNL     1      -9.626   6.887  62.541  1.00  0.00     0.000 HD 
HETATM   29  C   UNL     1      -7.545   7.203  66.175  1.00  0.00    -0.092 C  
HETATM   30  C   UNL     1      -6.784   7.483  67.241  1.00  0.00    -0.067 C  
ENDBRANCH  16  21
TORSDOF 1
ENDMDL
MODEL      149
REMARK 921   NORMALIZED FREE ENERGY PREDICTED BY IDOCK:   23.98 KCAL/MOL
REMARK 922        TOTAL FREE ENERGY PREDICTED BY IDOCK:   24.91 KCAL/MOL
REMARK 923 INTER-LIGAND FREE ENERGY PREDICTED BY IDOCK:   23.25 KCAL/MOL
REMARK 924 INTRA-LIGAND FREE ENERGY PREDICTED BY IDOCK:    1.67 KCAL/MOL
REMARK 927      BINDING AFFINITY PREDICTED BY RF-SCORE:    0.00 PKD
ROOT
HETATM    1  C   UNL     1     -12.744   9.076  70.645  1.00  0.00     0.247 C  
HETATM    2  C   UNL     1     -13.608   7.813  70.519  1.00  0.00     0.895 C  
HETATM    3  C   UNL     1     -12.936   6.581  71.173  1.00  0.00     0.186 C  
HETATM    4  C   UNL     1     -14.037   7.601  69.071  1.00  0.00    11.869 C  
HETATM    5  C   UNL     1     -11.654   6.092  70.522  1.00  0.00    -0.129 C  
HETATM    6  C   UNL     1     -13.899   5.388  71.211  1.00  0.00     4.853 C  
HETATM    7  C   UNL     1     -10.453   6.102  71.125  1.00  0.00    -0.281 C  
HETATM    8  C   UNL     1      -9.236   5.276  70.721  1.00  0.00    -0.191 C  
HETATM    9  C   UNL     1      -8.308   5.709  69.500  1.00  0.00    -0.103 C  
HETATM   10  C   UNL     1      -9.637   3.794  70.688  1.00  0.00    -0.259 C  
HETATM   11  C   UNL     1      -9.061   5.730  68.169  1.00  0.00    -0.110 C  
HETATM   12  C   UNL     1      -9.431   7.184  67.910  1.00  0.00    -0.135 C  
HETATM   13  C   UNL     1      -8.855   8.026  69.077  1.00  0.00    -0.145 C  
HETATM   14  C   UNL     1      -8.461   9.442  68.673  1.00  0.00    -0.119 C  
HETATM   15  C   UNL     1      -7.259   9.913  69.438  1.00  0.00    -0.083 C  
HETATM   16  C   UNL     1      -9.094  10.173  67.730  1.00  0.00    -0.135 C  
HETATM   17  C   UNL     1      -7.210   7.321  71.097  1.00  0.00    -0.072 C  
HETATM   18  C   UNL     1      -6.059   9.043  69.038  1.00  0.00    -0.043 C  
HETATM   19  C   UNL     1      -7.677   7.143  69.631  1.00  0.00    -0.109 C  
HETATM   20  C   UNL     1      -6.443   7.547  68.757  1.00  0.00    -0.048 C  
ENDROOT
BRANCH  16  21
HETATM   21  C   UNL     1      -8.704  11.525  67.364  1.00  0.00    -0.147 C  
HETATM   22  C   UNL     1      -8.558  12.599  68.149  1.00  0.00    -0.188 C  
HETATM   23  C   UNL     1      -8.097  13.907  67.517  1.00  0.00    -0.191 C  
HETATM   24  C   UNL     1      -9.085  15.041  67.791  1.00  0.00    -0.180 C  
HETATM   25  C   UNL     1      -9.372  15.163  69.290  1.00  0.00    -0.207 C  
HETATM   26  O   UNL     1     -10.301  14.829  67.072  1.00  0.00    -0.252 OA 
HETATM   27  C   UNL     1      -9.800  13.824  69.910  1.00  0.00     1.458 C  
HETATM   28  H   UNL     1     -10.916  15.533  67.242  1.00  0.00     0.000 HD 
HETATM   29  C   UNL     1      -8.857  12.704  69.564  1.00  0.00     1.625 C  
HETATM   30  C   UNL     1      -8.293  11.906  70.480  1.00  0.00     5.240 C  
ENDBRANCH  16  21
TORSDOF 1
ENDMDL
MODEL      150
REMARK 921   NORMALIZED FREE ENERGY PREDICTED BY IDOCK:   24.55 KCAL/MOL
REMARK 922        TOTAL FREE ENERGY PREDICTED BY IDOCK:   25.51 KCAL/MOL
REMARK 923 INTER-LIGAND FREE ENERGY PREDICTED BY IDOCK:   26.09 KCAL/MOL
REMARK 924 INTRA-LIGAND FREE ENERGY PREDICTED BY IDOCK:   -0.58 KCAL/MOL
REMARK 927      BINDING AFFINITY PREDICTED BY RF-SCORE:    0.00 PKD
ROOT
HETATM    1  C   UNL     1      -8.830  16.312  65.196  1.00  0.00     2.083 C  
HETATM    2  C   UNL     1      -9.809  17.442  64.846  1.00  0.00     2.200 C  
HETATM    3  C   UNL     1     -10.098  18.358  66.061  1.00  0.00    -0.293 C  
HETATM    4  C   UNL     1     -11.055  16.879  64.173  1.00  0.00     1.369 C  
HETATM    5  C   UNL     1     -10.835  17.718  67.224  1.00  0.00    -0.164 C  
HETATM    6  C   UNL     1     -10.914  19.586  65.638  1.00  0.00    -0.221 C  
HETATM    7  C   UNL     1     -10.309  17.556  68.451  1.00  0.00    -0.378 C  
HETATM    8  C   UNL     1     -11.089  17.316  69.739  1.00  0.00     0.681 C  
HETATM    9  C   UNL     1     -11.662  15.875  70.106  1.00  0.00    -0.342 C  
HETATM   10  C   UNL     1     -12.117  18.444  69.908  1.00  0.00     9.242 C  
HETATM   11  C   UNL     1     -12.686  15.374  69.087  1.00  0.00     0.390 C  
HETATM   12  C   UNL     1     -11.937  14.422  68.163  1.00  0.00    -0.320 C  
HETATM   13  C   UNL     1     -10.475  14.336  68.670  1.00  0.00    -0.249 C  
HETATM   14  C   UNL     1      -9.817  12.985  68.409  1.00  0.00    -0.203 C  
HETATM   15  C   UNL     1      -8.865  12.619  69.510  1.00  0.00     1.625 C  
HETATM   16  C   UNL     1     -10.074  12.203  67.338  1.00  0.00    -0.208 C  
HETATM   17  C   UNL     1      -9.339  15.319  70.911  1.00  0.00     1.849 C  
HETATM   18  C   UNL     1      -9.672  12.419  70.801  1.00  0.00     7.378 C  
HETATM   19  C   UNL     1     -10.579  14.739  70.187  1.00  0.00     0.014 C  
HETATM   20  C   UNL     1     -10.894  13.396  70.927  1.00  0.00     2.700 C  
ENDROOT
BRANCH  16  21
HETATM   21  C   UNL     1      -9.430  10.920  67.106  1.00  0.00    -0.178 C  
HETATM   22  C   UNL     1      -9.541   9.785  67.807  1.00  0.00    -0.157 C  
HETATM   23  C   UNL     1      -8.781   8.554  67.327  1.00  0.00    -0.133 C  
HETATM   24  C   UNL     1      -7.861   8.003  68.417  1.00  0.00    -0.122 C  
HETATM   25  C   UNL     1      -8.638   7.765  69.715  1.00  0.00    -0.134 C  
HETATM   26  O   UNL     1      -6.771   8.896  68.651  1.00  0.00    -0.057 OA 
HETATM   27  C   UNL     1      -9.424   9.009  70.159  1.00  0.00    -0.217 C  
HETATM   28  H   UNL     1      -6.200   8.554  69.328  1.00  0.00     0.000 HD 
HETATM   29  C   UNL     1     -10.261   9.584  69.050  1.00  0.00    -0.211 C  
HETATM   30  C   UNL     1     -11.572   9.835  69.171  1.00  0.00     0.150 C  
ENDBRANCH  16  21
TORSDOF 1
ENDMDL
MODEL      151
REMARK 921   NORMALIZED FREE ENERGY PREDICTED BY IDOCK:   26.86 KCAL/MOL
REMARK 922        TOTAL FREE ENERGY PREDICTED BY IDOCK:   27.96 KCAL/MOL
REMARK 923 INTER-LIGAND FREE ENERGY PREDICTED BY IDOCK:   17.67 KCAL/MOL
REMARK 924 INTRA-LIGAND FREE ENERGY PREDICTED BY IDOCK:   10.29 KCAL/MOL
REMARK 927      BINDING AFFINITY PREDICTED BY RF-SCORE:    0.00 PKD
ROOT
HETATM    1  C   UNL     1     -11.575  10.982  65.235  1.00  0.00     0.596 C  
HETATM    2  C   UNL     1     -11.749  12.223  64.348  1.00  0.00    -0.437 C  
HETATM    3  C   UNL     1     -10.392  12.875  63.987  1.00  0.00    -0.346 C  
HETATM    4  C   UNL     1     -12.764  13.180  64.963  1.00  0.00    -0.456 C  
HETATM    5  C   UNL     1      -9.611  13.480  65.141  1.00  0.00     0.187 C  
HETATM    6  C   UNL     1     -10.578  13.984  62.945  1.00  0.00     5.545 C  
HETATM    7  C   UNL     1      -8.411  13.035  65.553  1.00  0.00     1.997 C  
HETATM    8  C   UNL     1      -7.404  13.811  66.394  1.00  0.00     2.313 C  
HETATM    9  C   UNL     1      -7.574  13.953  67.972  1.00  0.00    -0.144 C  
HETATM   10  C   UNL     1      -7.099  15.142  65.691  1.00  0.00     6.500 C  
HETATM   11  C   UNL     1      -8.858  14.688  68.360  1.00  0.00    -0.181 C  
HETATM   12  C   UNL     1      -9.872  13.613  68.729  1.00  0.00    -0.069 C  
HETATM   13  C   UNL     1      -9.164  12.241  68.594  1.00  0.00    -0.005 C  
HETATM   14  C   UNL     1      -9.685  11.187  69.566  1.00  0.00     0.286 C  
HETATM   15  C   UNL     1      -8.588  10.265  70.011  1.00  0.00     0.103 C  
HETATM   16  C   UNL     1     -10.964  11.106  69.993  1.00  0.00    -0.079 C  
HETATM   17  C   UNL     1      -6.572  11.646  68.139  1.00  0.00    -0.061 C  
HETATM   18  C   UNL     1      -7.571  11.079  70.824  1.00  0.00     2.670 C  
HETATM   19  C   UNL     1      -7.638  12.588  68.750  1.00  0.00    -0.024 C  
HETATM   20  C   UNL     1      -7.383  12.546  70.294  1.00  0.00     2.141 C  
ENDROOT
BRANCH  16  21
HETATM   21  C   UNL     1     -11.440  10.088  70.916  1.00  0.00    -0.452 C  
HETATM   22  C   UNL     1     -10.824   8.974  71.329  1.00  0.00    -0.385 C  
HETATM   23  C   UNL     1     -11.532   8.082  72.343  1.00  0.00    -0.449 C  
HETATM   24  C   UNL     1     -11.679   6.652  71.823  1.00  0.00    -0.318 C  
HETATM   25  C   UNL     1     -10.326   6.095  71.371  1.00  0.00    -0.260 C  
HETATM   26  O   UNL     1     -12.617   6.604  70.747  1.00  0.00    -0.371 OA 
HETATM   27  C   UNL     1      -9.617   7.029  70.378  1.00  0.00    -0.169 C  
HETATM   28  H   UNL     1     -12.708   5.715  70.425  1.00  0.00     0.000 HD 
HETATM   29  C   UNL     1      -9.552   8.448  70.872  1.00  0.00    -0.212 C  
HETATM   30  C   UNL     1      -8.415   9.153  70.941  1.00  0.00    -0.251 C  
ENDBRANCH  16  21
TORSDOF 1
ENDMDL
MODEL      152
REMARK 921   NORMALIZED FREE ENERGY PREDICTED BY IDOCK:   27.11 KCAL/MOL
REMARK 922        TOTAL FREE ENERGY PREDICTED BY IDOCK:   28.22 KCAL/MOL
REMARK 923 INTER-LIGAND FREE ENERGY PREDICTED BY IDOCK:   28.83 KCAL/MOL
REMARK 924 INTRA-LIGAND FREE ENERGY PREDICTED BY IDOCK:   -0.61 KCAL/MOL
REMARK 927      BINDING AFFINITY PREDICTED BY RF-SCORE:    0.00 PKD
ROOT
HETATM    1  C   UNL     1     -11.628  11.631  66.085  1.00  0.00    -0.105 C  
HETATM    2  C   UNL     1     -10.652  10.447  66.005  1.00  0.00    -0.136 C  
HETATM    3  C   UNL     1     -10.192   9.978  67.407  1.00  0.00    -0.269 C  
HETATM    4  C   UNL     1      -9.515  10.758  65.039  1.00  0.00    -0.286 C  
HETATM    5  C   UNL     1      -9.351  10.962  68.200  1.00  0.00    -0.165 C  
HETATM    6  C   UNL     1      -9.383   8.678  67.309  1.00  0.00    -0.186 C  
HETATM    7  C   UNL     1      -9.738  11.516  69.363  1.00  0.00     0.426 C  
HETATM    8  C   UNL     1      -8.826  12.162  70.400  1.00  0.00     5.451 C  
HETATM    9  C   UNL     1      -8.270  13.644  70.207  1.00  0.00     2.883 C  
HETATM   10  C   UNL     1      -7.742  11.150  70.799  1.00  0.00     3.268 C  
HETATM   11  C   UNL     1      -7.390  13.783  68.964  1.00  0.00    -0.036 C  
HETATM   12  C   UNL     1      -8.275  14.382  67.879  1.00  0.00    -0.157 C  
HETATM   13  C   UNL     1      -9.672  14.631  68.504  1.00  0.00    -0.225 C  
HETATM   14  C   UNL     1     -10.406  15.824  67.900  1.00  0.00    -0.261 C  
HETATM   15  C   UNL     1     -11.239  16.530  68.929  1.00  0.00    -0.257 C  
HETATM   16  C   UNL     1     -10.304  16.212  66.611  1.00  0.00    -0.297 C  
HETATM   17  C   UNL     1     -10.504  14.436  71.062  1.00  0.00     1.597 C  
HETATM   18  C   UNL     1     -10.298  17.140  69.978  1.00  0.00     0.365 C  
HETATM   19  C   UNL     1      -9.379  14.746  70.045  1.00  0.00     0.543 C  
HETATM   20  C   UNL     1      -9.032  16.256  70.266  1.00  0.00     1.626 C  
ENDROOT
BRANCH  16  21
HETATM   21  C   UNL     1     -11.019  17.351  66.055  1.00  0.00     0.211 C  
HETATM   22  C   UNL     1     -10.526  18.485  65.545  1.00  0.00     0.046 C  
HETATM   23  C   UNL     1     -11.498  19.517  64.986  1.00  0.00     1.898 C  
HETATM   24  C   UNL     1     -11.320  20.878  65.660  1.00  0.00     2.937 C  
HETATM   25  C   UNL     1      -9.859  21.330  65.597  1.00  0.00     2.723 C  
HETATM   26  O   UNL     1     -11.763  20.825  67.017  1.00  0.00     2.733 OA 
HETATM   27  C   UNL     1      -8.896  20.259  66.133  1.00  0.00    -0.177 C  
HETATM   28  H   UNL     1     -11.652  21.671  67.436  1.00  0.00     0.000 HD 
HETATM   29  C   UNL     1      -9.139  18.909  65.516  1.00  0.00     0.997 C  
HETATM   30  C   UNL     1      -8.176  18.181  64.935  1.00  0.00     3.683 C  
ENDBRANCH  16  21
TORSDOF 1
ENDMDL
MODEL      153
REMARK 921   NORMALIZED FREE ENERGY PREDICTED BY IDOCK:   28.13 KCAL/MOL
REMARK 922        TOTAL FREE ENERGY PREDICTED BY IDOCK:   29.30 KCAL/MOL
REMARK 923 INTER-LIGAND FREE ENERGY PREDICTED BY IDOCK:   28.41 KCAL/MOL
REMARK 924 INTRA-LIGAND FREE ENERGY PREDICTED BY IDOCK:    0.90 KCAL/MOL
REMARK 927      BINDING AFFINITY PREDICTED BY RF-SCORE:    0.00 PKD
ROOT
HETATM    1  C   UNL     1     -11.617  10.541  69.697  1.00  0.00    -0.342 C  
HETATM    2  C   UNL     1     -11.457   9.038  69.427  1.00  0.00     0.361 C  
HETATM    3  C   UNL     1     -10.053   8.521  69.827  1.00  0.00    -0.197 C  
HETATM    4  C   UNL     1     -11.866   8.706  67.996  1.00  0.00     2.773 C  
HETATM    5  C   UNL     1      -8.885   9.062  69.021  1.00  0.00    -0.136 C  
HETATM    6  C   UNL     1      -9.987   6.992  69.735  1.00  0.00    -0.179 C  
HETATM    7  C   UNL     1      -7.904   9.823  69.536  1.00  0.00    -0.128 C  
HETATM    8  C   UNL     1      -6.526  10.051  68.923  1.00  0.00    -0.048 C  
HETATM    9  C   UNL     1      -6.311  11.084  67.728  1.00  0.00    -0.058 C  
HETATM   10  C   UNL     1      -5.866   8.687  68.678  1.00  0.00    -0.044 C  
HETATM   11  C   UNL     1      -7.093  10.700  66.472  1.00  0.00    -0.133 C  
HETATM   12  C   UNL     1      -8.355  11.553  66.477  1.00  0.00    -0.147 C  
HETATM   13  C   UNL     1      -8.290  12.471  67.724  1.00  0.00    -0.170 C  
HETATM   14  C   UNL     1      -8.982  13.816  67.528  1.00  0.00    -0.201 C  
HETATM   15  C   UNL     1      -8.275  14.907  68.277  1.00  0.00    -0.145 C  
HETATM   16  C   UNL     1     -10.077  14.009  66.760  1.00  0.00    -0.264 C  
HETATM   17  C   UNL     1      -6.292  12.889  69.487  1.00  0.00    -0.103 C  
HETATM   18  C   UNL     1      -6.880  15.091  67.662  1.00  0.00    -0.203 C  
HETATM   19  C   UNL     1      -6.754  12.559  68.047  1.00  0.00    -0.090 C  
HETATM   20  C   UNL     1      -6.237  13.747  67.169  1.00  0.00     0.670 C  
ENDROOT
BRANCH  16  21
HETATM   21  C   UNL     1     -10.724  15.301  66.592  1.00  0.00    -0.309 C  
HETATM   22  C   UNL     1     -11.287  16.085  67.519  1.00  0.00    -0.047 C  
HETATM   23  C   UNL     1     -11.870  17.424  67.084  1.00  0.00     2.026 C  
HETATM   24  C   UNL     1     -13.343  17.547  67.475  1.00  0.00     8.182 C  
HETATM   25  C   UNL     1     -13.537  17.260  68.966  1.00  0.00     9.201 C  
HETATM   26  O   UNL     1     -14.144  16.659  66.693  1.00  0.00     7.971 OA 
HETATM   27  C   UNL     1     -12.909  15.922  69.386  1.00  0.00     0.855 C  
HETATM   28  H   UNL     1     -15.059  16.735  66.936  1.00  0.00     0.000 HD 
HETATM   29  C   UNL     1     -11.485  15.786  68.924  1.00  0.00    -0.381 C  
HETATM   30  C   UNL     1     -10.471  15.476  69.744  1.00  0.00    -0.308 C  
ENDBRANCH  16  21
TORSDOF 1
ENDMDL
MODEL      154
REMARK 921   NORMALIZED FREE ENERGY PREDICTED BY IDOCK:   35.56 KCAL/MOL
REMARK 922        TOTAL FREE ENERGY PREDICTED BY IDOCK:   37.17 KCAL/MOL
REMARK 923 INTER-LIGAND FREE ENERGY PREDICTED BY IDOCK:   35.99 KCAL/MOL
REMARK 924 INTRA-LIGAND FREE ENERGY PREDICTED BY IDOCK:    1.18 KCAL/MOL
REMARK 927      BINDING AFFINITY PREDICTED BY RF-SCORE:    0.00 PKD
ROOT
HETATM    1  C   UNL     1     -13.132  11.323  69.118  1.00  0.00     1.824 C  
HETATM    2  C   UNL     1     -12.916  10.405  70.331  1.00  0.00    -0.188 C  
HETATM    3  C   UNL     1     -13.280  11.107  71.663  1.00  0.00    -0.449 C  
HETATM    4  C   UNL     1     -11.517   9.800  70.300  1.00  0.00    -0.317 C  
HETATM    5  C   UNL     1     -12.407  12.284  72.060  1.00  0.00     0.646 C  
HETATM    6  C   UNL     1     -13.247  10.114  72.830  1.00  0.00     1.060 C  
HETATM    7  C   UNL     1     -12.851  13.549  72.167  1.00  0.00    -0.330 C  
HETATM    8  C   UNL     1     -12.175  14.679  72.935  1.00  0.00    -0.264 C  
HETATM    9  C   UNL     1     -10.932  15.469  72.326  1.00  0.00     0.253 C  
HETATM   10  C   UNL     1     -11.958  14.225  74.386  1.00  0.00     1.773 C  
HETATM   11  C   UNL     1      -9.725  14.564  72.080  1.00  0.00     5.227 C  
HETATM   12  C   UNL     1      -9.746  14.218  70.596  1.00  0.00     2.473 C  
HETATM   13  C   UNL     1     -10.952  14.958  69.963  1.00  0.00    -0.234 C  
HETATM   14  C   UNL     1     -10.730  15.351  68.507  1.00  0.00    -0.256 C  
HETATM   15  C   UNL     1     -11.406  16.651  68.184  1.00  0.00    -0.095 C  
HETATM   16  C   UNL     1     -10.000  14.636  67.624  1.00  0.00    -0.227 C  
HETATM   17  C   UNL     1     -12.616  16.806  71.009  1.00  0.00     2.848 C  
HETATM   18  C   UNL     1     -10.729  17.764  68.997  1.00  0.00     0.156 C  
HETATM   19  C   UNL     1     -11.210  16.162  70.942  1.00  0.00    -0.329 C  
HETATM   20  C   UNL     1     -10.265  17.297  70.422  1.00  0.00     1.259 C  
ENDROOT
BRANCH  16  21
HETATM   21  C   UNL     1      -9.806  15.027  66.236  1.00  0.00    -0.307 C  
HETATM   22  C   UNL     1      -9.337  16.181  65.747  1.00  0.00    -0.221 C  
HETATM   23  C   UNL     1      -9.195  16.328  64.236  1.00  0.00     6.301 C  
HETATM   24  C   UNL     1      -9.969  17.539  63.716  1.00  0.00     9.958 C  
HETATM   25  C   UNL     1      -9.580  18.804  64.484  1.00  0.00     5.926 C  
HETATM   26  O   UNL     1     -11.376  17.313  63.815  1.00  0.00     0.129 OA 
HETATM   27  C   UNL     1      -9.698  18.620  66.005  1.00  0.00    -0.140 C  
HETATM   28  H   UNL     1     -11.857  18.066  63.491  1.00  0.00     0.000 HD 
HETATM   29  C   UNL     1      -8.996  17.380  66.488  1.00  0.00    -0.285 C  
HETATM   30  C   UNL     1      -8.091  17.383  67.476  1.00  0.00    -0.205 C  
ENDBRANCH  16  21
TORSDOF 1
ENDMDL
MODEL      155
REMARK 921   NORMALIZED FREE ENERGY PREDICTED BY IDOCK:   36.18 KCAL/MOL
REMARK 922        TOTAL FREE ENERGY PREDICTED BY IDOCK:   37.82 KCAL/MOL
REMARK 923 INTER-LIGAND FREE ENERGY PREDICTED BY IDOCK:   38.29 KCAL/MOL
REMARK 924 INTRA-LIGAND FREE ENERGY PREDICTED BY IDOCK:   -0.47 KCAL/MOL
REMARK 927      BINDING AFFINITY PREDICTED BY RF-SCORE:    0.00 PKD
ROOT
HETATM    1  C   UNL     1     -14.032  16.548  72.597  1.00  0.00     1.107 C  
HETATM    2  C   UNL     1     -13.123  17.487  73.404  1.00  0.00     3.536 C  
HETATM    3  C   UNL     1     -12.344  18.467  72.494  1.00  0.00     8.448 C  
HETATM    4  C   UNL     1     -12.249  16.688  74.364  1.00  0.00    -0.361 C  
HETATM    5  C   UNL     1     -11.320  17.845  71.561  1.00  0.00     3.083 C  
HETATM    6  C   UNL     1     -11.604  19.518  73.330  1.00  0.00     8.059 C  
HETATM    7  C   UNL     1     -11.405  17.881  70.219  1.00  0.00     3.016 C  
HETATM    8  C   UNL     1     -10.258  17.660  69.238  1.00  0.00    -0.147 C  
HETATM    9  C   UNL     1      -9.742  16.195  68.882  1.00  0.00    -0.242 C  
HETATM   10  C   UNL     1      -9.127  18.641  69.578  1.00  0.00     0.471 C  
HETATM   11  C   UNL     1      -9.188  15.455  70.100  1.00  0.00     0.400 C  
HETATM   12  C   UNL     1     -10.301  14.534  70.583  1.00  0.00     0.941 C  
HETATM   13  C   UNL     1     -11.500  14.707  69.616  1.00  0.00    -0.329 C  
HETATM   14  C   UNL     1     -12.340  13.444  69.454  1.00  0.00    -0.126 C  
HETATM   15  C   UNL     1     -12.887  13.328  68.061  1.00  0.00     1.611 C  
HETATM   16  C   UNL     1     -12.548  12.533  70.429  1.00  0.00    -0.099 C  
HETATM   17  C   UNL     1     -11.690  16.056  67.288  1.00  0.00     0.449 C  
HETATM   18  C   UNL     1     -11.710  13.142  67.093  1.00  0.00    -0.430 C  
HETATM   19  C   UNL     1     -10.841  15.237  68.291  1.00  0.00    -0.262 C  
HETATM   20  C   UNL     1     -10.427  13.943  67.514  1.00  0.00    -0.248 C  
ENDROOT
BRANCH  16  21
HETATM   21  C   UNL     1     -13.358  11.338  70.253  1.00  0.00     0.759 C  
HETATM   22  C   UNL     1     -13.443  10.257  71.038  1.00  0.00    -0.172 C  
HETATM   23  C   UNL     1     -14.407   9.144  70.645  1.00  0.00     0.601 C  
HETATM   24  C   UNL     1     -13.690   7.801  70.513  1.00  0.00     1.057 C  
HETATM   25  C   UNL     1     -12.888   7.486  71.779  1.00  0.00    -0.359 C  
HETATM   26  O   UNL     1     -12.830   7.803  69.372  1.00  0.00     2.250 OA 
HETATM   27  C   UNL     1     -11.950   8.636  72.174  1.00  0.00    -0.449 C  
HETATM   28  H   UNL     1     -12.384   6.968  69.290  1.00  0.00     0.000 HD 
HETATM   29  C   UNL     1     -12.657   9.963  72.221  1.00  0.00    -0.200 C  
HETATM   30  C   UNL     1     -12.619  10.781  73.281  1.00  0.00     5.926 C  
ENDBRANCH  16  21
TORSDOF 1
ENDMDL
MODEL      156
REMARK 921   NORMALIZED FREE ENERGY PREDICTED BY IDOCK:   43.22 KCAL/MOL
REMARK 922        TOTAL FREE ENERGY PREDICTED BY IDOCK:   45.28 KCAL/MOL
REMARK 923 INTER-LIGAND FREE ENERGY PREDICTED BY IDOCK:   36.17 KCAL/MOL
REMARK 924 INTRA-LIGAND FREE ENERGY PREDICTED BY IDOCK:    9.11 KCAL/MOL
REMARK 927      BINDING AFFINITY PREDICTED BY RF-SCORE:    0.00 PKD
ROOT
HETATM    1  C   UNL     1     -10.581   6.740  66.925  1.00  0.00    -0.374 C  
HETATM    2  C   UNL     1     -11.251   7.151  65.606  1.00  0.00     4.735 C  
HETATM    3  C   UNL     1     -10.245   7.792  64.618  1.00  0.00     5.109 C  
HETATM    4  C   UNL     1     -12.491   7.994  65.877  1.00  0.00    12.866 C  
HETATM    5  C   UNL     1      -9.648   9.123  65.039  1.00  0.00     0.095 C  
HETATM    6  C   UNL     1     -10.891   8.008  63.244  1.00  0.00    13.079 C  
HETATM    7  C   UNL     1      -8.341   9.315  65.289  1.00  0.00    -0.151 C  
HETATM    8  C   UNL     1      -7.616  10.657  65.308  1.00  0.00    -0.006 C  
HETATM    9  C   UNL     1      -7.708  11.633  66.564  1.00  0.00    -0.003 C  
HETATM   10  C   UNL     1      -7.859  11.364  63.966  1.00  0.00     1.296 C  
HETATM   11  C   UNL     1      -9.137  12.106  66.836  1.00  0.00    -0.203 C  
HETATM   12  C   UNL     1      -9.671  11.227  67.960  1.00  0.00    -0.185 C  
HETATM   13  C   UNL     1      -8.533  10.259  68.375  1.00  0.00    -0.124 C  
HETATM   14  C   UNL     1      -8.571   9.868  69.848  1.00  0.00    -0.216 C  
HETATM   15  C   UNL     1      -7.188   9.683  70.399  1.00  0.00    -0.147 C  
HETATM   16  C   UNL     1      -9.702   9.729  70.574  1.00  0.00    -0.195 C  
HETATM   17  C   UNL     1      -5.941  10.186  67.631  1.00  0.00    -0.053 C  
HETATM   18  C   UNL     1      -6.470  11.040  70.373  1.00  0.00     0.005 C  
HETATM   19  C   UNL     1      -7.224  11.003  67.921  1.00  0.00    -0.086 C  
HETATM   20  C   UNL     1      -6.857  11.923  69.133  1.00  0.00    -0.099 C  
ENDROOT
BRANCH  16  21
HETATM   21  C   UNL     1      -9.715   9.349  71.978  1.00  0.00     0.683 C  
HETATM   22  C   UNL     1      -8.748   8.772  72.700  1.00  0.00     0.092 C  
HETATM   23  C   UNL     1      -9.002   8.509  74.180  1.00  0.00     0.768 C  
HETATM   24  C   UNL     1      -8.812   7.032  74.528  1.00  0.00    -0.194 C  
HETATM   25  C   UNL     1      -7.445   6.533  74.052  1.00  0.00    -0.083 C  
HETATM   26  O   UNL     1      -9.854   6.244  73.950  1.00  0.00    -0.174 OA 
HETATM   27  C   UNL     1      -7.199   6.841  72.567  1.00  0.00    -0.075 C  
HETATM   28  H   UNL     1      -9.736   5.327  74.167  1.00  0.00     0.000 HD 
HETATM   29  C   UNL     1      -7.467   8.281  72.228  1.00  0.00    -0.149 C  
HETATM   30  C   UNL     1      -6.584   9.066  71.598  1.00  0.00    -0.042 C  
ENDBRANCH  16  21
TORSDOF 1
ENDMDL
MODEL      157
REMARK 921   NORMALIZED FREE ENERGY PREDICTED BY IDOCK:   43.42 KCAL/MOL
REMARK 922        TOTAL FREE ENERGY PREDICTED BY IDOCK:   45.49 KCAL/MOL
REMARK 923 INTER-LIGAND FREE ENERGY PREDICTED BY IDOCK:   45.96 KCAL/MOL
REMARK 924 INTRA-LIGAND FREE ENERGY PREDICTED BY IDOCK:   -0.47 KCAL/MOL
REMARK 927      BINDING AFFINITY PREDICTED BY RF-SCORE:    0.00 PKD
ROOT
HETATM    1  C   UNL     1     -11.931  12.494  68.799  1.00  0.00    -0.283 C  
HETATM    2  C   UNL     1     -13.261  12.336  69.550  1.00  0.00     2.104 C  
HETATM    3  C   UNL     1     -13.051  12.169  71.075  1.00  0.00    -0.018 C  
HETATM    4  C   UNL     1     -14.111  11.245  68.908  1.00  0.00     8.861 C  
HETATM    5  C   UNL     1     -12.343  10.902  71.520  1.00  0.00    -0.344 C  
HETATM    6  C   UNL     1     -14.391  12.215  71.819  1.00  0.00     1.790 C  
HETATM    7  C   UNL     1     -11.147  10.884  72.134  1.00  0.00     4.796 C  
HETATM    8  C   UNL     1     -10.576   9.736  72.959  1.00  0.00     5.130 C  
HETATM    9  C   UNL     1      -9.919   8.461  72.265  1.00  0.00    -0.383 C  
HETATM   10  C   UNL     1     -11.581   9.380  74.065  1.00  0.00     9.386 C  
HETATM   11  C   UNL     1     -10.913   7.688  71.398  1.00  0.00    -0.257 C  
HETATM   12  C   UNL     1     -10.660   8.127  69.961  1.00  0.00    -0.239 C  
HETATM   13  C   UNL     1      -9.482   9.135  69.985  1.00  0.00    -0.218 C  
HETATM   14  C   UNL     1      -8.630   9.108  68.721  1.00  0.00    -0.131 C  
HETATM   15  C   UNL     1      -7.187   9.381  69.029  1.00  0.00    -0.071 C  
HETATM   16  C   UNL     1      -9.104   8.846  67.484  1.00  0.00    -0.146 C  
HETATM   17  C   UNL     1      -7.840   9.861  71.999  1.00  0.00     2.575 C  
HETATM   18  C   UNL     1      -6.649   8.229  69.890  1.00  0.00    -0.039 C  
HETATM   19  C   UNL     1      -8.712   8.783  71.310  1.00  0.00    -0.273 C  
HETATM   20  C   UNL     1      -7.712   7.653  70.892  1.00  0.00    -0.088 C  
ENDROOT
BRANCH  16  21
HETATM   21  C   UNL     1      -8.273   8.831  66.290  1.00  0.00    -0.115 C  
HETATM   22  C   UNL     1      -8.549   8.329  65.081  1.00  0.00    -0.132 C  
HETATM   23  C   UNL     1      -7.509   8.476  63.975  1.00  0.00    -0.116 C  
HETATM   24  C   UNL     1      -7.123   7.120  63.385  1.00  0.00    -0.066 C  
HETATM   25  C   UNL     1      -8.367   6.345  62.944  1.00  0.00     0.068 C  
HETATM   26  O   UNL     1      -6.376   6.356  64.333  1.00  0.00    -0.029 OA 
HETATM   27  C   UNL     1      -9.415   6.241  64.063  1.00  0.00     1.995 C  
HETATM   28  H   UNL     1      -6.136   5.513  63.966  1.00  0.00     0.000 HD 
HETATM   29  C   UNL     1      -9.723   7.574  64.686  1.00  0.00     2.798 C  
HETATM   30  C   UNL     1     -10.966   8.057  64.815  1.00  0.00     9.406 C  
ENDBRANCH  16  21
TORSDOF 1
ENDMDL
MODEL      158
REMARK 921   NORMALIZED FREE ENERGY PREDICTED BY IDOCK:   45.26 KCAL/MOL
REMARK 922        TOTAL FREE ENERGY PREDICTED BY IDOCK:   47.44 KCAL/MOL
REMARK 923 INTER-LIGAND FREE ENERGY PREDICTED BY IDOCK:   47.96 KCAL/MOL
REMARK 924 INTRA-LIGAND FREE ENERGY PREDICTED BY IDOCK:   -0.52 KCAL/MOL
REMARK 927      BINDING AFFINITY PREDICTED BY RF-SCORE:    0.00 PKD
ROOT
HETATM    1  C   UNL     1      -9.653  14.037  72.815  1.00  0.00     9.927 C  
HETATM    2  C   UNL     1     -10.821  13.040  72.862  1.00  0.00    10.679 C  
HETATM    3  C   UNL     1     -10.401  11.629  72.382  1.00  0.00    14.087 C  
HETATM    4  C   UNL     1     -12.039  13.612  72.146  1.00  0.00     0.593 C  
HETATM    5  C   UNL     1     -10.006  11.509  70.921  1.00  0.00     5.276 C  
HETATM    6  C   UNL     1     -11.522  10.613  72.626  1.00  0.00     4.922 C  
HETATM    7  C   UNL     1      -8.773  11.175  70.499  1.00  0.00     3.454 C  
HETATM    8  C   UNL     1      -8.408  10.641  69.119  1.00  0.00    -0.140 C  
HETATM    9  C   UNL     1      -8.264  11.613  67.864  1.00  0.00    -0.141 C  
HETATM   10  C   UNL     1      -9.262   9.396  68.833  1.00  0.00    -0.140 C  
HETATM   11  C   UNL     1      -9.570  12.332  67.526  1.00  0.00    -0.184 C  
HETATM   12  C   UNL     1      -9.461  13.724  68.136  1.00  0.00    -0.212 C  
HETATM   13  C   UNL     1      -8.065  13.832  68.800  1.00  0.00    -0.022 C  
HETATM   14  C   UNL     1      -7.490  15.244  68.786  1.00  0.00    -0.135 C  
HETATM   15  C   UNL     1      -5.997  15.224  68.636  1.00  0.00    -0.091 C  
HETATM   16  C   UNL     1      -8.228  16.372  68.873  1.00  0.00    -0.235 C  
HETATM   17  C   UNL     1      -5.958  12.148  68.730  1.00  0.00    -0.057 C  
HETATM   18  C   UNL     1      -5.658  14.650  67.253  1.00  0.00     0.566 C  
HETATM   19  C   UNL     1      -7.203  12.759  68.040  1.00  0.00    -0.115 C  
HETATM   20  C   UNL     1      -6.645  13.520  66.791  1.00  0.00     1.570 C  
ENDROOT
BRANCH  16  21
HETATM   21  C   UNL     1      -7.658  17.710  68.864  1.00  0.00    -0.219 C  
HETATM   22  C   UNL     1      -8.067  18.793  68.193  1.00  0.00    -0.327 C  
HETATM   23  C   UNL     1      -7.308  20.101  68.387  1.00  0.00    -0.237 C  
HETATM   24  C   UNL     1      -6.801  20.657  67.056  1.00  0.00    -0.301 C  
HETATM   25  C   UNL     1      -7.942  20.766  66.041  1.00  0.00     0.377 C  
HETATM   26  O   UNL     1      -5.755  19.835  66.536  1.00  0.00    -0.172 OA 
HETATM   27  C   UNL     1      -8.714  19.446  65.890  1.00  0.00    -0.025 C  
HETATM   28  H   UNL     1      -5.440  20.181  65.709  1.00  0.00     0.000 HD 
HETATM   29  C   UNL     1      -9.136  18.873  67.215  1.00  0.00    -0.301 C  
HETATM   30  C   UNL     1     -10.397  18.521  67.497  1.00  0.00    -0.440 C  
ENDBRANCH  16  21
TORSDOF 1
ENDMDL
MODEL      159
REMARK 921   NORMALIZED FREE ENERGY PREDICTED BY IDOCK:   62.05 KCAL/MOL
REMARK 922        TOTAL FREE ENERGY PREDICTED BY IDOCK:   65.21 KCAL/MOL
REMARK 923 INTER-LIGAND FREE ENERGY PREDICTED BY IDOCK:   57.80 KCAL/MOL
REMARK 924 INTRA-LIGAND FREE ENERGY PREDICTED BY IDOCK:    7.41 KCAL/MOL
REMARK 927      BINDING AFFINITY PREDICTED BY RF-SCORE:    0.00 PKD
ROOT
HETATM    1  C   UNL     1     -11.597  10.209  69.370  1.00  0.00    -0.151 C  
HETATM    2  C   UNL     1     -12.806   9.988  68.449  1.00  0.00     4.720 C  
HETATM    3  C   UNL     1     -12.544   8.877  67.402  1.00  0.00     9.885 C  
HETATM    4  C   UNL     1     -13.275  11.312  67.859  1.00  0.00     6.287 C  
HETATM    5  C   UNL     1     -11.472   9.171  66.368  1.00  0.00     2.808 C  
HETATM    6  C   UNL     1     -13.826   8.540  66.632  1.00  0.00    25.246 C  
HETATM    7  C   UNL     1     -10.326   8.476  66.254  1.00  0.00     0.087 C  
HETATM    8  C   UNL     1      -9.419   8.431  65.029  1.00  0.00     0.706 C  
HETATM    9  C   UNL     1      -8.401   9.614  64.706  1.00  0.00    -0.156 C  
HETATM   10  C   UNL     1     -10.255   7.996  63.816  1.00  0.00     7.174 C  
HETATM   11  C   UNL     1      -9.109  10.945  64.455  1.00  0.00    -0.181 C  
HETATM   12  C   UNL     1      -9.015  11.731  65.757  1.00  0.00    -0.011 C  
HETATM   13  C   UNL     1      -8.212  10.868  66.764  1.00  0.00    -0.140 C  
HETATM   14  C   UNL     1      -7.402  11.688  67.762  1.00  0.00    -0.106 C  
HETATM   15  C   UNL     1      -6.116  11.003  68.115  1.00  0.00    -0.049 C  
HETATM   16  C   UNL     1      -7.780  12.891  68.248  1.00  0.00    -0.137 C  
HETATM   17  C   UNL     1      -6.866   8.557  66.403  1.00  0.00    -0.074 C  
HETATM   18  C   UNL     1      -5.238  10.939  66.857  1.00  0.00    -0.056 C  
HETATM   19  C   UNL     1      -7.362   9.915  65.846  1.00  0.00    -0.108 C  
HETATM   20  C   UNL     1      -6.061  10.729  65.536  1.00  0.00    -0.062 C  
ENDROOT
BRANCH  16  21
HETATM   21  C   UNL     1      -6.993  13.654  69.204  1.00  0.00    -0.070 C  
HETATM   22  C   UNL     1      -6.103  13.214  70.101  1.00  0.00    -0.099 C  
HETATM   23  C   UNL     1      -5.378  14.235  70.970  1.00  0.00    -0.153 C  
HETATM   24  C   UNL     1      -5.573  13.944  72.458  1.00  0.00    -0.050 C  
HETATM   25  C   UNL     1      -5.195  12.496  72.783  1.00  0.00     0.425 C  
HETATM   26  O   UNL     1      -6.925  14.199  72.844  1.00  0.00     1.073 OA 
HETATM   27  C   UNL     1      -5.911  11.489  71.871  1.00  0.00     1.190 C  
HETATM   28  H   UNL     1      -7.046  14.018  73.769  1.00  0.00     0.000 HD 
HETATM   29  C   UNL     1      -5.774  11.837  70.414  1.00  0.00    -0.161 C  
HETATM   30  C   UNL     1      -5.331  10.974  69.489  1.00  0.00    -0.038 C  
ENDBRANCH  16  21
TORSDOF 1
ENDMDL
MODEL      160
REMARK 921   NORMALIZED FREE ENERGY PREDICTED BY IDOCK:   67.56 KCAL/MOL
REMARK 922        TOTAL FREE ENERGY PREDICTED BY IDOCK:   71.04 KCAL/MOL
REMARK 923 INTER-LIGAND FREE ENERGY PREDICTED BY IDOCK:   70.34 KCAL/MOL
REMARK 924 INTRA-LIGAND FREE ENERGY PREDICTED BY IDOCK:    0.70 KCAL/MOL
REMARK 927      BINDING AFFINITY PREDICTED BY RF-SCORE:    0.00 PKD
ROOT
HETATM    1  C   UNL     1     -12.709  14.205  67.205  1.00  0.00     0.568 C  
HETATM    2  C   UNL     1     -12.753  12.670  67.247  1.00  0.00     1.633 C  
HETATM    3  C   UNL     1     -12.744  12.128  68.697  1.00  0.00     1.448 C  
HETATM    4  C   UNL     1     -11.673  12.081  66.347  1.00  0.00    -0.326 C  
HETATM    5  C   UNL     1     -11.480  12.380  69.499  1.00  0.00    -0.309 C  
HETATM    6  C   UNL     1     -12.989  10.614  68.716  1.00  0.00     2.543 C  
HETATM    7  C   UNL     1     -11.430  13.143  70.606  1.00  0.00     0.571 C  
HETATM    8  C   UNL     1     -10.339  13.113  71.671  1.00  0.00     8.713 C  
HETATM    9  C   UNL     1      -8.942  13.846  71.448  1.00  0.00     8.063 C  
HETATM   10  C   UNL     1     -10.199  11.674  72.189  1.00  0.00    13.089 C  
HETATM   11  C   UNL     1      -8.162  13.275  70.262  1.00  0.00     3.604 C  
HETATM   12  C   UNL     1      -8.412  14.218  69.092  1.00  0.00     0.142 C  
HETATM   13  C   UNL     1      -9.311  15.370  69.608  1.00  0.00    -0.208 C  
HETATM   14  C   UNL     1      -9.066  16.699  68.901  1.00  0.00    -0.238 C  
HETATM   15  C   UNL     1      -9.249  17.857  69.838  1.00  0.00     1.449 C  
HETATM   16  C   UNL     1      -8.707  16.821  67.605  1.00  0.00    -0.207 C  
HETATM   17  C   UNL     1     -10.119  15.974  72.111  1.00  0.00     4.024 C  
HETATM   18  C   UNL     1      -8.161  17.783  70.918  1.00  0.00     6.037 C  
HETATM   19  C   UNL     1      -9.047  15.388  71.159  1.00  0.00     2.864 C  
HETATM   20  C   UNL     1      -7.797  16.313  71.332  1.00  0.00     6.140 C  
ENDROOT
BRANCH  16  21
HETATM   21  C   UNL     1      -8.484  18.100  66.949  1.00  0.00    -0.265 C  
HETATM   22  C   UNL     1      -9.351  19.097  66.736  1.00  0.00    -0.364 C  
HETATM   23  C   UNL     1      -8.852  20.364  66.051  1.00  0.00    -0.001 C  
HETATM   24  C   UNL     1      -9.665  20.681  64.796  1.00  0.00     1.937 C  
HETATM   25  C   UNL     1     -11.163  20.716  65.113  1.00  0.00     1.251 C  
HETATM   26  O   UNL     1      -9.400  19.720  63.772  1.00  0.00     6.483 OA 
HETATM   27  C   UNL     1     -11.634  19.444  65.834  1.00  0.00     1.483 C  
HETATM   28  H   UNL     1      -9.905  19.917  62.992  1.00  0.00     0.000 HD 
HETATM   29  C   UNL     1     -10.774  19.105  67.020  1.00  0.00    -0.542 C  
HETATM   30  C   UNL     1     -11.264  18.886  68.247  1.00  0.00     0.761 C  
ENDBRANCH  16  21
TORSDOF 1
ENDMDL
MODEL      161
REMARK 921   NORMALIZED FREE ENERGY PREDICTED BY IDOCK:   72.18 KCAL/MOL
REMARK 922        TOTAL FREE ENERGY PREDICTED BY IDOCK:   75.93 KCAL/MOL
REMARK 923 INTER-LIGAND FREE ENERGY PREDICTED BY IDOCK:   76.46 KCAL/MOL
REMARK 924 INTRA-LIGAND FREE ENERGY PREDICTED BY IDOCK:   -0.53 KCAL/MOL
REMARK 927      BINDING AFFINITY PREDICTED BY RF-SCORE:    0.00 PKD
ROOT
HETATM    1  C   UNL     1     -10.331   7.015  68.198  1.00  0.00    -0.226 C  
HETATM    2  C   UNL     1     -11.241   6.297  67.190  1.00  0.00    -0.260 C  
HETATM    3  C   UNL     1     -11.049   6.831  65.750  1.00  0.00     2.966 C  
HETATM    4  C   UNL     1     -12.685   6.304  67.677  1.00  0.00     8.446 C  
HETATM    5  C   UNL     1     -11.466   8.270  65.507  1.00  0.00     7.595 C  
HETATM    6  C   UNL     1     -11.816   5.969  64.740  1.00  0.00     6.571 C  
HETATM    7  C   UNL     1     -10.617   9.252  65.158  1.00  0.00     2.179 C  
HETATM    8  C   UNL     1     -10.993  10.580  64.510  1.00  0.00     0.658 C  
HETATM    9  C   UNL     1     -11.582  11.786  65.370  1.00  0.00    -0.190 C  
HETATM   10  C   UNL     1     -11.794  10.293  63.231  1.00  0.00     4.657 C  
HETATM   11  C   UNL     1     -12.914  11.436  66.036  1.00  0.00     5.362 C  
HETATM   12  C   UNL     1     -12.587  11.067  67.477  1.00  0.00     3.254 C  
HETATM   13  C   UNL     1     -11.058  11.242  67.666  1.00  0.00    -0.336 C  
HETATM   14  C   UNL     1     -10.661  11.650  69.081  1.00  0.00    -0.147 C  
HETATM   15  C   UNL     1      -9.467  12.559  69.072  1.00  0.00     0.400 C  
HETATM   16  C   UNL     1     -11.312  11.264  70.200  1.00  0.00    -0.251 C  
HETATM   17  C   UNL     1      -9.200  12.295  66.017  1.00  0.00    -0.086 C  
HETATM   18  C   UNL     1      -9.864  13.873  68.383  1.00  0.00    -0.229 C  
HETATM   19  C   UNL     1     -10.656  12.269  66.545  1.00  0.00    -0.263 C  
HETATM   20  C   UNL     1     -10.878  13.672  67.201  1.00  0.00    -0.292 C  
ENDROOT
BRANCH  16  21
HETATM   21  C   UNL     1     -10.911  11.660  71.541  1.00  0.00     4.565 C  
HETATM   22  C   UNL     1     -11.669  12.122  72.542  1.00  0.00     5.307 C  
HETATM   23  C   UNL     1     -11.003  12.433  73.877  1.00  0.00    17.206 C  
HETATM   24  C   UNL     1     -11.256  13.879  74.306  1.00  0.00     5.016 C  
HETATM   25  C   UNL     1     -12.753  14.198  74.289  1.00  0.00     2.367 C  
HETATM   26  O   UNL     1     -10.548  14.783  73.455  1.00  0.00     1.920 OA 
HETATM   27  C   UNL     1     -13.408  13.843  72.945  1.00  0.00    -0.417 C  
HETATM   28  H   UNL     1     -10.705  15.682  73.722  1.00  0.00     0.000 HD 
HETATM   29  C   UNL     1     -13.083  12.443  72.502  1.00  0.00     0.200 C  
HETATM   30  C   UNL     1     -14.015  11.546  72.155  1.00  0.00     0.489 C  
ENDBRANCH  16  21
TORSDOF 1
ENDMDL
MODEL      162
REMARK 921   NORMALIZED FREE ENERGY PREDICTED BY IDOCK:   78.25 KCAL/MOL
REMARK 922        TOTAL FREE ENERGY PREDICTED BY IDOCK:   82.35 KCAL/MOL
REMARK 923 INTER-LIGAND FREE ENERGY PREDICTED BY IDOCK:   70.68 KCAL/MOL
REMARK 924 INTRA-LIGAND FREE ENERGY PREDICTED BY IDOCK:   11.67 KCAL/MOL
REMARK 927      BINDING AFFINITY PREDICTED BY RF-SCORE:    0.00 PKD
ROOT
HETATM    1  C   UNL     1      -8.691  13.478  65.965  1.00  0.00     0.736 C  
HETATM    2  C   UNL     1      -9.165  14.190  64.689  1.00  0.00     2.411 C  
HETATM    3  C   UNL     1     -10.705  14.145  64.535  1.00  0.00    -0.323 C  
HETATM    4  C   UNL     1      -8.395  13.680  63.476  1.00  0.00    10.966 C  
HETATM    5  C   UNL     1     -11.316  12.773  64.316  1.00  0.00    -0.416 C  
HETATM    6  C   UNL     1     -11.164  15.029  63.369  1.00  0.00     2.425 C  
HETATM    7  C   UNL     1     -12.158  12.178  65.179  1.00  0.00    -0.285 C  
HETATM    8  C   UNL     1     -13.113  11.032  64.861  1.00  0.00     4.918 C  
HETATM    9  C   UNL     1     -12.599   9.526  64.766  1.00  0.00    14.093 C  
HETATM   10  C   UNL     1     -14.003  11.448  63.681  1.00  0.00     2.668 C  
HETATM   11  C   UNL     1     -11.571   9.325  63.652  1.00  0.00    11.774 C  
HETATM   12  C   UNL     1     -10.203   9.349  64.323  1.00  0.00     2.027 C  
HETATM   13  C   UNL     1     -10.435   9.525  65.845  1.00  0.00     0.123 C  
HETATM   14  C   UNL     1      -9.369   8.857  66.706  1.00  0.00    -0.224 C  
HETATM   15  C   UNL     1      -9.953   8.322  67.981  1.00  0.00    -0.224 C  
HETATM   16  C   UNL     1      -8.069   8.737  66.359  1.00  0.00    -0.103 C  
HETATM   17  C   UNL     1     -12.717   9.483  67.284  1.00  0.00    10.010 C  
HETATM   18  C   UNL     1     -10.935   7.195  67.628  1.00  0.00    -0.226 C  
HETATM   19  C   UNL     1     -11.897   8.989  66.067  1.00  0.00     6.798 C  
HETATM   20  C   UNL     1     -11.719   7.450  66.292  1.00  0.00     4.225 C  
ENDROOT
BRANCH  16  21
HETATM   21  C   UNL     1      -7.068   8.100  67.199  1.00  0.00    -0.079 C  
HETATM   22  C   UNL     1      -7.230   7.471  68.370  1.00  0.00    -0.093 C  
HETATM   23  C   UNL     1      -6.009   6.849  69.038  1.00  0.00    -0.022 C  
HETATM   24  C   UNL     1      -5.811   7.387  70.455  1.00  0.00    -0.027 C  
HETATM   25  C   UNL     1      -7.092   7.237  71.279  1.00  0.00    -0.064 C  
HETATM   26  O   UNL     1      -5.405   8.757  70.418  1.00  0.00    -0.021 OA 
HETATM   27  C   UNL     1      -8.314   7.840  70.568  1.00  0.00    -0.125 C  
HETATM   28  H   UNL     1      -5.282   9.091  71.298  1.00  0.00     0.000 HD 
HETATM   29  C   UNL     1      -8.447   7.360  69.150  1.00  0.00    -0.133 C  
HETATM   30  C   UNL     1      -9.570   6.820  68.657  1.00  0.00    -0.131 C  
ENDBRANCH  16  21
TORSDOF 1
ENDMDL
MODEL      163
REMARK 921   NORMALIZED FREE ENERGY PREDICTED BY IDOCK:   81.51 KCAL/MOL
REMARK 922        TOTAL FREE ENERGY PREDICTED BY IDOCK:   85.81 KCAL/MOL
REMARK 923 INTER-LIGAND FREE ENERGY PREDICTED BY IDOCK:   86.28 KCAL/MOL
REMARK 924 INTRA-LIGAND FREE ENERGY PREDICTED BY IDOCK:   -0.47 KCAL/MOL
REMARK 927      BINDING AFFINITY PREDICTED BY RF-SCORE:    0.00 PKD
ROOT
HETATM    1  C   UNL     1      -8.482  12.986  73.685  1.00  0.00    15.829 C  
HETATM    2  C   UNL     1      -9.365  11.755  73.937  1.00  0.00    22.515 C  
HETATM    3  C   UNL     1      -8.712  10.453  73.410  1.00  0.00    10.813 C  
HETATM    4  C   UNL     1     -10.781  12.000  73.428  1.00  0.00    19.017 C  
HETATM    5  C   UNL     1      -8.539  10.353  71.905  1.00  0.00     6.081 C  
HETATM    6  C   UNL     1      -9.515   9.223  73.850  1.00  0.00     4.683 C  
HETATM    7  C   UNL     1      -7.346  10.286  71.288  1.00  0.00     1.618 C  
HETATM    8  C   UNL     1      -7.092   9.780  69.872  1.00  0.00    -0.108 C  
HETATM    9  C   UNL     1      -7.379  10.696  68.600  1.00  0.00    -0.094 C  
HETATM   10  C   UNL     1      -7.670   8.362  69.747  1.00  0.00    -0.093 C  
HETATM   11  C   UNL     1      -8.853  11.084  68.476  1.00  0.00    -0.159 C  
HETATM   12  C   UNL     1      -8.973  12.493  69.043  1.00  0.00     0.485 C  
HETATM   13  C   UNL     1      -7.552  12.947  69.464  1.00  0.00     0.715 C  
HETATM   14  C   UNL     1      -7.329  14.450  69.338  1.00  0.00    -0.060 C  
HETATM   15  C   UNL     1      -5.916  14.760  68.941  1.00  0.00    -0.085 C  
HETATM   16  C   UNL     1      -8.284  15.384  69.534  1.00  0.00    -0.207 C  
HETATM   17  C   UNL     1      -5.152  11.781  69.063  1.00  0.00    -0.047 C  
HETATM   18  C   UNL     1      -5.678  14.209  67.527  1.00  0.00     0.135 C  
HETATM   19  C   UNL     1      -6.598  12.060  68.583  1.00  0.00    -0.075 C  
HETATM   20  C   UNL     1      -6.438  12.864  67.250  1.00  0.00    -0.035 C  
ENDROOT
BRANCH  16  21
HETATM   21  C   UNL     1      -8.047  16.814  69.414  1.00  0.00     0.159 C  
HETATM   22  C   UNL     1      -8.890  17.828  69.646  1.00  0.00     0.976 C  
HETATM   23  C   UNL     1      -8.378  19.254  69.481  1.00  0.00     0.236 C  
HETATM   24  C   UNL     1      -9.231  20.044  68.488  1.00  0.00    -0.087 C  
HETATM   25  C   UNL     1     -10.712  19.975  68.868  1.00  0.00     0.332 C  
HETATM   26  O   UNL     1      -9.038  19.552  67.161  1.00  0.00    -0.293 OA 
HETATM   27  C   UNL     1     -11.195  18.529  69.064  1.00  0.00     1.930 C  
HETATM   28  H   UNL     1      -9.568  20.043  66.544  1.00  0.00     0.000 HD 
HETATM   29  C   UNL     1     -10.298  17.745  69.981  1.00  0.00     0.847 C  
HETATM   30  C   UNL     1     -10.745  17.073  71.051  1.00  0.00     1.250 C  
ENDBRANCH  16  21
TORSDOF 1
ENDMDL
MODEL      164
REMARK 921   NORMALIZED FREE ENERGY PREDICTED BY IDOCK:   98.90 KCAL/MOL
REMARK 922        TOTAL FREE ENERGY PREDICTED BY IDOCK:  104.22 KCAL/MOL
REMARK 923 INTER-LIGAND FREE ENERGY PREDICTED BY IDOCK:  104.71 KCAL/MOL
REMARK 924 INTRA-LIGAND FREE ENERGY PREDICTED BY IDOCK:   -0.49 KCAL/MOL
REMARK 927      BINDING AFFINITY PREDICTED BY RF-SCORE:    0.00 PKD
ROOT
HETATM    1  C   UNL     1      -7.875  16.532  68.217  1.00  0.00    -0.175 C  
HETATM    2  C   UNL     1      -6.972  16.738  66.992  1.00  0.00    -0.242 C  
HETATM    3  C   UNL     1      -7.781  16.769  65.672  1.00  0.00     0.987 C  
HETATM    4  C   UNL     1      -5.822  15.738  67.002  1.00  0.00     0.353 C  
HETATM    5  C   UNL     1      -8.471  15.475  65.279  1.00  0.00     2.880 C  
HETATM    6  C   UNL     1      -6.888  17.174  64.493  1.00  0.00     6.006 C  
HETATM    7  C   UNL     1      -9.805  15.330  65.191  1.00  0.00    -0.164 C  
HETATM    8  C   UNL     1     -10.543  14.235  64.428  1.00  0.00    -0.047 C  
HETATM    9  C   UNL     1     -10.710  12.770  65.033  1.00  0.00    -0.321 C  
HETATM   10  C   UNL     1     -10.060  14.242  62.970  1.00  0.00     7.740 C  
HETATM   11  C   UNL     1      -9.369  12.071  65.257  1.00  0.00     0.050 C  
HETATM   12  C   UNL     1      -9.044  12.234  66.737  1.00  0.00    -0.211 C  
HETATM   13  C   UNL     1     -10.223  12.998  67.390  1.00  0.00    -0.231 C  
HETATM   14  C   UNL     1     -10.461  12.623  68.849  1.00  0.00    -0.109 C  
HETATM   15  C   UNL     1     -11.921  12.669  69.193  1.00  0.00    -0.293 C  
HETATM   16  C   UNL     1      -9.488  12.269  69.716  1.00  0.00     2.151 C  
HETATM   17  C   UNL     1     -12.624  13.706  66.381  1.00  0.00    -0.289 C  
HETATM   18  C   UNL     1     -12.644  11.581  68.385  1.00  0.00     1.211 C  
HETATM   19  C   UNL     1     -11.435  12.715  66.428  1.00  0.00    -0.409 C  
HETATM   20  C   UNL     1     -12.043  11.371  66.950  1.00  0.00     0.903 C  
ENDROOT
BRANCH  16  21
HETATM   21  C   UNL     1      -9.738  11.919  71.106  1.00  0.00     9.186 C  
HETATM   22  C   UNL     1      -8.874  11.861  72.126  1.00  0.00    19.874 C  
HETATM   23  C   UNL     1      -9.402  11.501  73.510  1.00  0.00    22.450 C  
HETATM   24  C   UNL     1      -8.675  10.286  74.088  1.00  0.00     9.544 C  
HETATM   25  C   UNL     1      -7.159  10.492  74.055  1.00  0.00     4.495 C  
HETATM   26  O   UNL     1      -9.028   9.103  73.368  1.00  0.00     0.426 OA 
HETATM   27  C   UNL     1      -6.656  10.889  72.659  1.00  0.00     4.139 C  
HETATM   28  H   UNL     1      -8.577   8.348  73.728  1.00  0.00     0.000 HD 
HETATM   29  C   UNL     1      -7.435  12.035  72.073  1.00  0.00    10.844 C  
HETATM   30  C   UNL     1      -6.861  13.148  71.596  1.00  0.00     3.962 C  
ENDBRANCH  16  21
TORSDOF 1
ENDMDL
