MODEL        1
REMARK 921   NORMALIZED FREE ENERGY PREDICTED BY IDOCK:   -7.16 KCAL/MOL
REMARK 922        TOTAL FREE ENERGY PREDICTED BY IDOCK:   -8.86 KCAL/MOL
REMARK 923 INTER-LIGAND FREE ENERGY PREDICTED BY IDOCK:   -8.41 KCAL/MOL
REMARK 924 INTRA-LIGAND FREE ENERGY PREDICTED BY IDOCK:   -0.45 KCAL/MOL
REMARK 927      BINDING AFFINITY PREDICTED BY RF-SCORE:    0.00 PKD
ROOT
HETATM    1  C   UNK A   0      -7.682  15.559  67.266  1.00  0.00    -0.212 C  
HETATM    2  C   UNK A   0      -6.525  16.542  66.958  1.00  0.00    -0.221 C  
HETATM    3  C   UNK A   0      -7.139  17.796  66.433  1.00  0.00    -0.299 A  
HETATM    4  C   UNK A   0      -6.866  18.640  65.389  1.00  0.00    -0.143 A  
HETATM    5  N   UNK A   0      -7.762  19.684  65.459  1.00  0.00    -0.391 NA 
HETATM    6  C   UNK A   0      -8.637  19.498  66.511  1.00  0.00    -0.348 A  
HETATM    7  H   UNK A   0      -7.776  20.482  64.823  1.00  0.00     0.000 HD 
HETATM    8  C   UNK A   0      -9.676  20.270  67.033  1.00  0.00    -0.598 A  
HETATM    9  C   UNK A   0     -10.422  19.691  68.077  1.00  0.00    -0.537 A  
HETATM   10  C   UNK A   0     -10.218  18.360  68.493  1.00  0.00    -0.394 A  
HETATM   11  C   UNK A   0      -9.198  17.591  67.917  1.00  0.00    -0.265 A  
HETATM   12  C   UNK A   0      -8.342  18.249  67.018  1.00  0.00    -0.256 A  
HETATM   13  C   UNK A   0      -8.987  16.128  67.904  1.00  0.00    -0.183 C  
HETATM   14  C   UNK A   0     -10.002  15.255  68.030  1.00  0.00    -0.224 C  
HETATM   15  C   UNK A   0      -9.830  13.886  67.358  1.00  0.00    -0.237 C  
HETATM   16  C   UNK A   0      -6.971  14.362  69.302  1.00  0.00    -0.129 C  
HETATM   17  C   UNK A   0      -8.401  13.292  67.607  1.00  0.00    -0.181 C  
HETATM   18  N   UNK A   0      -7.307  14.263  67.880  1.00  0.00    -0.137 NA 
ENDROOT
BRANCH  15  19
HETATM   19  C   UNK A   0     -10.112  14.058  65.817  1.00  0.00    -0.327 C  
ATOM     20  N   ALA A   1      -9.960  12.896  65.070  1.00  0.00    -0.493 N  
ATOM     21  H   ALA A   1      -9.405  12.144  65.477  1.00  0.00     0.000 HD 
HETATM   22  O   UNK A   0     -10.419  15.118  65.295  1.00  0.00    -0.353 OA 
BRANCH  20  23
ATOM     23  CA  ALA A   1     -10.538  12.666  63.736  1.00  0.00    -0.397 C  
ATOM     24  CB  ALA A   1     -10.008  11.381  63.101  1.00  0.00    -0.402 C  
BRANCH  23  25
ATOM     25  C   ALA A   1     -12.073  12.714  63.677  1.00  0.00    -0.547 C  
ATOM     26  O   ALA A   1     -12.506  14.013  63.282  1.00  0.00    -1.139 OA 
ATOM     27  H   ALA A   1     -13.454  14.044  63.246  1.00  0.00     0.000 HD 
ENDBRANCH  23  25
ENDBRANCH  20  23
ENDBRANCH  15  19
TORSDOF 3
ENDMDL
MODEL        2
REMARK 921   NORMALIZED FREE ENERGY PREDICTED BY IDOCK:   -7.10 KCAL/MOL
REMARK 922        TOTAL FREE ENERGY PREDICTED BY IDOCK:   -8.79 KCAL/MOL
REMARK 923 INTER-LIGAND FREE ENERGY PREDICTED BY IDOCK:   -8.38 KCAL/MOL
REMARK 924 INTRA-LIGAND FREE ENERGY PREDICTED BY IDOCK:   -0.42 KCAL/MOL
REMARK 927      BINDING AFFINITY PREDICTED BY RF-SCORE:    0.00 PKD
ROOT
HETATM    1  C   UNK A   0     -10.404  11.366  66.133  1.00  0.00    -0.248 C  
HETATM    2  C   UNK A   0     -10.922  11.567  64.687  1.00  0.00    -0.353 C  
HETATM    3  C   UNK A   0     -11.400  12.975  64.580  1.00  0.00    -0.377 A  
HETATM    4  C   UNK A   0     -12.507  13.581  64.045  1.00  0.00    -0.229 A  
HETATM    5  N   UNK A   0     -12.347  14.940  64.198  1.00  0.00    -0.925 NA 
HETATM    6  C   UNK A   0     -11.169  15.214  64.865  1.00  0.00    -0.417 A  
HETATM    7  H   UNK A   0     -13.005  15.645  63.865  1.00  0.00     0.000 HD 
HETATM    8  C   UNK A   0     -10.529  16.404  65.218  1.00  0.00    -0.285 A  
HETATM    9  C   UNK A   0      -9.363  16.280  65.996  1.00  0.00    -0.361 A  
HETATM   10  C   UNK A   0      -8.928  15.037  66.499  1.00  0.00    -0.310 A  
HETATM   11  C   UNK A   0      -9.617  13.863  66.167  1.00  0.00    -0.249 A  
HETATM   12  C   UNK A   0     -10.661  13.986  65.234  1.00  0.00    -0.367 A  
HETATM   13  C   UNK A   0      -9.602  12.527  66.799  1.00  0.00    -0.231 C  
HETATM   14  C   UNK A   0      -9.290  12.350  68.095  1.00  0.00    -0.209 C  
HETATM   15  C   UNK A   0      -9.923  11.145  68.805  1.00  0.00    -0.207 C  
HETATM   16  C   UNK A   0      -8.450   9.879  65.906  1.00  0.00    -0.130 C  
HETATM   17  C   UNK A   0      -9.866   9.853  67.919  1.00  0.00    -0.143 C  
HETATM   18  N   UNK A   0      -9.800  10.050  66.446  1.00  0.00    -0.211 NA 
ENDROOT
BRANCH  15  19
HETATM   19  C   UNK A   0     -11.410  11.518  69.169  1.00  0.00    -0.286 C  
ATOM     20  N   ALA A   1     -11.539  12.410  70.227  1.00  0.00    -0.530 N  
ATOM     21  H   ALA A   1     -10.746  12.505  70.861  1.00  0.00     0.000 HD 
HETATM   22  O   UNK A   0     -12.387  11.060  68.598  1.00  0.00    -0.539 OA 
BRANCH  20  23
ATOM     23  CA  ALA A   1     -12.731  13.228  70.505  1.00  0.00    -0.099 C  
ATOM     24  CB  ALA A   1     -13.381  12.851  71.835  1.00  0.00    -0.530 C  
BRANCH  23  25
ATOM     25  C   ALA A   1     -12.510  14.746  70.413  1.00  0.00    -0.349 C  
ATOM     26  O   ALA A   1     -13.762  15.426  70.473  1.00  0.00    -0.787 OA 
ATOM     27  H   ALA A   1     -13.626  16.364  70.416  1.00  0.00     0.000 HD 
ENDBRANCH  23  25
ENDBRANCH  20  23
ENDBRANCH  15  19
TORSDOF 3
ENDMDL
MODEL        3
REMARK 921   NORMALIZED FREE ENERGY PREDICTED BY IDOCK:   -6.99 KCAL/MOL
REMARK 922        TOTAL FREE ENERGY PREDICTED BY IDOCK:   -8.67 KCAL/MOL
REMARK 923 INTER-LIGAND FREE ENERGY PREDICTED BY IDOCK:   -8.11 KCAL/MOL
REMARK 924 INTRA-LIGAND FREE ENERGY PREDICTED BY IDOCK:   -0.56 KCAL/MOL
REMARK 927      BINDING AFFINITY PREDICTED BY RF-SCORE:    0.00 PKD
ROOT
HETATM    1  C   UNK A   0     -11.640  14.296  67.051  1.00  0.00    -0.386 C  
HETATM    2  C   UNK A   0     -12.778  13.755  66.149  1.00  0.00    -0.335 C  
HETATM    3  C   UNK A   0     -12.139  13.173  64.934  1.00  0.00    -0.448 A  
HETATM    4  C   UNK A   0     -12.392  13.233  63.588  1.00  0.00    -0.382 A  
HETATM    5  N   UNK A   0     -11.479  12.416  62.960  1.00  0.00    -0.674 NA 
HETATM    6  C   UNK A   0     -10.613  11.864  63.884  1.00  0.00    -0.394 A  
HETATM    7  H   UNK A   0     -11.447  12.242  61.956  1.00  0.00     0.000 HD 
HETATM    8  C   UNK A   0      -9.562  10.950  63.777  1.00  0.00    -0.331 A  
HETATM    9  C   UNK A   0      -8.832  10.696  64.953  1.00  0.00    -0.204 A  
HETATM   10  C   UNK A   0      -9.061  11.412  66.145  1.00  0.00    -0.217 A  
HETATM   11  C   UNK A   0     -10.091  12.359  66.210  1.00  0.00    -0.257 A  
HETATM   12  C   UNK A   0     -10.931  12.457  65.088  1.00  0.00    -0.339 A  
HETATM   13  C   UNK A   0     -10.328  13.459  67.169  1.00  0.00    -0.246 C  
HETATM   14  C   UNK A   0      -9.329  14.037  67.859  1.00  0.00    -0.206 C  
HETATM   15  C   UNK A   0      -9.521  15.505  68.265  1.00  0.00    -0.200 C  
HETATM   16  C   UNK A   0     -12.382  13.830  69.356  1.00  0.00    -0.173 C  
HETATM   17  C   UNK A   0     -10.962  15.769  68.823  1.00  0.00    -0.291 C  
HETATM   18  N   UNK A   0     -12.040  14.852  68.365  1.00  0.00    -0.573 NA 
ENDROOT
BRANCH  15  19
HETATM   19  C   UNK A   0      -9.229  16.403  67.003  1.00  0.00    -0.221 C  
ATOM     20  N   ALA A   1      -9.656  17.720  67.121  1.00  0.00    -0.269 N  
ATOM     21  H   ALA A   1     -10.365  17.923  67.826  1.00  0.00     0.000 HD 
HETATM   22  O   UNK A   0      -8.692  15.995  65.985  1.00  0.00    -0.331 OA 
BRANCH  20  23
ATOM     23  CA  ALA A   1      -9.167  18.846  66.309  1.00  0.00    -0.268 C  
ATOM     24  CB  ALA A   1     -10.003  20.107  66.522  1.00  0.00    -0.586 C  
BRANCH  23  25
ATOM     25  C   ALA A   1      -7.667  19.150  66.461  1.00  0.00    -0.264 C  
ATOM     26  O   ALA A   1      -6.938  18.552  65.392  1.00  0.00    -0.514 OA 
ATOM     27  H   ALA A   1      -6.012  18.739  65.486  1.00  0.00     0.000 HD 
ENDBRANCH  23  25
ENDBRANCH  20  23
ENDBRANCH  15  19
TORSDOF 3
ENDMDL
MODEL        4
REMARK 921   NORMALIZED FREE ENERGY PREDICTED BY IDOCK:   -6.86 KCAL/MOL
REMARK 922        TOTAL FREE ENERGY PREDICTED BY IDOCK:   -8.51 KCAL/MOL
REMARK 923 INTER-LIGAND FREE ENERGY PREDICTED BY IDOCK:   -8.22 KCAL/MOL
REMARK 924 INTRA-LIGAND FREE ENERGY PREDICTED BY IDOCK:   -0.29 KCAL/MOL
REMARK 927      BINDING AFFINITY PREDICTED BY RF-SCORE:    0.00 PKD
ROOT
HETATM    1  C   UNK A   0      -9.923  11.303  65.797  1.00  0.00    -0.237 C  
HETATM    2  C   UNK A   0     -10.455  11.435  64.348  1.00  0.00    -0.388 C  
HETATM    3  C   UNK A   0     -11.175  12.738  64.259  1.00  0.00    -0.409 A  
HETATM    4  C   UNK A   0     -12.367  13.147  63.720  1.00  0.00    -0.383 A  
HETATM    5  N   UNK A   0     -12.452  14.510  63.897  1.00  0.00    -1.031 NA 
HETATM    6  C   UNK A   0     -11.348  14.977  64.583  1.00  0.00    -0.352 A  
HETATM    7  H   UNK A   0     -13.222  15.093  63.568  1.00  0.00     0.000 HD 
HETATM    8  C   UNK A   0     -10.933  16.255  64.964  1.00  0.00    -0.311 A  
HETATM    9  C   UNK A   0      -9.770  16.325  65.754  1.00  0.00    -0.299 A  
HETATM   10  C   UNK A   0      -9.126  15.170  66.241  1.00  0.00    -0.313 A  
HETATM   11  C   UNK A   0      -9.593  13.899  65.882  1.00  0.00    -0.171 A  
HETATM   12  C   UNK A   0     -10.633  13.852  64.938  1.00  0.00    -0.436 A  
HETATM   13  C   UNK A   0      -9.346  12.575  66.493  1.00  0.00    -0.233 C  
HETATM   14  C   UNK A   0      -9.019  12.433  67.789  1.00  0.00    -0.182 C  
HETATM   15  C   UNK A   0      -9.434  11.122  68.471  1.00  0.00    -0.193 C  
HETATM   16  C   UNK A   0      -7.734  10.191  65.570  1.00  0.00    -0.145 C  
HETATM   17  C   UNK A   0      -9.141   9.877  67.565  1.00  0.00    -0.134 C  
HETATM   18  N   UNK A   0      -9.097  10.109  66.096  1.00  0.00    -0.151 NA 
ENDROOT
BRANCH  15  19
HETATM   19  C   UNK A   0     -10.968  11.218  68.823  1.00  0.00    -0.220 C  
ATOM     20  N   ALA A   1     -11.240  11.755  70.075  1.00  0.00    -0.488 N  
ATOM     21  H   ALA A   1     -10.486  11.750  70.763  1.00  0.00     0.000 HD 
HETATM   22  O   UNK A   0     -11.862  10.841  68.082  1.00  0.00    -0.533 OA 
BRANCH  20  23
ATOM     23  CA  ALA A   1     -12.530  12.331  70.489  1.00  0.00    -0.189 C  
ATOM     24  CB  ALA A   1     -13.089  11.639  71.731  1.00  0.00    -0.487 C  
BRANCH  23  25
ATOM     25  C   ALA A   1     -12.531  13.858  70.664  1.00  0.00    -0.366 C  
ATOM     26  O   ALA A   1     -12.591  14.495  69.390  1.00  0.00    -0.566 OA 
ATOM     27  H   ALA A   1     -12.592  15.438  69.498  1.00  0.00     0.000 HD 
ENDBRANCH  23  25
ENDBRANCH  20  23
ENDBRANCH  15  19
TORSDOF 3
ENDMDL
MODEL        5
REMARK 921   NORMALIZED FREE ENERGY PREDICTED BY IDOCK:   -6.73 KCAL/MOL
REMARK 922        TOTAL FREE ENERGY PREDICTED BY IDOCK:   -8.35 KCAL/MOL
REMARK 923 INTER-LIGAND FREE ENERGY PREDICTED BY IDOCK:   -7.58 KCAL/MOL
REMARK 924 INTRA-LIGAND FREE ENERGY PREDICTED BY IDOCK:   -0.77 KCAL/MOL
REMARK 927      BINDING AFFINITY PREDICTED BY RF-SCORE:    0.00 PKD
ROOT
HETATM    1  C   UNK A   0     -10.879  14.714  67.974  1.00  0.00    -0.257 C  
HETATM    2  C   UNK A   0     -11.625  13.938  69.087  1.00  0.00    -0.359 C  
HETATM    3  C   UNK A   0     -11.362  12.487  68.868  1.00  0.00    -0.346 A  
HETATM    4  C   UNK A   0     -12.133  11.354  68.880  1.00  0.00    -0.219 A  
HETATM    5  N   UNK A   0     -11.293  10.282  68.669  1.00  0.00    -0.455 NA 
HETATM    6  C   UNK A   0      -9.996  10.718  68.477  1.00  0.00    -0.178 A  
HETATM    7  H   UNK A   0     -11.587   9.306  68.656  1.00  0.00     0.000 HD 
HETATM    8  C   UNK A   0      -8.786  10.049  68.281  1.00  0.00    -0.116 A  
HETATM    9  C   UNK A   0      -7.662  10.855  68.021  1.00  0.00    -0.101 A  
HETATM   10  C   UNK A   0      -7.765  12.249  67.844  1.00  0.00    -0.133 A  
HETATM   11  C   UNK A   0      -9.001  12.889  68.000  1.00  0.00    -0.196 A  
HETATM   12  C   UNK A   0     -10.071  12.095  68.449  1.00  0.00    -0.210 A  
HETATM   13  C   UNK A   0      -9.459  14.222  67.553  1.00  0.00    -0.209 C  
HETATM   14  C   UNK A   0      -8.913  14.851  66.498  1.00  0.00    -0.288 C  
HETATM   15  C   UNK A   0      -9.817  15.818  65.720  1.00  0.00    -0.383 C  
HETATM   16  C   UNK A   0     -10.062  16.767  69.069  1.00  0.00    -0.283 C  
HETATM   17  C   UNK A   0     -10.658  16.727  66.681  1.00  0.00    -0.198 C  
HETATM   18  N   UNK A   0     -10.934  16.194  68.042  1.00  0.00    -0.342 NA 
ENDROOT
BRANCH  15  19
HETATM   19  C   UNK A   0     -10.755  14.964  64.783  1.00  0.00    -0.341 C  
ATOM     20  N   ALA A   1     -10.240  13.723  64.429  1.00  0.00    -0.669 N  
ATOM     21  H   ALA A   1      -9.233  13.588  64.520  1.00  0.00     0.000 HD 
HETATM   22  O   UNK A   0     -11.839  15.347  64.373  1.00  0.00    -0.402 OA 
BRANCH  20  23
ATOM     23  CA  ALA A   1     -11.033  12.588  63.931  1.00  0.00    -0.424 C  
ATOM     24  CB  ALA A   1     -10.151  11.505  63.312  1.00  0.00    -0.439 C  
BRANCH  23  25
ATOM     25  C   ALA A   1     -12.009  11.982  64.953  1.00  0.00    -0.216 C  
ATOM     26  O   ALA A   1     -13.265  12.654  64.886  1.00  0.00    -0.819 OA 
ATOM     27  H   ALA A   1     -13.868  12.280  65.517  1.00  0.00     0.000 HD 
ENDBRANCH  23  25
ENDBRANCH  20  23
ENDBRANCH  15  19
TORSDOF 3
ENDMDL
MODEL        6
REMARK 921   NORMALIZED FREE ENERGY PREDICTED BY IDOCK:   -6.66 KCAL/MOL
REMARK 922        TOTAL FREE ENERGY PREDICTED BY IDOCK:   -8.27 KCAL/MOL
REMARK 923 INTER-LIGAND FREE ENERGY PREDICTED BY IDOCK:   -7.83 KCAL/MOL
REMARK 924 INTRA-LIGAND FREE ENERGY PREDICTED BY IDOCK:   -0.44 KCAL/MOL
REMARK 927      BINDING AFFINITY PREDICTED BY RF-SCORE:    0.00 PKD
ROOT
HETATM    1  C   UNK A   0      -9.630  15.553  68.803  1.00  0.00    -0.208 C  
HETATM    2  C   UNK A   0      -8.199  15.853  69.314  1.00  0.00    -0.227 C  
HETATM    3  C   UNK A   0      -7.660  16.972  68.488  1.00  0.00    -0.231 A  
HETATM    4  C   UNK A   0      -6.466  17.224  67.865  1.00  0.00    -0.153 A  
HETATM    5  N   UNK A   0      -6.550  18.479  67.304  1.00  0.00    -0.197 NA 
HETATM    6  C   UNK A   0      -7.803  19.019  67.522  1.00  0.00    -0.240 A  
HETATM    7  H   UNK A   0      -5.795  18.943  66.800  1.00  0.00     0.000 HD 
HETATM    8  C   UNK A   0      -8.373  20.256  67.212  1.00  0.00    -0.404 A  
HETATM    9  C   UNK A   0      -9.738  20.409  67.516  1.00  0.00    -0.571 A  
HETATM   10  C   UNK A   0     -10.523  19.338  67.991  1.00  0.00    -0.488 A  
HETATM   11  C   UNK A   0      -9.934  18.094  68.248  1.00  0.00    -0.380 A  
HETATM   12  C   UNK A   0      -8.536  18.019  68.123  1.00  0.00    -0.277 A  
HETATM   13  C   UNK A   0     -10.543  16.756  68.409  1.00  0.00    -0.354 C  
HETATM   14  C   UNK A   0     -11.723  16.433  67.853  1.00  0.00     0.289 C  
HETATM   15  C   UNK A   0     -11.943  14.958  67.491  1.00  0.00    -0.158 C  
HETATM   16  C   UNK A   0     -10.918  14.981  70.827  1.00  0.00    -0.137 C  
HETATM   17  C   UNK A   0     -11.456  14.001  68.634  1.00  0.00    -0.302 C  
HETATM   18  N   UNK A   0     -10.396  14.519  69.540  1.00  0.00    -0.425 NA 
ENDROOT
BRANCH  15  19
HETATM   19  C   UNK A   0     -11.178  14.666  66.144  1.00  0.00    -0.341 C  
ATOM     20  N   ALA A   1     -11.044  13.317  65.837  1.00  0.00    -0.284 N  
ATOM     21  H   ALA A   1     -11.151  12.649  66.601  1.00  0.00     0.000 HD 
HETATM   22  O   UNK A   0     -10.714  15.534  65.422  1.00  0.00    -0.354 OA 
BRANCH  20  23
ATOM     23  CA  ALA A   1     -10.761  12.777  64.498  1.00  0.00    -0.358 C  
ATOM     24  CB  ALA A   1     -10.127  11.388  64.568  1.00  0.00    -0.337 C  
BRANCH  23  25
ATOM     25  C   ALA A   1     -11.955  12.787  63.529  1.00  0.00    -0.555 C  
ATOM     26  O   ALA A   1     -12.390  14.126  63.306  1.00  0.00    -1.140 OA 
ATOM     27  H   ALA A   1     -13.128  14.133  62.708  1.00  0.00     0.000 HD 
ENDBRANCH  23  25
ENDBRANCH  20  23
ENDBRANCH  15  19
TORSDOF 3
ENDMDL
MODEL        7
REMARK 921   NORMALIZED FREE ENERGY PREDICTED BY IDOCK:   -6.58 KCAL/MOL
REMARK 922        TOTAL FREE ENERGY PREDICTED BY IDOCK:   -8.18 KCAL/MOL
REMARK 923 INTER-LIGAND FREE ENERGY PREDICTED BY IDOCK:   -8.27 KCAL/MOL
REMARK 924 INTRA-LIGAND FREE ENERGY PREDICTED BY IDOCK:    0.09 KCAL/MOL
REMARK 927      BINDING AFFINITY PREDICTED BY RF-SCORE:    0.00 PKD
ROOT
HETATM    1  C   UNK A   0     -10.667  16.297  66.549  1.00  0.00    -0.187 C  
HETATM    2  C   UNK A   0     -10.765  17.481  65.555  1.00  0.00    -0.065 C  
HETATM    3  C   UNK A   0     -10.058  18.638  66.176  1.00  0.00    -0.399 A  
HETATM    4  C   UNK A   0     -10.333  19.974  66.317  1.00  0.00    -0.455 A  
HETATM    5  N   UNK A   0      -9.246  20.554  66.933  1.00  0.00    -0.592 NA 
HETATM    6  C   UNK A   0      -8.294  19.599  67.229  1.00  0.00    -0.302 A  
HETATM    7  H   UNK A   0      -9.157  21.549  67.140  1.00  0.00     0.000 HD 
HETATM    8  C   UNK A   0      -7.018  19.669  67.794  1.00  0.00    -0.284 A  
HETATM    9  C   UNK A   0      -6.372  18.442  68.032  1.00  0.00    -0.193 A  
HETATM   10  C   UNK A   0      -7.017  17.205  67.831  1.00  0.00    -0.173 A  
HETATM   11  C   UNK A   0      -8.316  17.165  67.308  1.00  0.00    -0.208 A  
HETATM   12  C   UNK A   0      -8.868  18.390  66.896  1.00  0.00    -0.281 A  
HETATM   13  C   UNK A   0      -9.326  16.085  67.318  1.00  0.00    -0.218 C  
HETATM   14  C   UNK A   0      -9.340  15.125  68.259  1.00  0.00    -0.193 C  
HETATM   15  C   UNK A   0     -10.701  14.503  68.599  1.00  0.00    -0.257 C  
HETATM   16  C   UNK A   0     -10.399  14.298  65.129  1.00  0.00    -0.415 C  
HETATM   17  C   UNK A   0     -11.536  14.190  67.310  1.00  0.00    -0.350 C  
HETATM   18  N   UNK A   0     -11.236  15.004  66.101  1.00  0.00    -0.334 NA 
ENDROOT
BRANCH  15  19
HETATM   19  C   UNK A   0     -11.472  15.502  69.545  1.00  0.00    -0.333 C  
ATOM     20  N   ALA A   1     -12.598  14.964  70.156  1.00  0.00    -0.519 N  
ATOM     21  H   ALA A   1     -13.008  14.130  69.735  1.00  0.00     0.000 HD 
HETATM   22  O   UNK A   0     -11.139  16.663  69.726  1.00  0.00    -0.295 OA 
BRANCH  20  23
ATOM     23  CA  ALA A   1     -13.247  15.505  71.361  1.00  0.00    -0.510 C  
ATOM     24  CB  ALA A   1     -14.383  14.606  71.846  1.00  0.00    -0.656 C  
BRANCH  23  25
ATOM     25  C   ALA A   1     -12.289  15.848  72.514  1.00  0.00    -0.483 C  
ATOM     26  O   ALA A   1     -13.015  16.426  73.595  1.00  0.00    -0.568 OA 
ATOM     27  H   ALA A   1     -12.424  16.639  74.307  1.00  0.00     0.000 HD 
ENDBRANCH  23  25
ENDBRANCH  20  23
ENDBRANCH  15  19
TORSDOF 3
ENDMDL
MODEL        8
REMARK 921   NORMALIZED FREE ENERGY PREDICTED BY IDOCK:   -6.43 KCAL/MOL
REMARK 922        TOTAL FREE ENERGY PREDICTED BY IDOCK:   -8.01 KCAL/MOL
REMARK 923 INTER-LIGAND FREE ENERGY PREDICTED BY IDOCK:   -7.24 KCAL/MOL
REMARK 924 INTRA-LIGAND FREE ENERGY PREDICTED BY IDOCK:   -0.77 KCAL/MOL
REMARK 927      BINDING AFFINITY PREDICTED BY RF-SCORE:    0.00 PKD
ROOT
HETATM    1  C   UNK A   0     -10.806  12.358  64.906  1.00  0.00    -0.297 C  
HETATM    2  C   UNK A   0      -9.824  11.180  64.685  1.00  0.00    -0.330 C  
HETATM    3  C   UNK A   0      -9.174  10.895  65.997  1.00  0.00    -0.210 A  
HETATM    4  C   UNK A   0      -7.890  10.643  66.403  1.00  0.00    -0.144 A  
HETATM    5  N   UNK A   0      -7.929  10.384  67.755  1.00  0.00    -0.102 NA 
HETATM    6  C   UNK A   0      -9.219  10.510  68.232  1.00  0.00    -0.152 A  
HETATM    7  H   UNK A   0      -7.120  10.135  68.323  1.00  0.00     0.000 HD 
HETATM    8  C   UNK A   0      -9.793  10.309  69.489  1.00  0.00    -0.244 A  
HETATM    9  C   UNK A   0     -11.156  10.640  69.614  1.00  0.00    -0.342 A  
HETATM   10  C   UNK A   0     -11.875  11.256  68.570  1.00  0.00    -0.355 A  
HETATM   11  C   UNK A   0     -11.259  11.490  67.334  1.00  0.00    -0.367 A  
HETATM   12  C   UNK A   0      -9.961  10.977  67.168  1.00  0.00    -0.218 A  
HETATM   13  C   UNK A   0     -11.638  12.392  66.225  1.00  0.00    -0.449 C  
HETATM   14  C   UNK A   0     -12.375  13.499  66.421  1.00  0.00    -0.413 C  
HETATM   15  C   UNK A   0     -12.156  14.663  65.444  1.00  0.00    -0.250 C  
HETATM   16  C   UNK A   0     -12.740  11.850  63.463  1.00  0.00    -0.405 C  
HETATM   17  C   UNK A   0     -12.072  14.167  63.960  1.00  0.00    -0.348 C  
HETATM   18  N   UNK A   0     -11.631  12.763  63.742  1.00  0.00    -0.445 NA 
ENDROOT
BRANCH  15  19
HETATM   19  C   UNK A   0     -10.835  15.413  65.866  1.00  0.00    -0.325 C  
ATOM     20  N   ALA A   1     -10.739  15.693  67.224  1.00  0.00    -0.304 N  
ATOM     21  H   ALA A   1     -11.603  15.688  67.767  1.00  0.00     0.000 HD 
HETATM   22  O   UNK A   0      -9.963  15.750  65.081  1.00  0.00    -0.393 OA 
BRANCH  20  23
ATOM     23  CA  ALA A   1      -9.490  15.995  67.940  1.00  0.00    -0.210 C  
ATOM     24  CB  ALA A   1      -9.257  17.499  68.068  1.00  0.00    -0.275 C  
BRANCH  23  25
ATOM     25  C   ALA A   1      -9.340  15.298  69.303  1.00  0.00    -0.239 C  
ATOM     26  O   ALA A   1     -10.104  14.096  69.323  1.00  0.00    -0.426 OA 
ATOM     27  H   ALA A   1     -10.012  13.666  70.164  1.00  0.00     0.000 HD 
ENDBRANCH  23  25
ENDBRANCH  20  23
ENDBRANCH  15  19
TORSDOF 3
ENDMDL
MODEL        9
REMARK 921   NORMALIZED FREE ENERGY PREDICTED BY IDOCK:   -6.40 KCAL/MOL
REMARK 922        TOTAL FREE ENERGY PREDICTED BY IDOCK:   -7.96 KCAL/MOL
REMARK 923 INTER-LIGAND FREE ENERGY PREDICTED BY IDOCK:   -7.07 KCAL/MOL
REMARK 924 INTRA-LIGAND FREE ENERGY PREDICTED BY IDOCK:   -0.90 KCAL/MOL
REMARK 927      BINDING AFFINITY PREDICTED BY RF-SCORE:    0.00 PKD
ROOT
HETATM    1  C   UNK A   0      -9.892  16.845  66.404  1.00  0.00    -0.305 C  
HETATM    2  C   UNK A   0     -10.894  16.042  65.539  1.00  0.00    -0.301 C  
HETATM    3  C   UNK A   0     -11.227  14.797  66.289  1.00  0.00    -0.343 A  
HETATM    4  C   UNK A   0     -11.344  13.472  65.959  1.00  0.00    -0.312 A  
HETATM    5  N   UNK A   0     -11.750  12.800  67.090  1.00  0.00    -0.369 NA 
HETATM    6  C   UNK A   0     -11.853  13.671  68.157  1.00  0.00    -0.372 A  
HETATM    7  H   UNK A   0     -11.947  11.800  67.133  1.00  0.00     0.000 HD 
HETATM    8  C   UNK A   0     -12.265  13.509  69.481  1.00  0.00    -0.289 A  
HETATM    9  C   UNK A   0     -12.140  14.635  70.317  1.00  0.00    -0.380 A  
HETATM   10  C   UNK A   0     -11.518  15.823  69.882  1.00  0.00    -0.347 A  
HETATM   11  C   UNK A   0     -11.071  15.941  68.560  1.00  0.00    -0.340 A  
HETATM   12  C   UNK A   0     -11.381  14.880  67.692  1.00  0.00    -0.348 A  
HETATM   13  C   UNK A   0     -10.115  16.888  67.948  1.00  0.00    -0.288 C  
HETATM   14  C   UNK A   0      -9.146  17.490  68.659  1.00  0.00    -0.263 C  
HETATM   15  C   UNK A   0      -7.865  17.874  67.907  1.00  0.00    -0.230 C  
HETATM   16  C   UNK A   0     -10.501  19.209  66.049  1.00  0.00    -0.467 C  
HETATM   17  C   UNK A   0      -8.181  18.529  66.518  1.00  0.00    -0.281 C  
HETATM   18  N   UNK A   0      -9.480  18.172  65.886  1.00  0.00    -0.498 NA 
ENDROOT
BRANCH  15  19
HETATM   19  C   UNK A   0      -6.991  16.573  67.733  1.00  0.00    -0.142 C  
ATOM     20  N   ALA A   1      -6.965  15.743  68.848  1.00  0.00    -0.126 N  
ATOM     21  H   ALA A   1      -7.224  16.153  69.745  1.00  0.00     0.000 HD 
HETATM   22  O   UNK A   0      -6.363  16.304  66.722  1.00  0.00    -0.298 OA 
BRANCH  20  23
ATOM     23  CA  ALA A   1      -6.594  14.319  68.835  1.00  0.00    -0.096 C  
ATOM     24  CB  ALA A   1      -6.057  13.859  70.189  1.00  0.00    -0.147 C  
BRANCH  23  25
ATOM     25  C   ALA A   1      -7.690  13.368  68.327  1.00  0.00    -0.141 C  
ATOM     26  O   ALA A   1      -7.928  13.595  66.940  1.00  0.00    -0.384 OA 
ATOM     27  H   ALA A   1      -8.606  13.007  66.627  1.00  0.00     0.000 HD 
ENDBRANCH  23  25
ENDBRANCH  20  23
ENDBRANCH  15  19
TORSDOF 3
ENDMDL
MODEL       10
REMARK 921   NORMALIZED FREE ENERGY PREDICTED BY IDOCK:   -6.36 KCAL/MOL
REMARK 922        TOTAL FREE ENERGY PREDICTED BY IDOCK:   -7.92 KCAL/MOL
REMARK 923 INTER-LIGAND FREE ENERGY PREDICTED BY IDOCK:   -7.75 KCAL/MOL
REMARK 924 INTRA-LIGAND FREE ENERGY PREDICTED BY IDOCK:   -0.17 KCAL/MOL
REMARK 927      BINDING AFFINITY PREDICTED BY RF-SCORE:    0.00 PKD
ROOT
HETATM    1  C   UNK A   0     -10.694  13.474  66.142  1.00  0.00    -0.289 C  
HETATM    2  C   UNK A   0     -10.785  14.412  64.912  1.00  0.00    -0.444 C  
HETATM    3  C   UNK A   0     -10.328  15.761  65.350  1.00  0.00    -0.417 A  
HETATM    4  C   UNK A   0     -10.782  17.042  65.166  1.00  0.00    -0.053 A  
HETATM    5  N   UNK A   0      -9.880  17.889  65.770  1.00  0.00    -0.532 NA 
HETATM    6  C   UNK A   0      -8.874  17.166  66.380  1.00  0.00    -0.255 A  
HETATM    7  H   UNK A   0      -9.946  18.907  65.768  1.00  0.00     0.000 HD 
HETATM    8  C   UNK A   0      -7.717  17.538  67.068  1.00  0.00    -0.239 A  
HETATM    9  C   UNK A   0      -6.968  16.493  67.642  1.00  0.00    -0.158 A  
HETATM   10  C   UNK A   0      -7.420  15.158  67.635  1.00  0.00    -0.202 A  
HETATM   11  C   UNK A   0      -8.609  14.821  66.978  1.00  0.00    -0.260 A  
HETATM   12  C   UNK A   0      -9.239  15.843  66.247  1.00  0.00    -0.372 A  
HETATM   13  C   UNK A   0      -9.469  13.623  67.097  1.00  0.00    -0.244 C  
HETATM   14  C   UNK A   0      -9.507  12.876  68.214  1.00  0.00    -0.206 C  
HETATM   15  C   UNK A   0     -10.818  12.135  68.511  1.00  0.00    -0.267 C  
HETATM   16  C   UNK A   0      -9.972  11.300  65.230  1.00  0.00    -0.253 C  
HETATM   17  C   UNK A   0     -11.404  11.452  67.228  1.00  0.00    -0.275 C  
HETATM   18  N   UNK A   0     -11.027  12.048  65.917  1.00  0.00    -0.288 NA 
ENDROOT
BRANCH  15  19
HETATM   19  C   UNK A   0     -11.839  13.171  69.118  1.00  0.00    -0.314 C  
ATOM     20  N   ALA A   1     -11.962  13.118  70.501  1.00  0.00    -0.527 N  
ATOM     21  H   ALA A   1     -11.657  12.264  70.967  1.00  0.00     0.000 HD 
HETATM   22  O   UNK A   0     -12.495  13.953  68.448  1.00  0.00    -0.114 OA 
BRANCH  20  23
ATOM     23  CA  ALA A   1     -12.499  14.197  71.346  1.00  0.00    -0.359 C  
ATOM     24  CB  ALA A   1     -13.307  13.649  72.521  1.00  0.00    -0.638 C  
BRANCH  23  25
ATOM     25  C   ALA A   1     -11.460  15.223  71.825  1.00  0.00    -0.421 C  
ATOM     26  O   ALA A   1     -11.691  16.481  71.197  1.00  0.00    -0.626 OA 
ATOM     27  H   ALA A   1     -11.049  17.115  71.492  1.00  0.00     0.000 HD 
ENDBRANCH  23  25
ENDBRANCH  20  23
ENDBRANCH  15  19
TORSDOF 3
ENDMDL
MODEL       11
REMARK 921   NORMALIZED FREE ENERGY PREDICTED BY IDOCK:   -6.25 KCAL/MOL
REMARK 922        TOTAL FREE ENERGY PREDICTED BY IDOCK:   -7.79 KCAL/MOL
REMARK 923 INTER-LIGAND FREE ENERGY PREDICTED BY IDOCK:   -7.75 KCAL/MOL
REMARK 924 INTRA-LIGAND FREE ENERGY PREDICTED BY IDOCK:   -0.04 KCAL/MOL
REMARK 927      BINDING AFFINITY PREDICTED BY RF-SCORE:    0.00 PKD
ROOT
HETATM    1  C   UNK A   0      -9.028  14.662  67.586  1.00  0.00    -0.187 C  
HETATM    2  C   UNK A   0      -8.310  13.320  67.296  1.00  0.00    -0.182 C  
HETATM    3  C   UNK A   0      -9.319  12.400  66.695  1.00  0.00    -0.227 A  
HETATM    4  C   UNK A   0      -9.657  11.085  66.881  1.00  0.00    -0.182 A  
HETATM    5  N   UNK A   0     -10.641  10.780  65.966  1.00  0.00    -0.198 NA 
HETATM    6  C   UNK A   0     -10.971  11.897  65.224  1.00  0.00    -0.302 A  
HETATM    7  H   UNK A   0     -11.065   9.860  65.854  1.00  0.00     0.000 HD 
HETATM    8  C   UNK A   0     -11.850  12.107  64.159  1.00  0.00    -0.490 A  
HETATM    9  C   UNK A   0     -11.989  13.436  63.716  1.00  0.00    -0.517 A  
HETATM   10  C   UNK A   0     -11.375  14.515  64.384  1.00  0.00    -0.247 A  
HETATM   11  C   UNK A   0     -10.536  14.279  65.480  1.00  0.00    -0.361 A  
HETATM   12  C   UNK A   0     -10.257  12.936  65.784  1.00  0.00    -0.298 A  
HETATM   13  C   UNK A   0     -10.059  15.191  66.541  1.00  0.00    -0.279 C  
HETATM   14  C   UNK A   0     -10.744  16.290  66.904  1.00  0.00    -0.217 C  
HETATM   15  C   UNK A   0     -10.582  16.764  68.355  1.00  0.00    -0.354 C  
HETATM   16  C   UNK A   0      -7.345  16.399  67.103  1.00  0.00    -0.195 C  
HETATM   17  C   UNK A   0      -9.084  16.725  68.815  1.00  0.00    -0.259 C  
HETATM   18  N   UNK A   0      -8.190  15.764  68.116  1.00  0.00    -0.140 NA 
ENDROOT
BRANCH  15  19
HETATM   19  C   UNK A   0     -11.479  15.847  69.272  1.00  0.00    -0.374 C  
ATOM     20  N   ALA A   1     -11.339  16.081  70.634  1.00  0.00    -0.385 N  
ATOM     21  H   ALA A   1     -10.495  16.562  70.944  1.00  0.00     0.000 HD 
HETATM   22  O   UNK A   0     -12.229  14.983  68.846  1.00  0.00    -0.216 OA 
BRANCH  20  23
ATOM     23  CA  ALA A   1     -12.313  15.688  71.666  1.00  0.00    -0.428 C  
ATOM     24  CB  ALA A   1     -12.433  14.169  71.785  1.00  0.00    -0.360 C  
BRANCH  23  25
ATOM     25  C   ALA A   1     -12.090  16.330  73.045  1.00  0.00    -0.530 C  
ATOM     26  O   ALA A   1     -13.068  15.856  73.967  1.00  0.00    -0.819 OA 
ATOM     27  H   ALA A   1     -12.931  16.253  74.819  1.00  0.00     0.000 HD 
ENDBRANCH  23  25
ENDBRANCH  20  23
ENDBRANCH  15  19
TORSDOF 3
ENDMDL
MODEL       12
REMARK 921   NORMALIZED FREE ENERGY PREDICTED BY IDOCK:   -6.22 KCAL/MOL
REMARK 922        TOTAL FREE ENERGY PREDICTED BY IDOCK:   -7.76 KCAL/MOL
REMARK 923 INTER-LIGAND FREE ENERGY PREDICTED BY IDOCK:   -7.22 KCAL/MOL
REMARK 924 INTRA-LIGAND FREE ENERGY PREDICTED BY IDOCK:   -0.54 KCAL/MOL
REMARK 927      BINDING AFFINITY PREDICTED BY RF-SCORE:    0.00 PKD
ROOT
HETATM    1  C   UNK A   0      -9.263  10.323  64.486  1.00  0.00    -0.250 C  
HETATM    2  C   UNK A   0     -10.034  10.853  63.252  1.00  0.00    -0.399 C  
HETATM    3  C   UNK A   0     -11.204  11.625  63.760  1.00  0.00    -0.498 A  
HETATM    4  C   UNK A   0     -12.533  11.694  63.430  1.00  0.00    -0.210 A  
HETATM    5  N   UNK A   0     -13.106  12.659  64.228  1.00  0.00    -0.687 NA 
HETATM    6  C   UNK A   0     -12.170  13.181  65.099  1.00  0.00    -0.450 A  
HETATM    7  H   UNK A   0     -14.083  12.946  64.182  1.00  0.00     0.000 HD 
HETATM    8  C   UNK A   0     -12.223  14.196  66.057  1.00  0.00    -0.464 A  
HETATM    9  C   UNK A   0     -11.065  14.383  66.835  1.00  0.00    -0.325 A  
HETATM   10  C   UNK A   0      -9.955  13.518  66.743  1.00  0.00    -0.269 A  
HETATM   11  C   UNK A   0      -9.949  12.478  65.805  1.00  0.00    -0.272 A  
HETATM   12  C   UNK A   0     -11.030  12.429  64.909  1.00  0.00    -0.341 A  
HETATM   13  C   UNK A   0      -9.115  11.259  65.725  1.00  0.00    -0.216 C  
HETATM   14  C   UNK A   0      -8.551  10.703  66.811  1.00  0.00    -0.129 C  
HETATM   15  C   UNK A   0      -8.312   9.188  66.773  1.00  0.00    -0.123 C  
HETATM   16  C   UNK A   0      -6.883  10.455  63.851  1.00  0.00     0.014 C  
HETATM   17  C   UNK A   0      -7.714   8.728  65.398  1.00  0.00    -0.089 C  
HETATM   18  N   UNK A   0      -8.004   9.587  64.218  1.00  0.00    -0.128 NA 
ENDROOT
BRANCH  15  19
HETATM   19  C   UNK A   0      -9.684   8.468  67.063  1.00  0.00    -0.204 C  
ATOM     20  N   ALA A   1      -9.798   7.199  66.509  1.00  0.00    -0.374 N  
ATOM     21  H   ALA A   1      -9.171   6.964  65.739  1.00  0.00     0.000 HD 
HETATM   22  O   UNK A   0     -10.595   8.971  67.701  1.00  0.00    -0.257 OA 
BRANCH  20  23
ATOM     23  CA  ALA A   1     -10.753   6.168  66.944  1.00  0.00    -0.340 C  
ATOM     24  CB  ALA A   1     -10.585   4.869  66.157  1.00  0.00    -0.322 C  
BRANCH  23  25
ATOM     25  C   ALA A   1     -10.767   5.895  68.457  1.00  0.00    -0.255 C  
ATOM     26  O   ALA A   1     -11.759   6.701  69.089  1.00  0.00    -0.629 OA 
ATOM     27  H   ALA A   1     -11.767   6.533  70.023  1.00  0.00     0.000 HD 
ENDBRANCH  23  25
ENDBRANCH  20  23
ENDBRANCH  15  19
TORSDOF 3
ENDMDL
MODEL       13
REMARK 921   NORMALIZED FREE ENERGY PREDICTED BY IDOCK:   -6.17 KCAL/MOL
REMARK 922        TOTAL FREE ENERGY PREDICTED BY IDOCK:   -7.70 KCAL/MOL
REMARK 923 INTER-LIGAND FREE ENERGY PREDICTED BY IDOCK:   -6.95 KCAL/MOL
REMARK 924 INTRA-LIGAND FREE ENERGY PREDICTED BY IDOCK:   -0.75 KCAL/MOL
REMARK 927      BINDING AFFINITY PREDICTED BY RF-SCORE:    0.00 PKD
ROOT
HETATM    1  C   UNK A   0      -9.742  10.514  65.003  1.00  0.00    -0.292 C  
HETATM    2  C   UNK A   0     -10.649  11.096  63.890  1.00  0.00    -0.431 C  
HETATM    3  C   UNK A   0     -11.441  12.203  64.500  1.00  0.00    -0.397 A  
HETATM    4  C   UNK A   0     -12.756  12.588  64.454  1.00  0.00    -0.358 A  
HETATM    5  N   UNK A   0     -12.869  13.751  65.184  1.00  0.00    -0.748 NA 
HETATM    6  C   UNK A   0     -11.651  14.094  65.735  1.00  0.00    -0.343 A  
HETATM    7  H   UNK A   0     -13.732  14.282  65.300  1.00  0.00     0.000 HD 
HETATM    8  C   UNK A   0     -11.224  15.182  66.500  1.00  0.00    -0.283 A  
HETATM    9  C   UNK A   0      -9.899  15.135  66.970  1.00  0.00    -0.233 A  
HETATM   10  C   UNK A   0      -9.081  14.000  66.790  1.00  0.00    -0.250 A  
HETATM   11  C   UNK A   0      -9.552  12.902  66.059  1.00  0.00    -0.172 A  
HETATM   12  C   UNK A   0     -10.803  13.049  65.435  1.00  0.00    -0.304 A  
HETATM   13  C   UNK A   0      -9.075  11.504  66.008  1.00  0.00    -0.206 C  
HETATM   14  C   UNK A   0      -8.405  10.936  67.026  1.00  0.00    -0.132 C  
HETATM   15  C   UNK A   0      -8.545   9.417  67.191  1.00  0.00    -0.130 C  
HETATM   16  C   UNK A   0      -7.632   9.936  63.863  1.00  0.00    -0.141 C  
HETATM   17  C   UNK A   0      -8.434   8.671  65.817  1.00  0.00    -0.151 C  
HETATM   18  N   UNK A   0      -8.798   9.444  64.599  1.00  0.00    -0.219 NA 
ENDROOT
BRANCH  15  19
HETATM   19  C   UNK A   0      -9.932   9.126  67.883  1.00  0.00    -0.186 C  
ATOM     20  N   ALA A   1     -10.126   9.792  69.087  1.00  0.00    -0.181 N  
ATOM     21  H   ALA A   1      -9.298  10.140  69.570  1.00  0.00     0.000 HD 
HETATM   22  O   UNK A   0     -10.774   8.367  67.429  1.00  0.00    -0.269 OA 
BRANCH  20  23
ATOM     23  CA  ALA A   1     -11.433  10.033  69.720  1.00  0.00    -0.184 C  
ATOM     24  CB  ALA A   1     -11.416   9.687  71.208  1.00  0.00    -0.463 C  
BRANCH  23  25
ATOM     25  C   ALA A   1     -12.015  11.437  69.489  1.00  0.00    -0.341 C  
ATOM     26  O   ALA A   1     -12.236  11.651  68.097  1.00  0.00    -0.537 OA 
ATOM     27  H   ALA A   1     -12.595  12.518  67.954  1.00  0.00     0.000 HD 
ENDBRANCH  23  25
ENDBRANCH  20  23
ENDBRANCH  15  19
TORSDOF 3
ENDMDL
MODEL       14
REMARK 921   NORMALIZED FREE ENERGY PREDICTED BY IDOCK:   -6.13 KCAL/MOL
REMARK 922        TOTAL FREE ENERGY PREDICTED BY IDOCK:   -7.65 KCAL/MOL
REMARK 923 INTER-LIGAND FREE ENERGY PREDICTED BY IDOCK:   -7.07 KCAL/MOL
REMARK 924 INTRA-LIGAND FREE ENERGY PREDICTED BY IDOCK:   -0.58 KCAL/MOL
REMARK 927      BINDING AFFINITY PREDICTED BY RF-SCORE:    0.00 PKD
ROOT
HETATM    1  C   UNK A   0     -11.110  12.348  69.004  1.00  0.00    -0.235 C  
HETATM    2  C   UNK A   0     -11.546  13.809  69.277  1.00  0.00    -0.362 C  
HETATM    3  C   UNK A   0     -11.265  14.592  68.040  1.00  0.00    -0.307 A  
HETATM    4  C   UNK A   0     -10.701  15.814  67.778  1.00  0.00    -0.307 A  
HETATM    5  N   UNK A   0     -10.783  16.022  66.419  1.00  0.00    -0.275 NA 
HETATM    6  C   UNK A   0     -11.353  14.928  65.798  1.00  0.00    -0.314 A  
HETATM    7  H   UNK A   0     -10.467  16.865  65.939  1.00  0.00     0.000 HD 
HETATM    8  C   UNK A   0     -11.700  14.659  64.472  1.00  0.00    -0.410 A  
HETATM    9  C   UNK A   0     -12.184  13.365  64.202  1.00  0.00    -0.457 A  
HETATM   10  C   UNK A   0     -12.203  12.354  65.184  1.00  0.00    -0.449 A  
HETATM   11  C   UNK A   0     -11.803  12.639  66.496  1.00  0.00    -0.463 A  
HETATM   12  C   UNK A   0     -11.510  13.982  66.789  1.00  0.00    -0.379 A  
HETATM   13  C   UNK A   0     -11.404  11.738  67.598  1.00  0.00    -0.370 C  
HETATM   14  C   UNK A   0     -10.891  10.516  67.375  1.00  0.00    -0.349 C  
HETATM   15  C   UNK A   0      -9.925   9.962  68.432  1.00  0.00    -0.177 C  
HETATM   16  C   UNK A   0     -12.779  10.960  70.175  1.00  0.00    -0.161 C  
HETATM   17  C   UNK A   0     -10.451  10.213  69.887  1.00  0.00    -0.275 C  
HETATM   18  N   UNK A   0     -11.375  11.363  70.080  1.00  0.00    -0.499 NA 
ENDROOT
BRANCH  15  19
HETATM   19  C   UNK A   0      -8.519  10.640  68.213  1.00  0.00    -0.127 C  
ATOM     20  N   ALA A   1      -7.950  11.173  69.363  1.00  0.00    -0.373 N  
ATOM     21  H   ALA A   1      -8.571  11.366  70.148  1.00  0.00     0.000 HD 
HETATM   22  O   UNK A   0      -7.964  10.722  67.128  1.00  0.00    -0.118 OA 
BRANCH  20  23
ATOM     23  CA  ALA A   1      -6.521  11.480  69.537  1.00  0.00    -0.124 C  
ATOM     24  CB  ALA A   1      -6.283  12.974  69.753  1.00  0.00    -0.104 C  
BRANCH  23  25
ATOM     25  C   ALA A   1      -5.807  10.649  70.616  1.00  0.00    -0.112 C  
ATOM     26  O   ALA A   1      -6.762   9.916  71.378  1.00  0.00    -0.323 OA 
ATOM     27  H   ALA A   1      -6.321   9.403  72.045  1.00  0.00     0.000 HD 
ENDBRANCH  23  25
ENDBRANCH  20  23
ENDBRANCH  15  19
TORSDOF 3
ENDMDL
MODEL       15
REMARK 921   NORMALIZED FREE ENERGY PREDICTED BY IDOCK:   -6.13 KCAL/MOL
REMARK 922        TOTAL FREE ENERGY PREDICTED BY IDOCK:   -7.65 KCAL/MOL
REMARK 923 INTER-LIGAND FREE ENERGY PREDICTED BY IDOCK:   -7.07 KCAL/MOL
REMARK 924 INTRA-LIGAND FREE ENERGY PREDICTED BY IDOCK:   -0.58 KCAL/MOL
REMARK 927      BINDING AFFINITY PREDICTED BY RF-SCORE:    0.00 PKD
ROOT
HETATM    1  C   UNK A   0     -10.498  12.898  68.431  1.00  0.00    -0.251 C  
HETATM    2  C   UNK A   0      -9.966  14.317  68.753  1.00  0.00    -0.205 C  
HETATM    3  C   UNK A   0      -9.787  15.027  67.454  1.00  0.00    -0.224 A  
HETATM    4  C   UNK A   0      -8.806  15.817  66.913  1.00  0.00    -0.245 A  
HETATM    5  N   UNK A   0      -9.252  16.241  65.681  1.00  0.00    -0.423 NA 
HETATM    6  C   UNK A   0     -10.491  15.697  65.404  1.00  0.00    -0.411 A  
HETATM    7  H   UNK A   0      -8.740  16.868  65.061  1.00  0.00     0.000 HD 
HETATM    8  C   UNK A   0     -11.380  15.846  64.337  1.00  0.00    -0.276 A  
HETATM    9  C   UNK A   0     -12.530  15.035  64.363  1.00  0.00    -0.159 A  
HETATM   10  C   UNK A   0     -12.720  14.037  65.341  1.00  0.00    -0.499 A  
HETATM   11  C   UNK A   0     -11.787  13.878  66.374  1.00  0.00    -0.436 A  
HETATM   12  C   UNK A   0     -10.749  14.823  66.440  1.00  0.00    -0.313 A  
HETATM   13  C   UNK A   0     -11.553  12.743  67.293  1.00  0.00    -0.420 C  
HETATM   14  C   UNK A   0     -11.882  11.480  66.971  1.00  0.00     0.065 C  
HETATM   15  C   UNK A   0     -11.046  10.360  67.606  1.00  0.00    -0.361 C  
HETATM   16  C   UNK A   0     -12.087  12.389  70.247  1.00  0.00    -0.297 C  
HETATM   17  C   UNK A   0     -10.791  10.618  69.131  1.00  0.00    -0.237 C  
HETATM   18  N   UNK A   0     -10.829  12.033  69.589  1.00  0.00    -0.444 NA 
ENDROOT
BRANCH  15  19
HETATM   19  C   UNK A   0      -9.687  10.255  66.814  1.00  0.00    -0.185 C  
ATOM     20  N   ALA A   1      -9.830  10.073  65.444  1.00  0.00    -0.301 N  
ATOM     21  H   ALA A   1     -10.725   9.720  65.108  1.00  0.00     0.000 HD 
HETATM   22  O   UNK A   0      -8.586  10.306  67.340  1.00  0.00    -0.125 OA 
BRANCH  20  23
ATOM     23  CA  ALA A   1      -8.790  10.350  64.440  1.00  0.00    -0.206 C  
ATOM     24  CB  ALA A   1      -8.140   9.066  63.925  1.00  0.00    -0.159 C  
BRANCH  23  25
ATOM     25  C   ALA A   1      -9.239  11.244  63.272  1.00  0.00    -0.225 C  
ATOM     26  O   ALA A   1     -10.646  11.122  63.078  1.00  0.00    -0.733 OA 
ATOM     27  H   ALA A   1     -10.924  11.674  62.357  1.00  0.00     0.000 HD 
ENDBRANCH  23  25
ENDBRANCH  20  23
ENDBRANCH  15  19
TORSDOF 3
ENDMDL
MODEL       16
REMARK 921   NORMALIZED FREE ENERGY PREDICTED BY IDOCK:   -6.11 KCAL/MOL
REMARK 922        TOTAL FREE ENERGY PREDICTED BY IDOCK:   -7.63 KCAL/MOL
REMARK 923 INTER-LIGAND FREE ENERGY PREDICTED BY IDOCK:   -6.81 KCAL/MOL
REMARK 924 INTRA-LIGAND FREE ENERGY PREDICTED BY IDOCK:   -0.82 KCAL/MOL
REMARK 927      BINDING AFFINITY PREDICTED BY RF-SCORE:    0.00 PKD
ROOT
HETATM    1  C   UNK A   0     -10.864   7.032  69.972  1.00  0.00    -0.261 C  
HETATM    2  C   UNK A   0     -10.621   6.758  68.467  1.00  0.00    -0.265 C  
HETATM    3  C   UNK A   0     -10.176   8.040  67.850  1.00  0.00    -0.267 A  
HETATM    4  C   UNK A   0     -10.488   8.719  66.701  1.00  0.00    -0.170 A  
HETATM    5  N   UNK A   0      -9.681   9.834  66.649  1.00  0.00    -0.189 NA 
HETATM    6  C   UNK A   0      -8.883   9.903  67.774  1.00  0.00    -0.129 A  
HETATM    7  H   UNK A   0      -9.674  10.512  65.887  1.00  0.00     0.000 HD 
HETATM    8  C   UNK A   0      -7.879  10.787  68.176  1.00  0.00    -0.112 A  
HETATM    9  C   UNK A   0      -7.347  10.584  69.464  1.00  0.00    -0.148 A  
HETATM   10  C   UNK A   0      -7.879   9.627  70.351  1.00  0.00    -0.181 A  
HETATM   11  C   UNK A   0      -8.920   8.785  69.937  1.00  0.00    -0.152 A  
HETATM   12  C   UNK A   0      -9.303   8.872  68.588  1.00  0.00    -0.140 A  
HETATM   13  C   UNK A   0      -9.867   7.967  70.724  1.00  0.00    -0.188 C  
HETATM   14  C   UNK A   0     -10.197   8.271  71.991  1.00  0.00    -0.339 C  
HETATM   15  C   UNK A   0     -11.590   7.840  72.471  1.00  0.00    -0.422 C  
HETATM   16  C   UNK A   0     -10.116   4.980  71.118  1.00  0.00    -0.223 C  
HETATM   17  C   UNK A   0     -11.931   6.377  72.022  1.00  0.00    -0.326 C  
HETATM   18  N   UNK A   0     -11.239   5.867  70.808  1.00  0.00    -0.262 NA 
ENDROOT
BRANCH  15  19
HETATM   19  C   UNK A   0     -12.642   8.867  71.902  1.00  0.00    -0.377 C  
ATOM     20  N   ALA A   1     -12.182  10.175  71.812  1.00  0.00    -0.330 N  
ATOM     21  H   ALA A   1     -11.372  10.428  72.379  1.00  0.00     0.000 HD 
HETATM   22  O   UNK A   0     -13.781   8.567  71.579  1.00  0.00    -0.356 OA 
BRANCH  20  23
ATOM     23  CA  ALA A   1     -12.771  11.224  70.965  1.00  0.00    -0.359 C  
ATOM     24  CB  ALA A   1     -13.093  12.486  71.764  1.00  0.00    -0.450 C  
BRANCH  23  25
ATOM     25  C   ALA A   1     -11.965  11.565  69.702  1.00  0.00    -0.339 C  
ATOM     26  O   ALA A   1     -12.365  10.721  68.625  1.00  0.00    -0.825 OA 
ATOM     27  H   ALA A   1     -11.867  10.931  67.845  1.00  0.00     0.000 HD 
ENDBRANCH  23  25
ENDBRANCH  20  23
ENDBRANCH  15  19
TORSDOF 3
ENDMDL
MODEL       17
REMARK 921   NORMALIZED FREE ENERGY PREDICTED BY IDOCK:   -6.11 KCAL/MOL
REMARK 922        TOTAL FREE ENERGY PREDICTED BY IDOCK:   -7.63 KCAL/MOL
REMARK 923 INTER-LIGAND FREE ENERGY PREDICTED BY IDOCK:   -7.07 KCAL/MOL
REMARK 924 INTRA-LIGAND FREE ENERGY PREDICTED BY IDOCK:   -0.56 KCAL/MOL
REMARK 927      BINDING AFFINITY PREDICTED BY RF-SCORE:    0.00 PKD
ROOT
HETATM    1  C   UNK A   0     -10.019  11.526  68.357  1.00  0.00    -0.206 C  
HETATM    2  C   UNK A   0     -11.421  12.175  68.467  1.00  0.00    -0.349 C  
HETATM    3  C   UNK A   0     -11.659  12.930  67.204  1.00  0.00    -0.421 A  
HETATM    4  C   UNK A   0     -12.157  14.170  66.900  1.00  0.00    -0.432 A  
HETATM    5  N   UNK A   0     -12.195  14.273  65.527  1.00  0.00    -0.406 NA 
HETATM    6  C   UNK A   0     -11.686  13.129  64.944  1.00  0.00    -0.340 A  
HETATM    7  H   UNK A   0     -12.548  15.081  65.013  1.00  0.00     0.000 HD 
HETATM    8  C   UNK A   0     -11.551  12.716  63.617  1.00  0.00    -0.575 A  
HETATM    9  C   UNK A   0     -10.881  11.496  63.407  1.00  0.00    -0.423 A  
HETATM   10  C   UNK A   0     -10.269  10.788  64.461  1.00  0.00    -0.428 A  
HETATM   11  C   UNK A   0     -10.379  11.252  65.778  1.00  0.00    -0.310 A  
HETATM   12  C   UNK A   0     -11.214  12.362  65.989  1.00  0.00    -0.374 A  
HETATM   13  C   UNK A   0      -9.586  10.926  66.983  1.00  0.00    -0.197 C  
HETATM   14  C   UNK A   0      -8.316  10.494  66.910  1.00  0.00    -0.126 C  
HETATM   15  C   UNK A   0      -7.399  10.823  68.097  1.00  0.00    -0.088 C  
HETATM   16  C   UNK A   0     -10.243   9.336  69.469  1.00  0.00    -0.207 C  
HETATM   17  C   UNK A   0      -8.115  10.573  69.470  1.00  0.00    -0.094 C  
HETATM   18  N   UNK A   0      -9.600  10.651  69.478  1.00  0.00    -0.421 NA 
ENDROOT
BRANCH  15  19
HETATM   19  C   UNK A   0      -6.943  12.325  67.961  1.00  0.00    -0.093 C  
ATOM     20  N   ALA A   1      -7.273  13.129  69.046  1.00  0.00    -0.261 N  
ATOM     21  H   ALA A   1      -8.015  12.801  69.664  1.00  0.00     0.000 HD 
HETATM   22  O   UNK A   0      -6.363  12.776  66.986  1.00  0.00    -0.219 OA 
BRANCH  20  23
ATOM     23  CA  ALA A   1      -6.636  14.415  69.372  1.00  0.00    -0.137 C  
ATOM     24  CB  ALA A   1      -7.645  15.563  69.379  1.00  0.00    -0.225 C  
BRANCH  23  25
ATOM     25  C   ALA A   1      -5.798  14.414  70.661  1.00  0.00    -0.185 C  
ATOM     26  O   ALA A   1      -5.942  13.167  71.336  1.00  0.00    -0.554 OA 
ATOM     27  H   ALA A   1      -5.425  13.166  72.132  1.00  0.00     0.000 HD 
ENDBRANCH  23  25
ENDBRANCH  20  23
ENDBRANCH  15  19
TORSDOF 3
ENDMDL
MODEL       18
REMARK 921   NORMALIZED FREE ENERGY PREDICTED BY IDOCK:   -6.05 KCAL/MOL
REMARK 922        TOTAL FREE ENERGY PREDICTED BY IDOCK:   -7.55 KCAL/MOL
REMARK 923 INTER-LIGAND FREE ENERGY PREDICTED BY IDOCK:   -7.13 KCAL/MOL
REMARK 924 INTRA-LIGAND FREE ENERGY PREDICTED BY IDOCK:   -0.42 KCAL/MOL
REMARK 927      BINDING AFFINITY PREDICTED BY RF-SCORE:    0.00 PKD
ROOT
HETATM    1  C   UNK A   0     -11.118  13.383  67.801  1.00  0.00    -0.268 C  
HETATM    2  C   UNK A   0     -11.889  12.054  67.993  1.00  0.00    -0.338 C  
HETATM    3  C   UNK A   0     -12.124  11.886  69.456  1.00  0.00    -0.288 A  
HETATM    4  C   UNK A   0     -12.011  10.844  70.339  1.00  0.00    -0.362 A  
HETATM    5  N   UNK A   0     -12.443  11.295  71.566  1.00  0.00    -0.279 NA 
HETATM    6  C   UNK A   0     -12.792  12.629  71.493  1.00  0.00    -0.268 A  
HETATM    7  H   UNK A   0     -12.498  10.724  72.409  1.00  0.00     0.000 HD 
HETATM    8  C   UNK A   0     -13.325  13.526  72.421  1.00  0.00    -0.641 A  
HETATM    9  C   UNK A   0     -13.458  14.861  71.995  1.00  0.00    -0.487 A  
HETATM   10  C   UNK A   0     -12.968  15.301  70.748  1.00  0.00    -0.492 A  
HETATM   11  C   UNK A   0     -12.394  14.387  69.856  1.00  0.00    -0.365 A  
HETATM   12  C   UNK A   0     -12.447  13.030  70.219  1.00  0.00    -0.217 A  
HETATM   13  C   UNK A   0     -11.520  14.606  68.683  1.00  0.00    -0.326 C  
HETATM   14  C   UNK A   0     -10.735  15.691  68.566  1.00  0.00    -0.264 C  
HETATM   15  C   UNK A   0      -9.444  15.533  67.751  1.00  0.00    -0.204 C  
HETATM   16  C   UNK A   0     -12.014  14.341  65.713  1.00  0.00    -0.393 C  
HETATM   17  C   UNK A   0      -9.690  14.738  66.423  1.00  0.00    -0.291 C  
HETATM   18  N   UNK A   0     -10.844  13.798  66.405  1.00  0.00    -0.286 NA 
ENDROOT
BRANCH  15  19
HETATM   19  C   UNK A   0      -8.379  14.806  68.657  1.00  0.00    -0.165 C  
ATOM     20  N   ALA A   1      -8.032  13.530  68.229  1.00  0.00    -0.140 N  
ATOM     21  H   ALA A   1      -8.676  13.056  67.596  1.00  0.00     0.000 HD 
HETATM   22  O   UNK A   0      -7.898  15.293  69.668  1.00  0.00    -0.220 OA 
BRANCH  20  23
ATOM     23  CA  ALA A   1      -6.809  12.810  68.618  1.00  0.00    -0.099 C  
ATOM     24  CB  ALA A   1      -7.095  11.347  68.957  1.00  0.00    -0.117 C  
BRANCH  23  25
ATOM     25  C   ALA A   1      -5.645  12.924  67.621  1.00  0.00    -0.120 C  
ATOM     26  O   ALA A   1      -5.890  12.095  66.488  1.00  0.00    -0.501 OA 
ATOM     27  H   ALA A   1      -5.171  12.166  65.872  1.00  0.00     0.000 HD 
ENDBRANCH  23  25
ENDBRANCH  20  23
ENDBRANCH  15  19
TORSDOF 3
ENDMDL
MODEL       19
REMARK 921   NORMALIZED FREE ENERGY PREDICTED BY IDOCK:   -6.01 KCAL/MOL
REMARK 922        TOTAL FREE ENERGY PREDICTED BY IDOCK:   -7.52 KCAL/MOL
REMARK 923 INTER-LIGAND FREE ENERGY PREDICTED BY IDOCK:   -7.29 KCAL/MOL
REMARK 924 INTRA-LIGAND FREE ENERGY PREDICTED BY IDOCK:   -0.23 KCAL/MOL
REMARK 927      BINDING AFFINITY PREDICTED BY RF-SCORE:    0.00 PKD
ROOT
HETATM    1  C   UNK A   0      -9.835  13.171  67.924  1.00  0.00    -0.231 C  
HETATM    2  C   UNK A   0      -8.540  12.869  67.129  1.00  0.00    -0.198 C  
HETATM    3  C   UNK A   0      -8.925  12.025  65.962  1.00  0.00    -0.021 A  
HETATM    4  C   UNK A   0      -8.415  10.896  65.377  1.00  0.00    -0.088 A  
HETATM    5  N   UNK A   0      -9.184  10.624  64.267  1.00  0.00    -0.217 NA 
HETATM    6  C   UNK A   0     -10.211  11.540  64.156  1.00  0.00    -0.325 A  
HETATM    7  H   UNK A   0      -9.018   9.854  63.618  1.00  0.00     0.000 HD 
HETATM    8  C   UNK A   0     -11.215  11.735  63.205  1.00  0.00    -0.357 A  
HETATM    9  C   UNK A   0     -12.160  12.739  63.490  1.00  0.00    -0.642 A  
HETATM   10  C   UNK A   0     -12.172  13.426  64.721  1.00  0.00    -0.454 A  
HETATM   11  C   UNK A   0     -11.179  13.176  65.677  1.00  0.00    -0.306 A  
HETATM   12  C   UNK A   0     -10.137  12.315  65.295  1.00  0.00    -0.295 A  
HETATM   13  C   UNK A   0     -11.140  13.475  67.125  1.00  0.00    -0.308 C  
HETATM   14  C   UNK A   0     -12.258  13.602  67.861  1.00  0.00    -0.185 C  
HETATM   15  C   UNK A   0     -12.157  13.239  69.349  1.00  0.00    -0.301 C  
HETATM   16  C   UNK A   0      -9.556  15.484  68.734  1.00  0.00    -0.208 C  
HETATM   17  C   UNK A   0     -10.854  13.819  70.001  1.00  0.00     0.460 C  
HETATM   18  N   UNK A   0      -9.703  14.072  69.094  1.00  0.00    -0.418 NA 
ENDROOT
BRANCH  15  19
HETATM   19  C   UNK A   0     -12.201  11.668  69.473  1.00  0.00    -0.193 C  
ATOM     20  N   ALA A   1     -12.135  11.190  70.776  1.00  0.00    -0.361 N  
ATOM     21  H   ALA A   1     -11.762  11.818  71.488  1.00  0.00     0.000 HD 
HETATM   22  O   UNK A   0     -12.268  10.911  68.518  1.00  0.00    -0.535 OA 
BRANCH  20  23
ATOM     23  CA  ALA A   1     -12.559   9.850  71.209  1.00  0.00    -0.381 C  
ATOM     24  CB  ALA A   1     -11.395   9.042  71.782  1.00  0.00    -0.447 C  
BRANCH  23  25
ATOM     25  C   ALA A   1     -13.764   9.829  72.164  1.00  0.00    -0.266 C  
ATOM     26  O   ALA A   1     -13.536   8.895  73.217  1.00  0.00    -1.012 OA 
ATOM     27  H   ALA A   1     -14.280   8.881  73.806  1.00  0.00     0.000 HD 
ENDBRANCH  23  25
ENDBRANCH  20  23
ENDBRANCH  15  19
TORSDOF 3
ENDMDL
MODEL       20
REMARK 921   NORMALIZED FREE ENERGY PREDICTED BY IDOCK:   -6.00 KCAL/MOL
REMARK 922        TOTAL FREE ENERGY PREDICTED BY IDOCK:   -7.50 KCAL/MOL
REMARK 923 INTER-LIGAND FREE ENERGY PREDICTED BY IDOCK:   -7.13 KCAL/MOL
REMARK 924 INTRA-LIGAND FREE ENERGY PREDICTED BY IDOCK:   -0.36 KCAL/MOL
REMARK 927      BINDING AFFINITY PREDICTED BY RF-SCORE:    0.00 PKD
ROOT
HETATM    1  C   UNK A   0     -10.540  12.373  65.682  1.00  0.00    -0.265 C  
HETATM    2  C   UNK A   0      -9.628  11.149  65.418  1.00  0.00    -0.266 C  
HETATM    3  C   UNK A   0      -9.096  10.703  66.737  1.00  0.00    -0.167 A  
HETATM    4  C   UNK A   0      -7.864  10.321  67.202  1.00  0.00    -0.110 A  
HETATM    5  N   UNK A   0      -8.018   9.948  68.519  1.00  0.00    -0.085 NA 
HETATM    6  C   UNK A   0      -9.328  10.128  68.920  1.00  0.00    -0.179 A  
HETATM    7  H   UNK A   0      -7.271   9.590  69.113  1.00  0.00     0.000 HD 
HETATM    8  C   UNK A   0     -10.004   9.861  70.113  1.00  0.00    -0.291 A  
HETATM    9  C   UNK A   0     -11.346  10.281  70.178  1.00  0.00    -0.388 A  
HETATM   10  C   UNK A   0     -11.944  11.038  69.150  1.00  0.00    -0.394 A  
HETATM   11  C   UNK A   0     -11.226  11.332  67.984  1.00  0.00    -0.351 A  
HETATM   12  C   UNK A   0      -9.958  10.740  67.857  1.00  0.00    -0.196 A  
HETATM   13  C   UNK A   0     -11.461  12.354  66.941  1.00  0.00    -0.423 C  
HETATM   14  C   UNK A   0     -12.132  13.492  67.190  1.00  0.00    -0.386 C  
HETATM   15  C   UNK A   0     -11.764  14.717  66.342  1.00  0.00    -0.329 C  
HETATM   16  C   UNK A   0     -12.396  12.140  64.074  1.00  0.00    -0.451 C  
HETATM   17  C   UNK A   0     -11.608  14.348  64.826  1.00  0.00    -0.408 C  
HETATM   18  N   UNK A   0     -11.249  12.939  64.509  1.00  0.00    -0.319 NA 
ENDROOT
BRANCH  15  19
HETATM   19  C   UNK A   0     -10.429  15.326  66.917  1.00  0.00    -0.289 C  
ATOM     20  N   ALA A   1      -9.878  16.341  66.143  1.00  0.00    -0.312 N  
ATOM     21  H   ALA A   1     -10.169  16.399  65.167  1.00  0.00     0.000 HD 
HETATM   22  O   UNK A   0      -9.891  14.943  67.944  1.00  0.00    -0.212 OA 
BRANCH  20  23
ATOM     23  CA  ALA A   1      -8.907  17.339  66.621  1.00  0.00    -0.255 C  
ATOM     24  CB  ALA A   1      -7.512  17.093  66.051  1.00  0.00    -0.178 C  
BRANCH  23  25
ATOM     25  C   ALA A   1      -9.332  18.803  66.421  1.00  0.00    -0.312 C  
ATOM     26  O   ALA A   1     -10.526  18.863  65.646  1.00  0.00    -0.569 OA 
ATOM     27  H   ALA A   1     -10.788  19.767  65.522  1.00  0.00     0.000 HD 
ENDBRANCH  23  25
ENDBRANCH  20  23
ENDBRANCH  15  19
TORSDOF 3
ENDMDL
MODEL       21
REMARK 921   NORMALIZED FREE ENERGY PREDICTED BY IDOCK:   -5.99 KCAL/MOL
REMARK 922        TOTAL FREE ENERGY PREDICTED BY IDOCK:   -7.49 KCAL/MOL
REMARK 923 INTER-LIGAND FREE ENERGY PREDICTED BY IDOCK:   -6.90 KCAL/MOL
REMARK 924 INTRA-LIGAND FREE ENERGY PREDICTED BY IDOCK:   -0.59 KCAL/MOL
REMARK 927      BINDING AFFINITY PREDICTED BY RF-SCORE:    0.00 PKD
ROOT
HETATM    1  C   UNK A   0      -9.186   7.957  71.048  1.00  0.00    -0.151 C  
HETATM    2  C   UNK A   0      -7.968   8.910  70.958  1.00  0.00    -0.183 C  
HETATM    3  C   UNK A   0      -8.187   9.797  69.779  1.00  0.00    -0.182 A  
HETATM    4  C   UNK A   0      -7.404  10.238  68.745  1.00  0.00    -0.086 A  
HETATM    5  N   UNK A   0      -8.164  11.107  67.994  1.00  0.00    -0.120 NA 
HETATM    6  C   UNK A   0      -9.443  11.195  68.509  1.00  0.00    -0.193 A  
HETATM    7  H   UNK A   0      -7.831  11.613  67.174  1.00  0.00     0.000 HD 
HETATM    8  C   UNK A   0     -10.560  11.957  68.158  1.00  0.00    -0.233 A  
HETATM    9  C   UNK A   0     -11.744  11.697  68.874  1.00  0.00    -0.397 A  
HETATM   10  C   UNK A   0     -11.837  10.644  69.807  1.00  0.00    -0.377 A  
HETATM   11  C   UNK A   0     -10.712   9.864  70.105  1.00  0.00    -0.361 A  
HETATM   12  C   UNK A   0      -9.496  10.264  69.525  1.00  0.00    -0.207 A  
HETATM   13  C   UNK A   0     -10.603   8.537  70.746  1.00  0.00    -0.244 C  
HETATM   14  C   UNK A   0     -11.604   7.640  70.713  1.00  0.00    -0.284 C  
HETATM   15  C   UNK A   0     -11.212   6.157  70.772  1.00  0.00    -0.373 C  
HETATM   16  C   UNK A   0      -9.597   7.679  73.464  1.00  0.00    -0.290 C  
HETATM   17  C   UNK A   0     -10.109   5.890  71.852  1.00  0.00    -0.185 C  
HETATM   18  N   UNK A   0      -9.223   7.032  72.206  1.00  0.00    -0.134 NA 
ENDROOT
BRANCH  15  19
HETATM   19  C   UNK A   0     -10.718   5.724  69.338  1.00  0.00    -0.326 C  
ATOM     20  N   ALA A   1     -11.457   6.256  68.289  1.00  0.00    -0.455 N  
ATOM     21  H   ALA A   1     -12.394   6.599  68.500  1.00  0.00     0.000 HD 
HETATM   22  O   UNK A   0      -9.779   4.970  69.141  1.00  0.00    -0.144 OA 
BRANCH  20  23
ATOM     23  CA  ALA A   1     -10.994   6.362  66.896  1.00  0.00    -0.341 C  
ATOM     24  CB  ALA A   1      -9.895   7.412  66.740  1.00  0.00    -0.290 C  
BRANCH  23  25
ATOM     25  C   ALA A   1     -10.578   5.032  66.248  1.00  0.00    -0.276 C  
ATOM     26  O   ALA A   1     -11.508   4.674  65.228  1.00  0.00    -1.070 OA 
ATOM     27  H   ALA A   1     -11.251   3.852  64.828  1.00  0.00     0.000 HD 
ENDBRANCH  23  25
ENDBRANCH  20  23
ENDBRANCH  15  19
TORSDOF 3
ENDMDL
MODEL       22
REMARK 921   NORMALIZED FREE ENERGY PREDICTED BY IDOCK:   -5.99 KCAL/MOL
REMARK 922        TOTAL FREE ENERGY PREDICTED BY IDOCK:   -7.48 KCAL/MOL
REMARK 923 INTER-LIGAND FREE ENERGY PREDICTED BY IDOCK:   -6.92 KCAL/MOL
REMARK 924 INTRA-LIGAND FREE ENERGY PREDICTED BY IDOCK:   -0.56 KCAL/MOL
REMARK 927      BINDING AFFINITY PREDICTED BY RF-SCORE:    0.00 PKD
ROOT
HETATM    1  C   UNK A   0     -10.593  12.527  67.069  1.00  0.00    -0.232 C  
HETATM    2  C   UNK A   0      -9.926  11.172  66.726  1.00  0.00    -0.242 C  
HETATM    3  C   UNK A   0      -9.571  10.515  68.017  1.00  0.00    -0.159 A  
HETATM    4  C   UNK A   0      -8.468   9.855  68.493  1.00  0.00    -0.112 A  
HETATM    5  N   UNK A   0      -8.771   9.408  69.760  1.00  0.00    -0.164 NA 
HETATM    6  C   UNK A   0     -10.041   9.812  70.122  1.00  0.00    -0.265 A  
HETATM    7  H   UNK A   0      -8.146   8.857  70.347  1.00  0.00     0.000 HD 
HETATM    8  C   UNK A   0     -10.826   9.584  71.254  1.00  0.00    -0.413 A  
HETATM    9  C   UNK A   0     -12.061  10.257  71.304  1.00  0.00    -0.479 A  
HETATM   10  C   UNK A   0     -12.436  11.205  70.331  1.00  0.00    -0.382 A  
HETATM   11  C   UNK A   0     -11.607  11.450  69.229  1.00  0.00    -0.384 A  
HETATM   12  C   UNK A   0     -10.474  10.628  69.098  1.00  0.00    -0.245 A  
HETATM   13  C   UNK A   0     -11.574  12.584  68.281  1.00  0.00    -0.376 C  
HETATM   14  C   UNK A   0     -12.022  13.808  68.611  1.00  0.00    -0.401 C  
HETATM   15  C   UNK A   0     -11.371  15.003  67.902  1.00  0.00    -0.344 C  
HETATM   16  C   UNK A   0     -12.359  12.812  65.371  1.00  0.00    -0.470 C  
HETATM   17  C   UNK A   0     -11.200  14.743  66.365  1.00  0.00    -0.342 C  
HETATM   18  N   UNK A   0     -11.106  13.324  65.929  1.00  0.00    -0.284 NA 
ENDROOT
BRANCH  15  19
HETATM   19  C   UNK A   0      -9.979  15.279  68.588  1.00  0.00    -0.216 C  
ATOM     20  N   ALA A   1      -8.893  15.251  67.721  1.00  0.00    -0.170 N  
ATOM     21  H   ALA A   1      -9.015  14.769  66.830  1.00  0.00     0.000 HD 
HETATM   22  O   UNK A   0      -9.837  15.485  69.783  1.00  0.00    -0.281 OA 
BRANCH  20  23
ATOM     23  CA  ALA A   1      -7.580  15.860  67.987  1.00  0.00    -0.129 C  
ATOM     24  CB  ALA A   1      -6.456  14.826  67.954  1.00  0.00    -0.176 C  
BRANCH  23  25
ATOM     25  C   ALA A   1      -7.237  17.072  67.106  1.00  0.00    -0.172 C  
ATOM     26  O   ALA A   1      -8.210  17.215  66.074  1.00  0.00    -0.480 OA 
ATOM     27  H   ALA A   1      -7.999  17.963  65.529  1.00  0.00     0.000 HD 
ENDBRANCH  23  25
ENDBRANCH  20  23
ENDBRANCH  15  19
TORSDOF 3
ENDMDL
MODEL       23
REMARK 921   NORMALIZED FREE ENERGY PREDICTED BY IDOCK:   -5.98 KCAL/MOL
REMARK 922        TOTAL FREE ENERGY PREDICTED BY IDOCK:   -7.48 KCAL/MOL
REMARK 923 INTER-LIGAND FREE ENERGY PREDICTED BY IDOCK:   -6.71 KCAL/MOL
REMARK 924 INTRA-LIGAND FREE ENERGY PREDICTED BY IDOCK:   -0.76 KCAL/MOL
REMARK 927      BINDING AFFINITY PREDICTED BY RF-SCORE:    0.00 PKD
ROOT
HETATM    1  C   UNK A   0      -7.693  16.095  68.596  1.00  0.00    -0.186 C  
HETATM    2  C   UNK A   0      -8.507  15.253  69.610  1.00  0.00    -0.101 C  
HETATM    3  C   UNK A   0      -9.913  15.204  69.116  1.00  0.00    -0.238 A  
HETATM    4  C   UNK A   0     -11.146  15.351  69.696  1.00  0.00    -0.276 A  
HETATM    5  N   UNK A   0     -12.090  15.125  68.719  1.00  0.00    -0.574 NA 
HETATM    6  C   UNK A   0     -11.478  14.878  67.506  1.00  0.00    -0.348 A  
HETATM    7  H   UNK A   0     -13.098  15.139  68.871  1.00  0.00     0.000 HD 
HETATM    8  C   UNK A   0     -11.970  14.547  66.242  1.00  0.00    -0.335 A  
HETATM    9  C   UNK A   0     -11.022  14.465  65.204  1.00  0.00    -0.380 A  
HETATM   10  C   UNK A   0      -9.671  14.817  65.396  1.00  0.00    -0.193 A  
HETATM   11  C   UNK A   0      -9.214  15.191  66.666  1.00  0.00    -0.298 A  
HETATM   12  C   UNK A   0     -10.132  15.079  67.725  1.00  0.00    -0.234 A  
HETATM   13  C   UNK A   0      -7.991  15.914  67.075  1.00  0.00    -0.270 C  
HETATM   14  C   UNK A   0      -7.349  16.761  66.251  1.00  0.00    -0.186 C  
HETATM   15  C   UNK A   0      -6.573  17.913  66.903  1.00  0.00    -0.211 C  
HETATM   16  C   UNK A   0      -5.483  15.005  68.496  1.00  0.00    -0.100 C  
HETATM   17  C   UNK A   0      -5.746  17.428  68.144  1.00  0.00    -0.143 C  
HETATM   18  N   UNK A   0      -6.236  16.211  68.845  1.00  0.00    -0.127 NA 
ENDROOT
BRANCH  15  19
HETATM   19  C   UNK A   0      -7.608  19.029  67.314  1.00  0.00    -0.229 C  
ATOM     20  N   ALA A   1      -8.657  19.199  66.420  1.00  0.00    -0.324 N  
ATOM     21  H   ALA A   1      -8.527  18.850  65.470  1.00  0.00     0.000 HD 
HETATM   22  O   UNK A   0      -7.508  19.714  68.319  1.00  0.00    -0.297 OA 
BRANCH  20  23
ATOM     23  CA  ALA A   1      -9.942  19.845  66.734  1.00  0.00    -0.444 C  
ATOM     24  CB  ALA A   1     -10.784  20.077  65.480  1.00  0.00    -0.259 C  
BRANCH  23  25
ATOM     25  C   ALA A   1     -10.767  19.146  67.827  1.00  0.00    -0.367 C  
ATOM     26  O   ALA A   1     -10.476  19.719  69.099  1.00  0.00    -0.592 OA 
ATOM     27  H   ALA A   1     -10.986  19.288  69.775  1.00  0.00     0.000 HD 
ENDBRANCH  23  25
ENDBRANCH  20  23
ENDBRANCH  15  19
TORSDOF 3
ENDMDL
MODEL       24
REMARK 921   NORMALIZED FREE ENERGY PREDICTED BY IDOCK:   -5.96 KCAL/MOL
REMARK 922        TOTAL FREE ENERGY PREDICTED BY IDOCK:   -7.46 KCAL/MOL
REMARK 923 INTER-LIGAND FREE ENERGY PREDICTED BY IDOCK:   -6.97 KCAL/MOL
REMARK 924 INTRA-LIGAND FREE ENERGY PREDICTED BY IDOCK:   -0.48 KCAL/MOL
REMARK 927      BINDING AFFINITY PREDICTED BY RF-SCORE:    0.00 PKD
ROOT
HETATM    1  C   UNK A   0      -8.199  12.357  67.267  1.00  0.00    -0.184 C  
HETATM    2  C   UNK A   0      -7.456  13.713  67.351  1.00  0.00    -0.139 C  
HETATM    3  C   UNK A   0      -8.484  14.787  67.232  1.00  0.00    -0.234 A  
HETATM    4  C   UNK A   0      -8.575  15.963  66.533  1.00  0.00    -0.310 A  
HETATM    5  N   UNK A   0      -9.760  16.566  66.894  1.00  0.00    -0.243 NA 
HETATM    6  C   UNK A   0     -10.453  15.770  67.785  1.00  0.00    -0.283 A  
HETATM    7  H   UNK A   0     -10.080  17.471  66.552  1.00  0.00     0.000 HD 
HETATM    8  C   UNK A   0     -11.653  15.939  68.478  1.00  0.00    -0.351 A  
HETATM    9  C   UNK A   0     -12.095  14.841  69.240  1.00  0.00    -0.296 A  
HETATM   10  C   UNK A   0     -11.435  13.596  69.211  1.00  0.00    -0.344 A  
HETATM   11  C   UNK A   0     -10.258  13.441  68.468  1.00  0.00    -0.224 A  
HETATM   12  C   UNK A   0      -9.729  14.599  67.873  1.00  0.00    -0.216 A  
HETATM   13  C   UNK A   0      -9.574  12.219  67.991  1.00  0.00    -0.206 C  
HETATM   14  C   UNK A   0     -10.232  11.066  67.777  1.00  0.00    -0.210 C  
HETATM   15  C   UNK A   0      -9.661  10.126  66.707  1.00  0.00    -0.222 C  
HETATM   16  C   UNK A   0      -7.000  10.879  68.836  1.00  0.00    -0.084 C  
HETATM   17  C   UNK A   0      -8.102   9.998  66.819  1.00  0.00    -0.118 C  
HETATM   18  N   UNK A   0      -7.377  11.136  67.445  1.00  0.00    -0.102 NA 
ENDROOT
BRANCH  15  19
HETATM   19  C   UNK A   0     -10.083  10.680  65.293  1.00  0.00    -0.297 C  
ATOM     20  N   ALA A   1     -11.080  11.649  65.328  1.00  0.00    -0.271 N  
ATOM     21  H   ALA A   1     -11.657  11.699  66.167  1.00  0.00     0.000 HD 
HETATM   22  O   UNK A   0      -9.605  10.293  64.239  1.00  0.00    -0.280 OA 
BRANCH  20  23
ATOM     23  CA  ALA A   1     -11.367  12.607  64.248  1.00  0.00    -0.363 C  
ATOM     24  CB  ALA A   1     -12.578  12.181  63.418  1.00  0.00    -0.584 C  
BRANCH  23  25
ATOM     25  C   ALA A   1     -11.499  14.070  64.699  1.00  0.00    -0.383 C  
ATOM     26  O   ALA A   1     -12.287  14.800  63.762  1.00  0.00    -1.028 OA 
ATOM     27  H   ALA A   1     -12.368  15.705  64.040  1.00  0.00     0.000 HD 
ENDBRANCH  23  25
ENDBRANCH  20  23
ENDBRANCH  15  19
TORSDOF 3
ENDMDL
MODEL       25
REMARK 921   NORMALIZED FREE ENERGY PREDICTED BY IDOCK:   -5.96 KCAL/MOL
REMARK 922        TOTAL FREE ENERGY PREDICTED BY IDOCK:   -7.45 KCAL/MOL
REMARK 923 INTER-LIGAND FREE ENERGY PREDICTED BY IDOCK:   -6.92 KCAL/MOL
REMARK 924 INTRA-LIGAND FREE ENERGY PREDICTED BY IDOCK:   -0.53 KCAL/MOL
REMARK 927      BINDING AFFINITY PREDICTED BY RF-SCORE:    0.00 PKD
ROOT
HETATM    1  C   UNK A   0      -9.214  10.773  68.950  1.00  0.00    -0.173 C  
HETATM    2  C   UNK A   0      -7.868  10.134  69.374  1.00  0.00    -0.150 C  
HETATM    3  C   UNK A   0      -8.142   8.707  69.709  1.00  0.00    -0.114 A  
HETATM    4  C   UNK A   0      -7.771   7.866  70.725  1.00  0.00    -0.083 A  
HETATM    5  N   UNK A   0      -8.294   6.624  70.443  1.00  0.00    -0.125 NA 
HETATM    6  C   UNK A   0      -9.035   6.667  69.278  1.00  0.00    -0.135 A  
HETATM    7  H   UNK A   0      -8.154   5.790  71.013  1.00  0.00     0.000 HD 
HETATM    8  C   UNK A   0      -9.715   5.692  68.546  1.00  0.00    -0.172 A  
HETATM    9  C   UNK A   0     -10.454   6.145  67.436  1.00  0.00    -0.309 A  
HETATM   10  C   UNK A   0     -10.605   7.517  67.148  1.00  0.00    -0.415 A  
HETATM   11  C   UNK A   0      -9.949   8.477  67.929  1.00  0.00    -0.225 A  
HETATM   12  C   UNK A   0      -9.064   7.996  68.909  1.00  0.00    -0.144 A  
HETATM   13  C   UNK A   0     -10.190   9.928  68.074  1.00  0.00    -0.219 C  
HETATM   14  C   UNK A   0     -11.393  10.482  67.844  1.00  0.00    -0.297 C  
HETATM   15  C   UNK A   0     -11.732  11.760  68.624  1.00  0.00    -0.389 C  
HETATM   16  C   UNK A   0      -8.628  12.341  67.139  1.00  0.00    -0.187 C  
HETATM   17  C   UNK A   0     -10.527  12.762  68.648  1.00  0.00    -0.211 C  
HETATM   18  N   UNK A   0      -9.166  12.182  68.491  1.00  0.00    -0.348 NA 
ENDROOT
BRANCH  15  19
HETATM   19  C   UNK A   0     -12.153  11.344  70.085  1.00  0.00    -0.357 C  
ATOM     20  N   ALA A   1     -12.617  10.040  70.202  1.00  0.00    -0.525 N  
ATOM     21  H   ALA A   1     -12.938   9.577  69.352  1.00  0.00     0.000 HD 
HETATM   22  O   UNK A   0     -12.105  12.094  71.048  1.00  0.00    -0.236 OA 
BRANCH  20  23
ATOM     23  CA  ALA A   1     -12.681   9.273  71.457  1.00  0.00    -0.350 C  
ATOM     24  CB  ALA A   1     -11.289   8.920  71.979  1.00  0.00    -0.427 C  
BRANCH  23  25
ATOM     25  C   ALA A   1     -13.536   9.912  72.564  1.00  0.00    -0.074 C  
ATOM     26  O   ALA A   1     -14.159   8.896  73.346  1.00  0.00    -1.256 OA 
ATOM     27  H   ALA A   1     -14.687   9.291  74.030  1.00  0.00     0.000 HD 
ENDBRANCH  23  25
ENDBRANCH  20  23
ENDBRANCH  15  19
TORSDOF 3
ENDMDL
MODEL       26
REMARK 921   NORMALIZED FREE ENERGY PREDICTED BY IDOCK:   -5.95 KCAL/MOL
REMARK 922        TOTAL FREE ENERGY PREDICTED BY IDOCK:   -7.44 KCAL/MOL
REMARK 923 INTER-LIGAND FREE ENERGY PREDICTED BY IDOCK:   -6.69 KCAL/MOL
REMARK 924 INTRA-LIGAND FREE ENERGY PREDICTED BY IDOCK:   -0.76 KCAL/MOL
REMARK 927      BINDING AFFINITY PREDICTED BY RF-SCORE:    0.00 PKD
ROOT
HETATM    1  C   UNK A   0     -11.447  11.759  69.911  1.00  0.00    -0.206 C  
HETATM    2  C   UNK A   0     -11.986  13.124  70.408  1.00  0.00    -0.343 C  
HETATM    3  C   UNK A   0     -11.614  14.145  69.388  1.00  0.00    -0.353 A  
HETATM    4  C   UNK A   0     -11.090  15.411  69.435  1.00  0.00    -0.282 A  
HETATM    5  N   UNK A   0     -11.034  15.881  68.142  1.00  0.00    -0.322 NA 
HETATM    6  C   UNK A   0     -11.474  14.916  67.259  1.00  0.00    -0.340 A  
HETATM    7  H   UNK A   0     -10.712  16.812  67.875  1.00  0.00     0.000 HD 
HETATM    8  C   UNK A   0     -11.660  14.905  65.874  1.00  0.00    -0.228 A  
HETATM    9  C   UNK A   0     -12.042  13.676  65.305  1.00  0.00    -0.429 A  
HETATM   10  C   UNK A   0     -12.115  12.490  66.063  1.00  0.00    -0.390 A  
HETATM   11  C   UNK A   0     -11.877  12.521  67.443  1.00  0.00    -0.381 A  
HETATM   12  C   UNK A   0     -11.688  13.788  68.023  1.00  0.00    -0.390 A  
HETATM   13  C   UNK A   0     -11.553  11.432  68.389  1.00  0.00    -0.385 C  
HETATM   14  C   UNK A   0     -10.955  10.294  67.996  1.00  0.00    -0.345 C  
HETATM   15  C   UNK A   0     -10.082   9.572  69.031  1.00  0.00    -0.201 C  
HETATM   16  C   UNK A   0     -13.158  10.117  70.587  1.00  0.00    -0.210 C  
HETATM   17  C   UNK A   0     -10.776   9.513  70.436  1.00  0.00    -0.284 C  
HETATM   18  N   UNK A   0     -11.775  10.573  70.737  1.00  0.00    -0.348 NA 
ENDROOT
BRANCH  15  19
HETATM   19  C   UNK A   0      -8.698  10.322  69.114  1.00  0.00    -0.172 C  
ATOM     20  N   ALA A   1      -8.367  11.048  67.976  1.00  0.00    -0.120 N  
ATOM     21  H   ALA A   1      -8.845  10.805  67.108  1.00  0.00     0.000 HD 
HETATM   22  O   UNK A   0      -7.951  10.270  70.078  1.00  0.00    -0.148 OA 
BRANCH  20  23
ATOM     23  CA  ALA A   1      -7.382  12.140  67.926  1.00  0.00    -0.108 C  
ATOM     24  CB  ALA A   1      -6.164  11.768  67.082  1.00  0.00    -0.147 C  
BRANCH  23  25
ATOM     25  C   ALA A   1      -7.948  13.505  67.500  1.00  0.00    -0.181 C  
ATOM     26  O   ALA A   1      -8.616  13.386  66.246  1.00  0.00    -0.373 OA 
ATOM     27  H   ALA A   1      -8.966  14.228  65.983  1.00  0.00     0.000 HD 
ENDBRANCH  23  25
ENDBRANCH  20  23
ENDBRANCH  15  19
TORSDOF 3
ENDMDL
MODEL       27
REMARK 921   NORMALIZED FREE ENERGY PREDICTED BY IDOCK:   -5.92 KCAL/MOL
REMARK 922        TOTAL FREE ENERGY PREDICTED BY IDOCK:   -7.41 KCAL/MOL
REMARK 923 INTER-LIGAND FREE ENERGY PREDICTED BY IDOCK:   -6.63 KCAL/MOL
REMARK 924 INTRA-LIGAND FREE ENERGY PREDICTED BY IDOCK:   -0.78 KCAL/MOL
REMARK 927      BINDING AFFINITY PREDICTED BY RF-SCORE:    0.00 PKD
ROOT
HETATM    1  C   UNK A   0     -11.876  10.136  69.916  1.00  0.00    -0.135 C  
HETATM    2  C   UNK A   0     -13.156   9.776  70.712  1.00  0.00    -0.196 C  
HETATM    3  C   UNK A   0     -12.893   8.485  71.409  1.00  0.00    -0.277 A  
HETATM    4  C   UNK A   0     -13.601   7.325  71.592  1.00  0.00    -0.349 A  
HETATM    5  N   UNK A   0     -12.844   6.504  72.398  1.00  0.00    -0.496 NA 
HETATM    6  C   UNK A   0     -11.638   7.105  72.701  1.00  0.00    -0.188 A  
HETATM    7  H   UNK A   0     -13.133   5.582  72.726  1.00  0.00     0.000 HD 
HETATM    8  C   UNK A   0     -10.560   6.726  73.504  1.00  0.00    -0.358 A  
HETATM    9  C   UNK A   0      -9.439   7.577  73.488  1.00  0.00    -0.326 A  
HETATM   10  C   UNK A   0      -9.352   8.683  72.619  1.00  0.00    -0.165 A  
HETATM   11  C   UNK A   0     -10.430   9.012  71.788  1.00  0.00    -0.418 A  
HETATM   12  C   UNK A   0     -11.610   8.268  71.960  1.00  0.00    -0.403 A  
HETATM   13  C   UNK A   0     -10.491   9.863  70.580  1.00  0.00    -0.330 C  
HETATM   14  C   UNK A   0      -9.418  10.073  69.797  1.00  0.00    -0.239 C  
HETATM   15  C   UNK A   0      -9.685  10.355  68.311  1.00  0.00    -0.162 C  
HETATM   16  C   UNK A   0     -11.696  12.590  70.083  1.00  0.00    -0.175 C  
HETATM   17  C   UNK A   0     -10.868  11.365  68.115  1.00  0.00    -0.213 C  
HETATM   18  N   UNK A   0     -11.880  11.435  69.203  1.00  0.00    -0.325 NA 
ENDROOT
BRANCH  15  19
HETATM   19  C   UNK A   0      -9.990   8.981  67.601  1.00  0.00    -0.201 C  
ATOM     20  N   ALA A   1      -9.412   7.875  68.212  1.00  0.00    -0.143 N  
ATOM     21  H   ALA A   1      -8.624   8.042  68.838  1.00  0.00     0.000 HD 
HETATM   22  O   UNK A   0     -10.658   8.873  66.585  1.00  0.00    -0.216 OA 
BRANCH  20  23
ATOM     23  CA  ALA A   1      -9.846   6.481  68.026  1.00  0.00    -0.123 C  
ATOM     24  CB  ALA A   1     -11.143   6.185  68.777  1.00  0.00    -0.398 C  
BRANCH  23  25
ATOM     25  C   ALA A   1      -9.943   6.023  66.562  1.00  0.00    -0.141 C  
ATOM     26  O   ALA A   1     -11.310   5.934  66.168  1.00  0.00    -0.656 OA 
ATOM     27  H   ALA A   1     -11.370   5.650  65.263  1.00  0.00     0.000 HD 
ENDBRANCH  23  25
ENDBRANCH  20  23
ENDBRANCH  15  19
TORSDOF 3
ENDMDL
MODEL       28
REMARK 921   NORMALIZED FREE ENERGY PREDICTED BY IDOCK:   -5.90 KCAL/MOL
REMARK 922        TOTAL FREE ENERGY PREDICTED BY IDOCK:   -7.38 KCAL/MOL
REMARK 923 INTER-LIGAND FREE ENERGY PREDICTED BY IDOCK:   -6.75 KCAL/MOL
REMARK 924 INTRA-LIGAND FREE ENERGY PREDICTED BY IDOCK:   -0.63 KCAL/MOL
REMARK 927      BINDING AFFINITY PREDICTED BY RF-SCORE:    0.00 PKD
ROOT
HETATM    1  C   UNK A   0     -11.382  13.094  67.568  1.00  0.00    -0.298 C  
HETATM    2  C   UNK A   0     -11.780  12.039  68.630  1.00  0.00    -0.380 C  
HETATM    3  C   UNK A   0     -10.804  10.916  68.526  1.00  0.00    -0.262 A  
HETATM    4  C   UNK A   0     -10.903   9.549  68.514  1.00  0.00    -0.132 A  
HETATM    5  N   UNK A   0      -9.623   9.044  68.463  1.00  0.00    -0.151 NA 
HETATM    6  C   UNK A   0      -8.702  10.072  68.398  1.00  0.00    -0.117 A  
HETATM    7  H   UNK A   0      -9.388   8.052  68.472  1.00  0.00     0.000 HD 
HETATM    8  C   UNK A   0      -7.306  10.100  68.381  1.00  0.00    -0.081 A  
HETATM    9  C   UNK A   0      -6.709  11.363  68.207  1.00  0.00    -0.059 A  
HETATM   10  C   UNK A   0      -7.468  12.520  67.940  1.00  0.00    -0.120 A  
HETATM   11  C   UNK A   0      -8.867  12.453  67.915  1.00  0.00    -0.180 A  
HETATM   12  C   UNK A   0      -9.447  11.227  68.283  1.00  0.00    -0.190 A  
HETATM   13  C   UNK A   0      -9.865  13.382  67.343  1.00  0.00    -0.227 C  
HETATM   14  C   UNK A   0      -9.574  14.208  66.324  1.00  0.00    -0.295 C  
HETATM   15  C   UNK A   0     -10.730  14.599  65.393  1.00  0.00    -0.382 C  
HETATM   16  C   UNK A   0     -11.843  15.270  68.632  1.00  0.00    -0.305 C  
HETATM   17  C   UNK A   0     -12.028  14.957  66.196  1.00  0.00    -0.046 C  
HETATM   18  N   UNK A   0     -12.174  14.346  67.545  1.00  0.00    -0.619 NA 
ENDROOT
BRANCH  15  19
HETATM   19  C   UNK A   0     -10.990  13.399  64.404  1.00  0.00    -0.395 C  
ATOM     20  N   ALA A   1      -9.882  12.591  64.175  1.00  0.00    -0.599 N  
ATOM     21  H   ALA A   1      -8.964  12.982  64.385  1.00  0.00     0.000 HD 
HETATM   22  O   UNK A   0     -12.060  13.186  63.856  1.00  0.00    -0.430 OA 
BRANCH  20  23
ATOM     23  CA  ALA A   1      -9.931  11.216  63.654  1.00  0.00    -0.363 C  
ATOM     24  CB  ALA A   1      -8.963  11.015  62.489  1.00  0.00    -0.366 C  
BRANCH  23  25
ATOM     25  C   ALA A   1      -9.751  10.115  64.712  1.00  0.00    -0.322 C  
ATOM     26  O   ALA A   1      -9.080   8.994  64.141  1.00  0.00    -0.426 OA 
ATOM     27  H   ALA A   1      -8.969   8.314  64.794  1.00  0.00     0.000 HD 
ENDBRANCH  23  25
ENDBRANCH  20  23
ENDBRANCH  15  19
TORSDOF 3
ENDMDL
MODEL       29
REMARK 921   NORMALIZED FREE ENERGY PREDICTED BY IDOCK:   -5.88 KCAL/MOL
REMARK 922        TOTAL FREE ENERGY PREDICTED BY IDOCK:   -7.36 KCAL/MOL
REMARK 923 INTER-LIGAND FREE ENERGY PREDICTED BY IDOCK:   -6.73 KCAL/MOL
REMARK 924 INTRA-LIGAND FREE ENERGY PREDICTED BY IDOCK:   -0.63 KCAL/MOL
REMARK 927      BINDING AFFINITY PREDICTED BY RF-SCORE:    0.00 PKD
ROOT
HETATM    1  C   UNK A   0     -11.022  13.113  67.764  1.00  0.00    -0.251 C  
HETATM    2  C   UNK A   0     -11.386  11.775  68.455  1.00  0.00    -0.328 C  
HETATM    3  C   UNK A   0     -10.605  10.701  67.778  1.00  0.00    -0.275 A  
HETATM    4  C   UNK A   0     -10.893   9.443  67.316  1.00  0.00    -0.094 A  
HETATM    5  N   UNK A   0      -9.720   8.900  66.840  1.00  0.00    -0.183 NA 
HETATM    6  C   UNK A   0      -8.688   9.812  66.950  1.00  0.00    -0.135 A  
HETATM    7  H   UNK A   0      -9.626   7.959  66.460  1.00  0.00     0.000 HD 
HETATM    8  C   UNK A   0      -7.323   9.744  66.666  1.00  0.00    -0.094 A  
HETATM    9  C   UNK A   0      -6.592  10.937  66.822  1.00  0.00    -0.116 A  
HETATM   10  C   UNK A   0      -7.217  12.163  67.127  1.00  0.00    -0.117 A  
HETATM   11  C   UNK A   0      -8.597  12.211  67.360  1.00  0.00    -0.175 A  
HETATM   12  C   UNK A   0      -9.275  10.980  67.391  1.00  0.00    -0.157 A  
HETATM   13  C   UNK A   0      -9.535  13.353  67.355  1.00  0.00    -0.222 C  
HETATM   14  C   UNK A   0      -9.300  14.471  66.646  1.00  0.00    -0.301 C  
HETATM   15  C   UNK A   0     -10.525  15.256  66.157  1.00  0.00    -0.318 C  
HETATM   16  C   UNK A   0     -11.000  14.780  69.581  1.00  0.00    -0.261 C  
HETATM   17  C   UNK A   0     -11.615  15.389  67.276  1.00  0.00    -0.090 C  
HETATM   18  N   UNK A   0     -11.626  14.341  68.332  1.00  0.00    -0.302 NA 
ENDROOT
BRANCH  15  19
HETATM   19  C   UNK A   0     -11.104  14.520  64.888  1.00  0.00    -0.394 C  
ATOM     20  N   ALA A   1     -10.272  13.540  64.361  1.00  0.00    -0.669 N  
ATOM     21  H   ALA A   1      -9.283  13.580  64.608  1.00  0.00     0.000 HD 
HETATM   22  O   UNK A   0     -12.182  14.784  64.380  1.00  0.00    -0.491 OA 
BRANCH  20  23
ATOM     23  CA  ALA A   1     -10.705  12.448  63.474  1.00  0.00    -0.430 C  
ATOM     24  CB  ALA A   1      -9.540  11.545  63.073  1.00  0.00    -0.371 C  
BRANCH  23  25
ATOM     25  C   ALA A   1     -11.887  11.617  64.000  1.00  0.00    -0.212 C  
ATOM     26  O   ALA A   1     -13.105  12.082  63.422  1.00  0.00    -0.747 OA 
ATOM     27  H   ALA A   1     -13.835  11.569  63.746  1.00  0.00     0.000 HD 
ENDBRANCH  23  25
ENDBRANCH  20  23
ENDBRANCH  15  19
TORSDOF 3
ENDMDL
MODEL       30
REMARK 921   NORMALIZED FREE ENERGY PREDICTED BY IDOCK:   -5.88 KCAL/MOL
REMARK 922        TOTAL FREE ENERGY PREDICTED BY IDOCK:   -7.36 KCAL/MOL
REMARK 923 INTER-LIGAND FREE ENERGY PREDICTED BY IDOCK:   -6.48 KCAL/MOL
REMARK 924 INTRA-LIGAND FREE ENERGY PREDICTED BY IDOCK:   -0.88 KCAL/MOL
REMARK 927      BINDING AFFINITY PREDICTED BY RF-SCORE:    0.00 PKD
ROOT
HETATM    1  C   UNK A   0      -7.798  11.161  66.239  1.00  0.00    -0.109 C  
HETATM    2  C   UNK A   0      -7.233  12.303  67.118  1.00  0.00    -0.100 C  
HETATM    3  C   UNK A   0      -8.394  13.109  67.596  1.00  0.00    -0.174 A  
HETATM    4  C   UNK A   0      -8.663  14.449  67.696  1.00  0.00    -0.189 A  
HETATM    5  N   UNK A   0      -9.899  14.577  68.289  1.00  0.00    -0.222 NA 
HETATM    6  C   UNK A   0     -10.449  13.333  68.531  1.00  0.00    -0.250 A  
HETATM    7  H   UNK A   0     -10.346  15.465  68.517  1.00  0.00     0.000 HD 
HETATM    8  C   UNK A   0     -11.632  12.918  69.145  1.00  0.00    -0.375 A  
HETATM    9  C   UNK A   0     -11.899  11.536  69.118  1.00  0.00    -0.406 A  
HETATM   10  C   UNK A   0     -11.086  10.631  68.405  1.00  0.00    -0.328 A  
HETATM   11  C   UNK A   0      -9.930  11.083  67.758  1.00  0.00    -0.194 A  
HETATM   12  C   UNK A   0      -9.578  12.429  67.960  1.00  0.00    -0.211 A  
HETATM   13  C   UNK A   0      -9.115  10.458  66.694  1.00  0.00    -0.169 C  
HETATM   14  C   UNK A   0      -9.627   9.565  65.830  1.00  0.00    -0.337 C  
HETATM   15  C   UNK A   0      -8.983   9.494  64.438  1.00  0.00    -0.255 C  
HETATM   16  C   UNK A   0      -6.359   9.217  66.722  1.00  0.00    -0.066 C  
HETATM   17  C   UNK A   0      -7.418   9.525  64.521  1.00  0.00    -0.114 C  
HETATM   18  N   UNK A   0      -6.820  10.177  65.717  1.00  0.00    -0.111 NA 
ENDROOT
BRANCH  15  19
HETATM   19  C   UNK A   0      -9.529  10.701  63.584  1.00  0.00    -0.299 C  
ATOM     20  N   ALA A   1     -10.858  11.025  63.828  1.00  0.00    -0.538 N  
ATOM     21  H   ALA A   1     -11.443  10.313  64.267  1.00  0.00     0.000 HD 
HETATM   22  O   UNK A   0      -8.866  11.304  62.755  1.00  0.00    -0.266 OA 
BRANCH  20  23
ATOM     23  CA  ALA A   1     -11.489  12.314  63.502  1.00  0.00    -0.476 C  
ATOM     24  CB  ALA A   1     -13.002  12.179  63.333  1.00  0.00    -0.258 C  
BRANCH  23  25
ATOM     25  C   ALA A   1     -11.144  13.465  64.460  1.00  0.00    -0.380 C  
ATOM     26  O   ALA A   1      -9.804  13.897  64.242  1.00  0.00    -0.651 OA 
ATOM     27  H   ALA A   1      -9.590  14.607  64.834  1.00  0.00     0.000 HD 
ENDBRANCH  23  25
ENDBRANCH  20  23
ENDBRANCH  15  19
TORSDOF 3
ENDMDL
MODEL       31
REMARK 921   NORMALIZED FREE ENERGY PREDICTED BY IDOCK:   -5.88 KCAL/MOL
REMARK 922        TOTAL FREE ENERGY PREDICTED BY IDOCK:   -7.35 KCAL/MOL
REMARK 923 INTER-LIGAND FREE ENERGY PREDICTED BY IDOCK:   -6.61 KCAL/MOL
REMARK 924 INTRA-LIGAND FREE ENERGY PREDICTED BY IDOCK:   -0.74 KCAL/MOL
REMARK 927      BINDING AFFINITY PREDICTED BY RF-SCORE:    0.00 PKD
ROOT
HETATM    1  C   UNK A   0     -10.729  10.356  69.099  1.00  0.00    -0.234 C  
HETATM    2  C   UNK A   0     -11.992  10.692  69.932  1.00  0.00    -0.385 C  
HETATM    3  C   UNK A   0     -12.180   9.585  70.913  1.00  0.00    -0.332 A  
HETATM    4  C   UNK A   0     -13.254   8.851  71.345  1.00  0.00    -0.262 A  
HETATM    5  N   UNK A   0     -12.802   8.004  72.333  1.00  0.00    -0.552 NA 
HETATM    6  C   UNK A   0     -11.441   8.155  72.511  1.00  0.00    -0.404 A  
HETATM    7  H   UNK A   0     -13.390   7.357  72.859  1.00  0.00     0.000 HD 
HETATM    8  C   UNK A   0     -10.528   7.584  73.401  1.00  0.00    -0.404 A  
HETATM    9  C   UNK A   0      -9.175   7.921  73.210  1.00  0.00    -0.346 A  
HETATM   10  C   UNK A   0      -8.744   8.691  72.111  1.00  0.00    -0.217 A  
HETATM   11  C   UNK A   0      -9.678   9.212  71.206  1.00  0.00    -0.351 A  
HETATM   12  C   UNK A   0     -11.035   9.026  71.523  1.00  0.00    -0.418 A  
HETATM   13  C   UNK A   0      -9.502   9.733  69.834  1.00  0.00    -0.264 C  
HETATM   14  C   UNK A   0      -8.487   9.344  69.043  1.00  0.00    -0.129 C  
HETATM   15  C   UNK A   0      -8.733   9.370  67.529  1.00  0.00    -0.123 C  
HETATM   16  C   UNK A   0      -9.637  12.531  68.699  1.00  0.00    -0.021 C  
HETATM   17  C   UNK A   0      -9.465  10.682  67.082  1.00  0.00    -0.156 C  
HETATM   18  N   UNK A   0     -10.300  11.369  68.105  1.00  0.00    -0.182 NA 
ENDROOT
BRANCH  15  19
HETATM   19  C   UNK A   0      -9.576   8.093  67.148  1.00  0.00    -0.174 C  
ATOM     20  N   ALA A   1      -9.023   6.890  67.570  1.00  0.00    -0.117 N  
ATOM     21  H   ALA A   1      -8.028   6.883  67.793  1.00  0.00     0.000 HD 
HETATM   22  O   UNK A   0     -10.621   8.130  66.518  1.00  0.00    -0.190 OA 
BRANCH  20  23
ATOM     23  CA  ALA A   1      -9.761   5.626  67.721  1.00  0.00    -0.125 C  
ATOM     24  CB  ALA A   1     -11.004   5.793  68.593  1.00  0.00    -0.198 C  
BRANCH  23  25
ATOM     25  C   ALA A   1     -10.108   4.918  66.401  1.00  0.00    -0.258 C  
ATOM     26  O   ALA A   1     -11.381   5.356  65.933  1.00  0.00    -0.772 OA 
ATOM     27  H   ALA A   1     -11.596   4.918  65.118  1.00  0.00     0.000 HD 
ENDBRANCH  23  25
ENDBRANCH  20  23
ENDBRANCH  15  19
TORSDOF 3
ENDMDL
MODEL       32
REMARK 921   NORMALIZED FREE ENERGY PREDICTED BY IDOCK:   -5.86 KCAL/MOL
REMARK 922        TOTAL FREE ENERGY PREDICTED BY IDOCK:   -7.34 KCAL/MOL
REMARK 923 INTER-LIGAND FREE ENERGY PREDICTED BY IDOCK:   -6.45 KCAL/MOL
REMARK 924 INTRA-LIGAND FREE ENERGY PREDICTED BY IDOCK:   -0.89 KCAL/MOL
REMARK 927      BINDING AFFINITY PREDICTED BY RF-SCORE:    0.00 PKD
ROOT
HETATM    1  C   UNK A   0     -10.308  10.112  69.079  1.00  0.00    -0.212 C  
HETATM    2  C   UNK A   0     -11.376  10.636  70.071  1.00  0.00    -0.400 C  
HETATM    3  C   UNK A   0     -11.468   9.647  71.183  1.00  0.00    -0.456 A  
HETATM    4  C   UNK A   0     -12.499   9.055  71.866  1.00  0.00    -0.384 A  
HETATM    5  N   UNK A   0     -11.942   8.267  72.849  1.00  0.00    -0.542 NA 
HETATM    6  C   UNK A   0     -10.563   8.311  72.779  1.00  0.00    -0.251 A  
HETATM    7  H   UNK A   0     -12.473   7.727  73.532  1.00  0.00     0.000 HD 
HETATM    8  C   UNK A   0      -9.551   7.746  73.558  1.00  0.00    -0.332 A  
HETATM    9  C   UNK A   0      -8.232   7.942  73.107  1.00  0.00    -0.221 A  
HETATM   10  C   UNK A   0      -7.948   8.564  71.875  1.00  0.00    -0.170 A  
HETATM   11  C   UNK A   0      -8.987   9.080  71.090  1.00  0.00    -0.303 A  
HETATM   12  C   UNK A   0     -10.276   9.047  71.648  1.00  0.00    -0.418 A  
HETATM   13  C   UNK A   0      -9.019   9.453  69.659  1.00  0.00    -0.181 C  
HETATM   14  C   UNK A   0      -8.189   8.903  68.756  1.00  0.00    -0.115 C  
HETATM   15  C   UNK A   0      -8.696   8.809  67.310  1.00  0.00    -0.133 C  
HETATM   16  C   UNK A   0      -9.150  12.134  68.270  1.00  0.00    -0.191 C  
HETATM   17  C   UNK A   0      -9.399  10.135  66.855  1.00  0.00    -0.158 C  
HETATM   18  N   UNK A   0      -9.989  10.985  67.924  1.00  0.00    -0.171 NA 
ENDROOT
BRANCH  15  19
HETATM   19  C   UNK A   0      -9.683   7.584  67.216  1.00  0.00    -0.167 C  
ATOM     20  N   ALA A   1      -9.220   6.423  67.823  1.00  0.00    -0.114 N  
ATOM     21  H   ALA A   1      -8.216   6.348  67.991  1.00  0.00     0.000 HD 
HETATM   22  O   UNK A   0     -10.761   7.619  66.645  1.00  0.00    -0.239 OA 
BRANCH  20  23
ATOM     23  CA  ALA A   1     -10.063   5.292  68.242  1.00  0.00    -0.155 C  
ATOM     24  CB  ALA A   1      -9.298   3.969  68.209  1.00  0.00    -0.216 C  
BRANCH  23  25
ATOM     25  C   ALA A   1     -10.775   5.480  69.592  1.00  0.00    -0.278 C  
ATOM     26  O   ALA A   1     -11.779   6.485  69.478  1.00  0.00    -0.640 OA 
ATOM     27  H   ALA A   1     -12.219   6.602  70.311  1.00  0.00     0.000 HD 
ENDBRANCH  23  25
ENDBRANCH  20  23
ENDBRANCH  15  19
TORSDOF 3
ENDMDL
MODEL       33
REMARK 921   NORMALIZED FREE ENERGY PREDICTED BY IDOCK:   -5.86 KCAL/MOL
REMARK 922        TOTAL FREE ENERGY PREDICTED BY IDOCK:   -7.33 KCAL/MOL
REMARK 923 INTER-LIGAND FREE ENERGY PREDICTED BY IDOCK:   -6.70 KCAL/MOL
REMARK 924 INTRA-LIGAND FREE ENERGY PREDICTED BY IDOCK:   -0.63 KCAL/MOL
REMARK 927      BINDING AFFINITY PREDICTED BY RF-SCORE:    0.00 PKD
ROOT
HETATM    1  C   UNK A   0     -10.079  14.734  68.753  1.00  0.00    -0.237 C  
HETATM    2  C   UNK A   0      -8.942  15.277  69.654  1.00  0.00    -0.119 C  
HETATM    3  C   UNK A   0      -8.220  16.321  68.873  1.00  0.00    -0.231 A  
HETATM    4  C   UNK A   0      -6.901  16.625  68.655  1.00  0.00    -0.168 A  
HETATM    5  N   UNK A   0      -6.863  17.766  67.884  1.00  0.00    -0.189 NA 
HETATM    6  C   UNK A   0      -8.143  18.175  67.566  1.00  0.00    -0.238 A  
HETATM    7  H   UNK A   0      -6.010  18.241  67.590  1.00  0.00     0.000 HD 
HETATM    8  C   UNK A   0      -8.646  19.274  66.867  1.00  0.00    -0.318 A  
HETATM    9  C   UNK A   0     -10.038  19.301  66.660  1.00  0.00    -0.487 A  
HETATM   10  C   UNK A   0     -10.869  18.223  67.026  1.00  0.00    -0.196 A  
HETATM   11  C   UNK A   0     -10.330  17.111  67.684  1.00  0.00    -0.344 A  
HETATM   12  C   UNK A   0      -8.976  17.190  68.053  1.00  0.00    -0.233 A  
HETATM   13  C   UNK A   0     -10.869  15.746  67.867  1.00  0.00    -0.314 C  
HETATM   14  C   UNK A   0     -11.754  15.204  67.012  1.00  0.00    -0.119 C  
HETATM   15  C   UNK A   0     -11.737  13.676  66.867  1.00  0.00    -0.423 C  
HETATM   16  C   UNK A   0     -11.959  14.308  70.292  1.00  0.00    -0.329 C  
HETATM   17  C   UNK A   0     -11.624  12.962  68.258  1.00  0.00    -0.335 C  
HETATM   18  N   UNK A   0     -10.988  13.732  69.360  1.00  0.00    -0.418 NA 
ENDROOT
BRANCH  15  19
HETATM   19  C   UNK A   0     -10.529  13.288  65.931  1.00  0.00    -0.285 C  
ATOM     20  N   ALA A   1      -9.899  12.096  66.268  1.00  0.00    -0.229 N  
ATOM     21  H   ALA A   1     -10.036  11.743  67.215  1.00  0.00     0.000 HD 
HETATM   22  O   UNK A   0     -10.146  13.970  64.994  1.00  0.00    -0.369 OA 
BRANCH  20  23
ATOM     23  CA  ALA A   1      -9.049  11.302  65.366  1.00  0.00    -0.147 C  
ATOM     24  CB  ALA A   1      -8.218  10.271  66.128  1.00  0.00    -0.138 C  
BRANCH  23  25
ATOM     25  C   ALA A   1      -9.789  10.649  64.187  1.00  0.00    -0.335 C  
ATOM     26  O   ALA A   1     -10.036  11.616  63.170  1.00  0.00    -0.497 OA 
ATOM     27  H   ALA A   1     -10.493  11.213  62.442  1.00  0.00     0.000 HD 
ENDBRANCH  23  25
ENDBRANCH  20  23
ENDBRANCH  15  19
TORSDOF 3
ENDMDL
MODEL       34
REMARK 921   NORMALIZED FREE ENERGY PREDICTED BY IDOCK:   -5.77 KCAL/MOL
REMARK 922        TOTAL FREE ENERGY PREDICTED BY IDOCK:   -7.23 KCAL/MOL
REMARK 923 INTER-LIGAND FREE ENERGY PREDICTED BY IDOCK:   -6.37 KCAL/MOL
REMARK 924 INTRA-LIGAND FREE ENERGY PREDICTED BY IDOCK:   -0.86 KCAL/MOL
REMARK 927      BINDING AFFINITY PREDICTED BY RF-SCORE:    0.00 PKD
ROOT
HETATM    1  C   UNK A   0     -10.542  12.922  65.668  1.00  0.00    -0.277 C  
HETATM    2  C   UNK A   0     -10.454  12.213  64.294  1.00  0.00    -0.373 C  
HETATM    3  C   UNK A   0      -9.697  10.945  64.499  1.00  0.00    -0.334 A  
HETATM    4  C   UNK A   0      -8.690  10.302  63.827  1.00  0.00    -0.205 A  
HETATM    5  N   UNK A   0      -8.454   9.112  64.479  1.00  0.00    -0.173 NA 
HETATM    6  C   UNK A   0      -9.268   9.002  65.589  1.00  0.00    -0.225 A  
HETATM    7  H   UNK A   0      -7.774   8.412  64.183  1.00  0.00     0.000 HD 
HETATM    8  C   UNK A   0      -9.454   7.993  66.537  1.00  0.00    -0.278 A  
HETATM    9  C   UNK A   0     -10.323   8.291  67.604  1.00  0.00    -0.313 A  
HETATM   10  C   UNK A   0     -10.879   9.574  67.780  1.00  0.00    -0.258 A  
HETATM   11  C   UNK A   0     -10.636  10.582  66.838  1.00  0.00    -0.303 A  
HETATM   12  C   UNK A   0      -9.928  10.209  65.683  1.00  0.00    -0.348 A  
HETATM   13  C   UNK A   0     -10.790  12.049  66.937  1.00  0.00    -0.302 C  
HETATM   14  C   UNK A   0     -10.729  12.699  68.113  1.00  0.00    -0.242 C  
HETATM   15  C   UNK A   0     -10.230  14.150  68.081  1.00  0.00    -0.241 C  
HETATM   16  C   UNK A   0     -12.778  13.963  65.703  1.00  0.00    -0.495 C  
HETATM   17  C   UNK A   0     -10.870  14.959  66.900  1.00  0.00    -0.319 C  
HETATM   18  N   UNK A   0     -11.329  14.177  65.720  1.00  0.00    -0.312 NA 
ENDROOT
BRANCH  15  19
HETATM   19  C   UNK A   0      -8.658  14.125  67.962  1.00  0.00    -0.172 C  
ATOM     20  N   ALA A   1      -8.038  13.152  68.736  1.00  0.00    -0.342 N  
ATOM     21  H   ALA A   1      -8.567  12.764  69.517  1.00  0.00     0.000 HD 
HETATM   22  O   UNK A   0      -8.014  14.898  67.271  1.00  0.00    -0.185 OA 
BRANCH  20  23
ATOM     23  CA  ALA A   1      -6.676  12.637  68.518  1.00  0.00    -0.089 C  
ATOM     24  CB  ALA A   1      -5.925  12.443  69.834  1.00  0.00    -0.146 C  
BRANCH  23  25
ATOM     25  C   ALA A   1      -6.593  11.374  67.647  1.00  0.00    -0.074 C  
ATOM     26  O   ALA A   1      -6.695  11.724  66.269  1.00  0.00    -0.367 OA 
ATOM     27  H   ALA A   1      -6.644  10.944  65.730  1.00  0.00     0.000 HD 
ENDBRANCH  23  25
ENDBRANCH  20  23
ENDBRANCH  15  19
TORSDOF 3
ENDMDL
MODEL       35
REMARK 921   NORMALIZED FREE ENERGY PREDICTED BY IDOCK:   -5.75 KCAL/MOL
REMARK 922        TOTAL FREE ENERGY PREDICTED BY IDOCK:   -7.21 KCAL/MOL
REMARK 923 INTER-LIGAND FREE ENERGY PREDICTED BY IDOCK:   -6.43 KCAL/MOL
REMARK 924 INTRA-LIGAND FREE ENERGY PREDICTED BY IDOCK:   -0.77 KCAL/MOL
REMARK 927      BINDING AFFINITY PREDICTED BY RF-SCORE:    0.00 PKD
ROOT
HETATM    1  C   UNK A   0     -10.706   6.836  70.512  1.00  0.00    -0.238 C  
HETATM    2  C   UNK A   0     -10.836   5.746  69.419  1.00  0.00    -0.393 C  
HETATM    3  C   UNK A   0     -10.362   6.346  68.139  1.00  0.00    -0.231 A  
HETATM    4  C   UNK A   0     -10.819   6.350  66.847  1.00  0.00    -0.357 A  
HETATM    5  N   UNK A   0      -9.897   7.032  66.085  1.00  0.00    -0.413 NA 
HETATM    6  C   UNK A   0      -8.872   7.506  66.881  1.00  0.00    -0.135 A  
HETATM    7  H   UNK A   0      -9.961   7.169  65.077  1.00  0.00     0.000 HD 
HETATM    8  C   UNK A   0      -7.693   8.200  66.602  1.00  0.00    -0.094 A  
HETATM    9  C   UNK A   0      -6.928   8.605  67.712  1.00  0.00    -0.075 A  
HETATM   10  C   UNK A   0      -7.381   8.433  69.036  1.00  0.00    -0.088 A  
HETATM   11  C   UNK A   0      -8.593   7.776  69.285  1.00  0.00    -0.138 A  
HETATM   12  C   UNK A   0      -9.244   7.209  68.175  1.00  0.00    -0.131 A  
HETATM   13  C   UNK A   0      -9.450   7.761  70.490  1.00  0.00    -0.163 C  
HETATM   14  C   UNK A   0      -9.453   8.768  71.380  1.00  0.00    -0.330 C  
HETATM   15  C   UNK A   0     -10.754   9.007  72.158  1.00  0.00    -0.226 C  
HETATM   16  C   UNK A   0     -10.018   5.617  72.543  1.00  0.00    -0.168 C  
HETATM   17  C   UNK A   0     -11.383   7.663  72.664  1.00  0.00    -0.370 C  
HETATM   18  N   UNK A   0     -11.048   6.432  71.897  1.00  0.00    -0.255 NA 
ENDROOT
BRANCH  15  19
HETATM   19  C   UNK A   0     -11.753   9.779  71.215  1.00  0.00    -0.394 C  
ATOM     20  N   ALA A   1     -11.190  10.850  70.531  1.00  0.00    -0.436 N  
ATOM     21  H   ALA A   1     -10.322  11.239  70.901  1.00  0.00     0.000 HD 
HETATM   22  O   UNK A   0     -12.934   9.493  71.092  1.00  0.00    -0.323 OA 
BRANCH  20  23
ATOM     23  CA  ALA A   1     -11.747  11.468  69.317  1.00  0.00    -0.330 C  
ATOM     24  CB  ALA A   1     -11.859  12.985  69.451  1.00  0.00    -0.380 C  
BRANCH  23  25
ATOM     25  C   ALA A   1     -11.035  11.083  68.010  1.00  0.00    -0.258 C  
ATOM     26  O   ALA A   1     -11.276   9.711  67.708  1.00  0.00    -0.504 OA 
ATOM     27  H   ALA A   1     -10.836   9.473  66.901  1.00  0.00     0.000 HD 
ENDBRANCH  23  25
ENDBRANCH  20  23
ENDBRANCH  15  19
TORSDOF 3
ENDMDL
MODEL       36
REMARK 921   NORMALIZED FREE ENERGY PREDICTED BY IDOCK:   -5.73 KCAL/MOL
REMARK 922        TOTAL FREE ENERGY PREDICTED BY IDOCK:   -7.18 KCAL/MOL
REMARK 923 INTER-LIGAND FREE ENERGY PREDICTED BY IDOCK:   -6.84 KCAL/MOL
REMARK 924 INTRA-LIGAND FREE ENERGY PREDICTED BY IDOCK:   -0.35 KCAL/MOL
REMARK 927      BINDING AFFINITY PREDICTED BY RF-SCORE:    0.00 PKD
ROOT
HETATM    1  C   UNK A   0     -10.114  10.385  67.336  1.00  0.00    -0.196 C  
HETATM    2  C   UNK A   0     -11.384  10.868  68.080  1.00  0.00    -0.383 C  
HETATM    3  C   UNK A   0     -11.759  12.190  67.501  1.00  0.00    -0.385 A  
HETATM    4  C   UNK A   0     -12.151  13.396  68.022  1.00  0.00    -0.248 A  
HETATM    5  N   UNK A   0     -12.430  14.231  66.962  1.00  0.00    -0.543 NA 
HETATM    6  C   UNK A   0     -12.179  13.589  65.765  1.00  0.00    -0.461 A  
HETATM    7  H   UNK A   0     -12.772  15.187  67.050  1.00  0.00     0.000 HD 
HETATM    8  C   UNK A   0     -12.342  13.966  64.431  1.00  0.00    -0.400 A  
HETATM    9  C   UNK A   0     -11.874  13.058  63.463  1.00  0.00    -0.582 A  
HETATM   10  C   UNK A   0     -11.167  11.890  63.813  1.00  0.00    -0.519 A  
HETATM   11  C   UNK A   0     -10.976  11.560  65.161  1.00  0.00    -0.298 A  
HETATM   12  C   UNK A   0     -11.618  12.377  66.108  1.00  0.00    -0.452 A  
HETATM   13  C   UNK A   0     -10.019  10.630  65.798  1.00  0.00    -0.315 C  
HETATM   14  C   UNK A   0      -8.845  10.308  65.229  1.00  0.00    -0.200 C  
HETATM   15  C   UNK A   0      -7.692   9.936  66.172  1.00  0.00    -0.107 C  
HETATM   16  C   UNK A   0     -10.391   7.943  67.131  1.00  0.00    -0.328 C  
HETATM   17  C   UNK A   0      -8.166   8.979  67.319  1.00  0.00    -0.103 C  
HETATM   18  N   UNK A   0      -9.604   9.040  67.696  1.00  0.00    -0.147 NA 
ENDROOT
BRANCH  15  19
HETATM   19  C   UNK A   0      -7.091  11.270  66.759  1.00  0.00    -0.143 C  
ATOM     20  N   ALA A   1      -7.903  12.387  66.600  1.00  0.00    -0.387 N  
ATOM     21  H   ALA A   1      -8.628  12.343  65.884  1.00  0.00     0.000 HD 
HETATM   22  O   UNK A   0      -5.997  11.347  67.296  1.00  0.00    -0.060 OA 
BRANCH  20  23
ATOM     23  CA  ALA A   1      -7.798  13.628  67.384  1.00  0.00    -0.149 C  
ATOM     24  CB  ALA A   1      -8.618  14.761  66.767  1.00  0.00    -0.226 C  
BRANCH  23  25
ATOM     25  C   ALA A   1      -8.110  13.478  68.882  1.00  0.00     0.121 C  
ATOM     26  O   ALA A   1      -6.914  13.192  69.603  1.00  0.00    -0.329 OA 
ATOM     27  H   ALA A   1      -7.107  13.099  70.528  1.00  0.00     0.000 HD 
ENDBRANCH  23  25
ENDBRANCH  20  23
ENDBRANCH  15  19
TORSDOF 3
ENDMDL
MODEL       37
REMARK 921   NORMALIZED FREE ENERGY PREDICTED BY IDOCK:   -5.71 KCAL/MOL
REMARK 922        TOTAL FREE ENERGY PREDICTED BY IDOCK:   -7.15 KCAL/MOL
REMARK 923 INTER-LIGAND FREE ENERGY PREDICTED BY IDOCK:   -6.56 KCAL/MOL
REMARK 924 INTRA-LIGAND FREE ENERGY PREDICTED BY IDOCK:   -0.59 KCAL/MOL
REMARK 927      BINDING AFFINITY PREDICTED BY RF-SCORE:    0.00 PKD
ROOT
HETATM    1  C   UNK A   0     -10.321   9.898  67.397  1.00  0.00    -0.246 C  
HETATM    2  C   UNK A   0      -9.940   8.629  66.595  1.00  0.00    -0.357 C  
HETATM    3  C   UNK A   0      -8.881   9.023  65.622  1.00  0.00    -0.224 A  
HETATM    4  C   UNK A   0      -8.650   8.775  64.294  1.00  0.00    -0.068 A  
HETATM    5  N   UNK A   0      -7.449   9.366  63.967  1.00  0.00    -0.109 NA 
HETATM    6  C   UNK A   0      -6.927  10.029  65.061  1.00  0.00    -0.135 A  
HETATM    7  H   UNK A   0      -7.009   9.321  63.049  1.00  0.00     0.000 HD 
HETATM    8  C   UNK A   0      -5.736  10.729  65.270  1.00  0.00    -0.085 A  
HETATM    9  C   UNK A   0      -5.596  11.364  66.519  1.00  0.00    -0.142 A  
HETATM   10  C   UNK A   0      -6.643  11.400  67.461  1.00  0.00    -0.078 A  
HETATM   11  C   UNK A   0      -7.845  10.728  67.204  1.00  0.00    -0.124 A  
HETATM   12  C   UNK A   0      -7.893   9.942  66.041  1.00  0.00    -0.111 A  
HETATM   13  C   UNK A   0      -9.181  10.876  67.821  1.00  0.00    -0.155 C  
HETATM   14  C   UNK A   0      -9.581  12.021  68.401  1.00  0.00    -0.190 C  
HETATM   15  C   UNK A   0     -11.087  12.317  68.392  1.00  0.00    -0.283 C  
HETATM   16  C   UNK A   0     -10.755   9.093  69.688  1.00  0.00    -0.225 C  
HETATM   17  C   UNK A   0     -11.931  11.048  68.761  1.00  0.00    -0.225 C  
HETATM   18  N   UNK A   0     -11.309   9.724  68.488  1.00  0.00    -0.508 NA 
ENDROOT
BRANCH  15  19
HETATM   19  C   UNK A   0     -11.471  12.855  66.961  1.00  0.00    -0.339 C  
ATOM     20  N   ALA A   1     -10.576  13.777  66.433  1.00  0.00    -0.281 N  
ATOM     21  H   ALA A   1      -9.954  14.255  67.085  1.00  0.00     0.000 HD 
HETATM   22  O   UNK A   0     -12.476  12.521  66.354  1.00  0.00    -0.436 OA 
BRANCH  20  23
ATOM     23  CA  ALA A   1     -10.455  14.120  65.006  1.00  0.00    -0.425 C  
ATOM     24  CB  ALA A   1     -10.330  12.874  64.131  1.00  0.00    -0.385 C  
BRANCH  23  25
ATOM     25  C   ALA A   1     -11.548  15.059  64.471  1.00  0.00    -0.343 C  
ATOM     26  O   ALA A   1     -12.329  14.387  63.486  1.00  0.00    -1.091 OA 
ATOM     27  H   ALA A   1     -13.004  14.967  63.155  1.00  0.00     0.000 HD 
ENDBRANCH  23  25
ENDBRANCH  20  23
ENDBRANCH  15  19
TORSDOF 3
ENDMDL
MODEL       38
REMARK 921   NORMALIZED FREE ENERGY PREDICTED BY IDOCK:   -5.69 KCAL/MOL
REMARK 922        TOTAL FREE ENERGY PREDICTED BY IDOCK:   -7.14 KCAL/MOL
REMARK 923 INTER-LIGAND FREE ENERGY PREDICTED BY IDOCK:   -6.64 KCAL/MOL
REMARK 924 INTRA-LIGAND FREE ENERGY PREDICTED BY IDOCK:   -0.50 KCAL/MOL
REMARK 927      BINDING AFFINITY PREDICTED BY RF-SCORE:    0.00 PKD
ROOT
HETATM    1  C   UNK A   0      -8.872  10.566  69.189  1.00  0.00    -0.151 C  
HETATM    2  C   UNK A   0      -8.396   9.669  70.359  1.00  0.00    -0.188 C  
HETATM    3  C   UNK A   0      -9.372   8.548  70.481  1.00  0.00    -0.192 A  
HETATM    4  C   UNK A   0     -10.013   7.936  71.527  1.00  0.00    -0.173 A  
HETATM    5  N   UNK A   0     -10.753   6.898  71.005  1.00  0.00    -0.228 NA 
HETATM    6  C   UNK A   0     -10.630   6.863  69.630  1.00  0.00    -0.231 A  
HETATM    7  H   UNK A   0     -11.312   6.248  71.557  1.00  0.00     0.000 HD 
HETATM    8  C   UNK A   0     -11.124   5.998  68.652  1.00  0.00    -0.293 A  
HETATM    9  C   UNK A   0     -10.859   6.349  67.315  1.00  0.00    -0.463 A  
HETATM   10  C   UNK A   0     -10.240   7.568  66.970  1.00  0.00    -0.368 A  
HETATM   11  C   UNK A   0      -9.797   8.440  67.972  1.00  0.00    -0.202 A  
HETATM   12  C   UNK A   0      -9.895   7.982  69.297  1.00  0.00    -0.178 A  
HETATM   13  C   UNK A   0      -9.447   9.876  67.914  1.00  0.00    -0.149 C  
HETATM   14  C   UNK A   0      -9.962  10.702  66.986  1.00  0.00    -0.243 C  
HETATM   15  C   UNK A   0     -10.105  12.180  67.373  1.00  0.00    -0.208 C  
HETATM   16  C   UNK A   0      -6.799  11.322  68.087  1.00  0.00    -0.067 C  
HETATM   17  C   UNK A   0      -8.830  12.713  68.112  1.00  0.00    -0.194 C  
HETATM   18  N   UNK A   0      -7.999  11.709  68.830  1.00  0.00    -0.323 NA 
ENDROOT
BRANCH  15  19
HETATM   19  C   UNK A   0     -11.387  12.326  68.279  1.00  0.00    -0.289 C  
ATOM     20  N   ALA A   1     -11.282  13.288  69.277  1.00  0.00    -0.383 N  
ATOM     21  H   ALA A   1     -10.344  13.584  69.547  1.00  0.00     0.000 HD 
HETATM   22  O   UNK A   0     -12.395  11.650  68.148  1.00  0.00    -0.429 OA 
BRANCH  20  23
ATOM     23  CA  ALA A   1     -12.417  13.912  69.975  1.00  0.00    -0.266 C  
ATOM     24  CB  ALA A   1     -12.718  13.219  71.303  1.00  0.00    -0.411 C  
BRANCH  23  25
ATOM     25  C   ALA A   1     -12.304  15.434  70.163  1.00  0.00    -0.361 C  
ATOM     26  O   ALA A   1     -13.394  15.910  70.948  1.00  0.00    -0.651 OA 
ATOM     27  H   ALA A   1     -13.325  16.850  71.064  1.00  0.00     0.000 HD 
ENDBRANCH  23  25
ENDBRANCH  20  23
ENDBRANCH  15  19
TORSDOF 3
ENDMDL
MODEL       39
REMARK 921   NORMALIZED FREE ENERGY PREDICTED BY IDOCK:   -5.68 KCAL/MOL
REMARK 922        TOTAL FREE ENERGY PREDICTED BY IDOCK:   -7.12 KCAL/MOL
REMARK 923 INTER-LIGAND FREE ENERGY PREDICTED BY IDOCK:   -6.35 KCAL/MOL
REMARK 924 INTRA-LIGAND FREE ENERGY PREDICTED BY IDOCK:   -0.77 KCAL/MOL
REMARK 927      BINDING AFFINITY PREDICTED BY RF-SCORE:    0.00 PKD
ROOT
HETATM    1  C   UNK A   0     -10.586  13.402  65.535  1.00  0.00    -0.290 C  
HETATM    2  C   UNK A   0     -10.274  11.981  65.003  1.00  0.00    -0.308 C  
HETATM    3  C   UNK A   0      -9.870  11.150  66.173  1.00  0.00    -0.265 A  
HETATM    4  C   UNK A   0      -8.868  10.246  66.414  1.00  0.00    -0.145 A  
HETATM    5  N   UNK A   0      -9.059   9.750  67.685  1.00  0.00    -0.131 NA 
HETATM    6  C   UNK A   0     -10.147  10.358  68.281  1.00  0.00    -0.153 A  
HETATM    7  H   UNK A   0      -8.479   9.035  68.124  1.00  0.00     0.000 HD 
HETATM    8  C   UNK A   0     -10.779  10.182  69.514  1.00  0.00    -0.277 A  
HETATM    9  C   UNK A   0     -11.825  11.075  69.813  1.00  0.00    -0.421 A  
HETATM   10  C   UNK A   0     -12.140  12.165  68.976  1.00  0.00    -0.208 A  
HETATM   11  C   UNK A   0     -11.457  12.345  67.767  1.00  0.00    -0.383 A  
HETATM   12  C   UNK A   0     -10.553  11.335  67.396  1.00  0.00    -0.262 A  
HETATM   13  C   UNK A   0     -11.335  13.535  66.897  1.00  0.00    -0.350 C  
HETATM   14  C   UNK A   0     -11.464  14.786  67.372  1.00  0.00    -0.376 C  
HETATM   15  C   UNK A   0     -10.695  15.892  66.636  1.00  0.00    -0.270 C  
HETATM   16  C   UNK A   0     -12.494  14.183  64.181  1.00  0.00    -0.227 C  
HETATM   17  C   UNK A   0     -10.820  15.749  65.080  1.00  0.00    -0.443 C  
HETATM   18  N   UNK A   0     -11.091  14.386  64.549  1.00  0.00    -0.584 NA 
ENDROOT
BRANCH  15  19
HETATM   19  C   UNK A   0      -9.188  15.827  67.092  1.00  0.00    -0.210 C  
ATOM     20  N   ALA A   1      -9.004  15.765  68.467  1.00  0.00    -0.186 N  
ATOM     21  H   ALA A   1      -9.776  16.070  69.059  1.00  0.00     0.000 HD 
HETATM   22  O   UNK A   0      -8.241  15.849  66.321  1.00  0.00    -0.274 OA 
BRANCH  20  23
ATOM     23  CA  ALA A   1      -7.781  15.293  69.138  1.00  0.00    -0.200 C  
ATOM     24  CB  ALA A   1      -7.415  13.870  68.716  1.00  0.00    -0.114 C  
BRANCH  23  25
ATOM     25  C   ALA A   1      -6.570  16.231  69.013  1.00  0.00    -0.169 C  
ATOM     26  O   ALA A   1      -5.632  15.695  68.083  1.00  0.00    -0.103 OA 
ATOM     27  H   ALA A   1      -4.884  16.275  68.006  1.00  0.00     0.000 HD 
ENDBRANCH  23  25
ENDBRANCH  20  23
ENDBRANCH  15  19
TORSDOF 3
ENDMDL
MODEL       40
REMARK 921   NORMALIZED FREE ENERGY PREDICTED BY IDOCK:   -5.67 KCAL/MOL
REMARK 922        TOTAL FREE ENERGY PREDICTED BY IDOCK:   -7.11 KCAL/MOL
REMARK 923 INTER-LIGAND FREE ENERGY PREDICTED BY IDOCK:   -7.00 KCAL/MOL
REMARK 924 INTRA-LIGAND FREE ENERGY PREDICTED BY IDOCK:   -0.12 KCAL/MOL
REMARK 927      BINDING AFFINITY PREDICTED BY RF-SCORE:    0.00 PKD
ROOT
HETATM    1  C   UNK A   0     -10.145  10.247  66.806  1.00  0.00    -0.216 C  
HETATM    2  C   UNK A   0     -10.632  10.586  65.375  1.00  0.00    -0.143 C  
HETATM    3  C   UNK A   0     -11.305  11.915  65.441  1.00  0.00    -0.334 A  
HETATM    4  C   UNK A   0     -12.468  12.434  64.934  1.00  0.00    -0.361 A  
HETATM    5  N   UNK A   0     -12.512  13.765  65.286  1.00  0.00    -0.488 NA 
HETATM    6  C   UNK A   0     -11.412  14.097  66.052  1.00  0.00    -0.342 A  
HETATM    7  H   UNK A   0     -13.253  14.413  65.019  1.00  0.00     0.000 HD 
HETATM    8  C   UNK A   0     -10.965  15.299  66.606  1.00  0.00    -0.297 A  
HETATM    9  C   UNK A   0      -9.823  15.223  67.425  1.00  0.00    -0.217 A  
HETATM   10  C   UNK A   0      -9.231  13.991  67.771  1.00  0.00    -0.195 A  
HETATM   11  C   UNK A   0      -9.730  12.796  67.238  1.00  0.00    -0.206 A  
HETATM   12  C   UNK A   0     -10.745  12.910  66.273  1.00  0.00    -0.292 A  
HETATM   13  C   UNK A   0      -9.545  11.396  67.675  1.00  0.00    -0.176 C  
HETATM   14  C   UNK A   0      -9.259  11.073  68.948  1.00  0.00    -0.139 C  
HETATM   15  C   UNK A   0      -9.736   9.701  69.444  1.00  0.00    -0.203 C  
HETATM   16  C   UNK A   0      -7.988   9.094  66.485  1.00  0.00    -0.100 C  
HETATM   17  C   UNK A   0      -9.460   8.575  68.389  1.00  0.00    -0.135 C  
HETATM   18  N   UNK A   0      -9.368   8.995  66.964  1.00  0.00    -0.144 NA 
ENDROOT
BRANCH  15  19
HETATM   19  C   UNK A   0     -11.275   9.807  69.770  1.00  0.00    -0.202 C  
ATOM     20  N   ALA A   1     -11.814   8.680  70.377  1.00  0.00    -0.475 N  
ATOM     21  H   ALA A   1     -11.300   7.804  70.283  1.00  0.00     0.000 HD 
HETATM   22  O   UNK A   0     -11.962  10.780  69.503  1.00  0.00    -0.300 OA 
BRANCH  20  23
ATOM     23  CA  ALA A   1     -13.070   8.650  71.144  1.00  0.00    -0.047 C  
ATOM     24  CB  ALA A   1     -13.536   7.220  71.416  1.00  0.00    -0.400 C  
BRANCH  23  25
ATOM     25  C   ALA A   1     -13.058   9.479  72.438  1.00  0.00    -0.349 C  
ATOM     26  O   ALA A   1     -13.965   8.919  73.385  1.00  0.00    -1.236 OA 
ATOM     27  H   ALA A   1     -13.958   9.431  74.184  1.00  0.00     0.000 HD 
ENDBRANCH  23  25
ENDBRANCH  20  23
ENDBRANCH  15  19
TORSDOF 3
ENDMDL
MODEL       41
REMARK 921   NORMALIZED FREE ENERGY PREDICTED BY IDOCK:   -5.66 KCAL/MOL
REMARK 922        TOTAL FREE ENERGY PREDICTED BY IDOCK:   -7.10 KCAL/MOL
REMARK 923 INTER-LIGAND FREE ENERGY PREDICTED BY IDOCK:   -6.44 KCAL/MOL
REMARK 924 INTRA-LIGAND FREE ENERGY PREDICTED BY IDOCK:   -0.66 KCAL/MOL
REMARK 927      BINDING AFFINITY PREDICTED BY RF-SCORE:    0.00 PKD
ROOT
HETATM    1  C   UNK A   0      -8.828   7.368  70.194  1.00  0.00    -0.147 C  
HETATM    2  C   UNK A   0      -8.139   8.747  70.344  1.00  0.00    -0.118 C  
HETATM    3  C   UNK A   0      -9.142   9.785  69.970  1.00  0.00    -0.258 A  
HETATM    4  C   UNK A   0      -9.116  10.920  69.202  1.00  0.00    -0.042 A  
HETATM    5  N   UNK A   0     -10.358  11.508  69.294  1.00  0.00    -0.426 NA 
HETATM    6  C   UNK A   0     -11.197  10.741  70.078  1.00  0.00    -0.291 A  
HETATM    7  H   UNK A   0     -10.621  12.386  68.847  1.00  0.00     0.000 HD 
HETATM    8  C   UNK A   0     -12.512  10.912  70.516  1.00  0.00    -0.438 A  
HETATM    9  C   UNK A   0     -13.074   9.843  71.239  1.00  0.00    -0.487 A  
HETATM   10  C   UNK A   0     -12.400   8.616  71.406  1.00  0.00    -0.344 A  
HETATM   11  C   UNK A   0     -11.099   8.456  70.914  1.00  0.00    -0.289 A  
HETATM   12  C   UNK A   0     -10.485   9.596  70.368  1.00  0.00    -0.352 A  
HETATM   13  C   UNK A   0     -10.315   7.230  70.645  1.00  0.00    -0.213 C  
HETATM   14  C   UNK A   0     -10.900   6.051  70.374  1.00  0.00    -0.386 C  
HETATM   15  C   UNK A   0     -10.116   5.073  69.487  1.00  0.00    -0.301 C  
HETATM   16  C   UNK A   0      -7.932   6.007  72.044  1.00  0.00    -0.107 C  
HETATM   17  C   UNK A   0      -8.606   4.994  69.904  1.00  0.00    -0.098 C  
HETATM   18  N   UNK A   0      -8.035   6.182  70.595  1.00  0.00    -0.109 NA 
ENDROOT
BRANCH  15  19
HETATM   19  C   UNK A   0     -10.266   5.542  67.990  1.00  0.00    -0.181 C  
ATOM     20  N   ALA A   1      -9.178   5.240  67.179  1.00  0.00    -0.111 N  
ATOM     21  H   ALA A   1      -8.289   5.043  67.639  1.00  0.00     0.000 HD 
HETATM   22  O   UNK A   0     -11.238   6.141  67.558  1.00  0.00    -0.292 OA 
BRANCH  20  23
ATOM     23  CA  ALA A   1      -9.208   5.182  65.709  1.00  0.00    -0.156 C  
ATOM     24  CB  ALA A   1      -7.808   5.299  65.107  1.00  0.00    -0.093 C  
BRANCH  23  25
ATOM     25  C   ALA A   1      -9.958   3.975  65.123  1.00  0.00    -0.198 C  
ATOM     26  O   ALA A   1     -11.342   4.285  64.979  1.00  0.00    -0.996 OA 
ATOM     27  H   ALA A   1     -11.806   3.539  64.618  1.00  0.00     0.000 HD 
ENDBRANCH  23  25
ENDBRANCH  20  23
ENDBRANCH  15  19
TORSDOF 3
ENDMDL
MODEL       42
REMARK 921   NORMALIZED FREE ENERGY PREDICTED BY IDOCK:   -5.62 KCAL/MOL
REMARK 922        TOTAL FREE ENERGY PREDICTED BY IDOCK:   -7.05 KCAL/MOL
REMARK 923 INTER-LIGAND FREE ENERGY PREDICTED BY IDOCK:   -6.56 KCAL/MOL
REMARK 924 INTRA-LIGAND FREE ENERGY PREDICTED BY IDOCK:   -0.50 KCAL/MOL
REMARK 927      BINDING AFFINITY PREDICTED BY RF-SCORE:    0.00 PKD
ROOT
HETATM    1  C   UNK A   0     -11.069  13.510  69.086  1.00  0.00    -0.225 C  
HETATM    2  C   UNK A   0     -10.717  15.011  69.237  1.00  0.00    -0.250 C  
HETATM    3  C   UNK A   0     -10.326  15.510  67.887  1.00  0.00    -0.250 A  
HETATM    4  C   UNK A   0      -9.313  16.299  67.406  1.00  0.00    -0.221 A  
HETATM    5  N   UNK A   0      -9.526  16.463  66.055  1.00  0.00    -0.397 NA 
HETATM    6  C   UNK A   0     -10.641  15.753  65.654  1.00  0.00    -0.377 A  
HETATM    7  H   UNK A   0      -8.944  17.030  65.439  1.00  0.00     0.000 HD 
HETATM    8  C   UNK A   0     -11.300  15.629  64.429  1.00  0.00    -0.272 A  
HETATM    9  C   UNK A   0     -12.371  14.716  64.386  1.00  0.00    -0.420 A  
HETATM   10  C   UNK A   0     -12.686  13.880  65.476  1.00  0.00    -0.536 A  
HETATM   11  C   UNK A   0     -11.976  13.993  66.678  1.00  0.00    -0.473 A  
HETATM   12  C   UNK A   0     -11.043  15.041  66.764  1.00  0.00    -0.326 A  
HETATM   13  C   UNK A   0     -11.856  13.058  67.817  1.00  0.00    -0.395 C  
HETATM   14  C   UNK A   0     -12.021  11.731  67.676  1.00  0.00    -0.106 C  
HETATM   15  C   UNK A   0     -11.256  10.826  68.652  1.00  0.00    -0.333 C  
HETATM   16  C   UNK A   0     -12.957  13.144  70.631  1.00  0.00     0.080 C  
HETATM   17  C   UNK A   0     -11.338  11.359  70.124  1.00  0.00    -0.119 C  
HETATM   18  N   UNK A   0     -11.568  12.819  70.299  1.00  0.00    -0.535 NA 
ENDROOT
BRANCH  15  19
HETATM   19  C   UNK A   0      -9.760  10.736  68.164  1.00  0.00    -0.159 C  
ATOM     20  N   ALA A   1      -8.824  11.189  69.087  1.00  0.00    -0.384 N  
ATOM     21  H   ALA A   1      -9.157  11.804  69.830  1.00  0.00     0.000 HD 
HETATM   22  O   UNK A   0      -9.425  10.326  67.065  1.00  0.00    -0.159 OA 
BRANCH  20  23
ATOM     23  CA  ALA A   1      -7.392  10.851  69.077  1.00  0.00    -0.113 C  
ATOM     24  CB  ALA A   1      -6.552  11.955  68.436  1.00  0.00    -0.056 C  
BRANCH  23  25
ATOM     25  C   ALA A   1      -6.813  10.443  70.441  1.00  0.00    -0.065 C  
ATOM     26  O   ALA A   1      -6.140  11.550  71.036  1.00  0.00    -0.467 OA 
ATOM     27  H   ALA A   1      -5.782  11.298  71.879  1.00  0.00     0.000 HD 
ENDBRANCH  23  25
ENDBRANCH  20  23
ENDBRANCH  15  19
TORSDOF 3
ENDMDL
MODEL       43
REMARK 921   NORMALIZED FREE ENERGY PREDICTED BY IDOCK:   -5.58 KCAL/MOL
REMARK 922        TOTAL FREE ENERGY PREDICTED BY IDOCK:   -7.01 KCAL/MOL
REMARK 923 INTER-LIGAND FREE ENERGY PREDICTED BY IDOCK:   -6.69 KCAL/MOL
REMARK 924 INTRA-LIGAND FREE ENERGY PREDICTED BY IDOCK:   -0.32 KCAL/MOL
REMARK 927      BINDING AFFINITY PREDICTED BY RF-SCORE:    0.00 PKD
ROOT
HETATM    1  C   UNK A   0     -11.108  12.347  68.976  1.00  0.00    -0.235 C  
HETATM    2  C   UNK A   0     -11.474  13.822  69.279  1.00  0.00    -0.344 C  
HETATM    3  C   UNK A   0     -11.173  14.613  68.052  1.00  0.00    -0.307 A  
HETATM    4  C   UNK A   0     -10.558  15.813  67.804  1.00  0.00    -0.292 A  
HETATM    5  N   UNK A   0     -10.648  16.048  66.450  1.00  0.00    -0.305 NA 
HETATM    6  C   UNK A   0     -11.274  14.993  65.818  1.00  0.00    -0.318 A  
HETATM    7  H   UNK A   0     -10.300  16.884  65.980  1.00  0.00     0.000 HD 
HETATM    8  C   UNK A   0     -11.650  14.763  64.492  1.00  0.00    -0.366 A  
HETATM    9  C   UNK A   0     -12.195  13.497  64.207  1.00  0.00    -0.450 A  
HETATM   10  C   UNK A   0     -12.247  12.471  65.171  1.00  0.00    -0.509 A  
HETATM   11  C   UNK A   0     -11.819  12.714  66.482  1.00  0.00    -0.463 A  
HETATM   12  C   UNK A   0     -11.461  14.037  66.794  1.00  0.00    -0.379 A  
HETATM   13  C   UNK A   0     -11.446  11.776  67.563  1.00  0.00    -0.373 C  
HETATM   14  C   UNK A   0     -10.992  10.536  67.313  1.00  0.00    -0.325 C  
HETATM   15  C   UNK A   0     -10.039   9.921  68.347  1.00  0.00    -0.189 C  
HETATM   16  C   UNK A   0     -12.823  11.015  70.144  1.00  0.00    -0.047 C  
HETATM   17  C   UNK A   0     -10.535  10.170  69.813  1.00  0.00    -0.263 C  
HETATM   18  N   UNK A   0     -11.404  11.356  70.038  1.00  0.00    -0.474 NA 
ENDROOT
BRANCH  15  19
HETATM   19  C   UNK A   0      -8.607  10.540  68.120  1.00  0.00    -0.123 C  
ATOM     20  N   ALA A   1      -7.867   9.929  67.115  1.00  0.00    -0.099 N  
ATOM     21  H   ALA A   1      -8.145   8.989  66.833  1.00  0.00     0.000 HD 
HETATM   22  O   UNK A   0      -8.153  11.465  68.774  1.00  0.00    -0.145 OA 
BRANCH  20  23
ATOM     23  CA  ALA A   1      -6.715  10.532  66.426  1.00  0.00    -0.114 C  
ATOM     24  CB  ALA A   1      -5.397  10.191  67.119  1.00  0.00    -0.041 C  
BRANCH  23  25
ATOM     25  C   ALA A   1      -6.635  10.237  64.919  1.00  0.00    -0.105 C  
ATOM     26  O   ALA A   1      -5.591  11.006  64.327  1.00  0.00    -0.424 OA 
ATOM     27  H   ALA A   1      -5.542  10.825  63.396  1.00  0.00     0.000 HD 
ENDBRANCH  23  25
ENDBRANCH  20  23
ENDBRANCH  15  19
TORSDOF 3
ENDMDL
MODEL       44
REMARK 921   NORMALIZED FREE ENERGY PREDICTED BY IDOCK:   -5.56 KCAL/MOL
REMARK 922        TOTAL FREE ENERGY PREDICTED BY IDOCK:   -6.99 KCAL/MOL
REMARK 923 INTER-LIGAND FREE ENERGY PREDICTED BY IDOCK:   -6.57 KCAL/MOL
REMARK 924 INTRA-LIGAND FREE ENERGY PREDICTED BY IDOCK:   -0.41 KCAL/MOL
REMARK 927      BINDING AFFINITY PREDICTED BY RF-SCORE:    0.00 PKD
ROOT
HETATM    1  C   UNK A   0      -9.471  12.592  67.018  1.00  0.00    -0.217 C  
HETATM    2  C   UNK A   0      -8.013  12.085  67.151  1.00  0.00    -0.175 C  
HETATM    3  C   UNK A   0      -7.932  11.299  68.416  1.00  0.00    -0.140 A  
HETATM    4  C   UNK A   0      -7.043  11.234  69.456  1.00  0.00    -0.058 A  
HETATM    5  N   UNK A   0      -7.484  10.250  70.314  1.00  0.00    -0.405 NA 
HETATM    6  C   UNK A   0      -8.672   9.712  69.859  1.00  0.00    -0.219 A  
HETATM    7  H   UNK A   0      -7.002   9.961  71.164  1.00  0.00     0.000 HD 
HETATM    8  C   UNK A   0      -9.488   8.677  70.322  1.00  0.00    -0.182 A  
HETATM    9  C   UNK A   0     -10.697   8.478  69.630  1.00  0.00    -0.200 A  
HETATM   10  C   UNK A   0     -11.126   9.347  68.607  1.00  0.00     0.015 A  
HETATM   11  C   UNK A   0     -10.308  10.407  68.195  1.00  0.00    -0.202 A  
HETATM   12  C   UNK A   0      -9.024  10.471  68.763  1.00  0.00    -0.166 A  
HETATM   13  C   UNK A   0     -10.630  11.630  67.428  1.00  0.00    -0.257 C  
HETATM   14  C   UNK A   0     -11.863  12.164  67.414  1.00  0.00    -0.297 C  
HETATM   15  C   UNK A   0     -11.962  13.681  67.202  1.00  0.00    -0.434 C  
HETATM   16  C   UNK A   0      -9.964  12.480  64.604  1.00  0.00    -0.151 C  
HETATM   17  C   UNK A   0     -11.007  14.171  66.059  1.00  0.00    -0.304 C  
HETATM   18  N   UNK A   0      -9.806  13.337  65.781  1.00  0.00    -0.421 NA 
ENDROOT
BRANCH  15  19
HETATM   19  C   UNK A   0     -11.621  14.390  68.568  1.00  0.00    -0.314 C  
ATOM     20  N   ALA A   1     -12.622  14.303  69.528  1.00  0.00    -0.501 N  
ATOM     21  H   ALA A   1     -13.565  14.088  69.205  1.00  0.00     0.000 HD 
HETATM   22  O   UNK A   0     -10.580  14.990  68.783  1.00  0.00    -0.226 OA 
BRANCH  20  23
ATOM     23  CA  ALA A   1     -12.427  14.497  70.974  1.00  0.00    -0.341 C  
ATOM     24  CB  ALA A   1     -12.783  15.917  71.410  1.00  0.00    -0.403 C  
BRANCH  23  25
ATOM     25  C   ALA A   1     -13.126  13.458  71.866  1.00  0.00    -0.383 C  
ATOM     26  O   ALA A   1     -13.441  14.035  73.131  1.00  0.00    -0.593 OA 
ATOM     27  H   ALA A   1     -13.872  13.394  73.683  1.00  0.00     0.000 HD 
ENDBRANCH  23  25
ENDBRANCH  20  23
ENDBRANCH  15  19
TORSDOF 3
ENDMDL
MODEL       45
REMARK 921   NORMALIZED FREE ENERGY PREDICTED BY IDOCK:   -5.56 KCAL/MOL
REMARK 922        TOTAL FREE ENERGY PREDICTED BY IDOCK:   -6.98 KCAL/MOL
REMARK 923 INTER-LIGAND FREE ENERGY PREDICTED BY IDOCK:   -6.23 KCAL/MOL
REMARK 924 INTRA-LIGAND FREE ENERGY PREDICTED BY IDOCK:   -0.75 KCAL/MOL
REMARK 927      BINDING AFFINITY PREDICTED BY RF-SCORE:    0.00 PKD
ROOT
HETATM    1  C   UNK A   0     -10.320  10.210  69.974  1.00  0.00    -0.250 C  
HETATM    2  C   UNK A   0     -11.554  10.918  70.589  1.00  0.00    -0.341 C  
HETATM    3  C   UNK A   0     -11.787  12.163  69.802  1.00  0.00    -0.397 A  
HETATM    4  C   UNK A   0     -12.072  13.465  70.118  1.00  0.00    -0.344 A  
HETATM    5  N   UNK A   0     -12.246  14.148  68.934  1.00  0.00    -0.538 NA 
HETATM    6  C   UNK A   0     -12.032  13.308  67.859  1.00  0.00    -0.309 A  
HETATM    7  H   UNK A   0     -12.497  15.133  68.862  1.00  0.00     0.000 HD 
HETATM    8  C   UNK A   0     -12.129  13.487  66.477  1.00  0.00    -0.460 A  
HETATM    9  C   UNK A   0     -11.729  12.400  65.677  1.00  0.00    -0.468 A  
HETATM   10  C   UNK A   0     -11.146  11.240  66.227  1.00  0.00    -0.229 A  
HETATM   11  C   UNK A   0     -11.017  11.108  67.615  1.00  0.00    -0.323 A  
HETATM   12  C   UNK A   0     -11.598  12.117  68.402  1.00  0.00    -0.381 A  
HETATM   13  C   UNK A   0     -10.168  10.205  68.421  1.00  0.00    -0.192 C  
HETATM   14  C   UNK A   0      -9.018   9.691  67.951  1.00  0.00    -0.120 C  
HETATM   15  C   UNK A   0      -7.928   9.366  68.981  1.00  0.00    -0.091 C  
HETATM   16  C   UNK A   0     -10.827   7.802  70.133  1.00  0.00    -0.244 C  
HETATM   17  C   UNK A   0      -8.516   8.646  70.243  1.00  0.00    -0.132 C  
HETATM   18  N   UNK A   0      -9.950   8.897  70.553  1.00  0.00    -0.189 NA 
ENDROOT
BRANCH  15  19
HETATM   19  C   UNK A   0      -7.214  10.714  69.379  1.00  0.00    -0.126 C  
ATOM     20  N   ALA A   1      -7.053  11.613  68.332  1.00  0.00    -0.077 N  
ATOM     21  H   ALA A   1      -7.106  11.243  67.383  1.00  0.00     0.000 HD 
HETATM   22  O   UNK A   0      -6.809  10.964  70.504  1.00  0.00    -0.241 OA 
BRANCH  20  23
ATOM     23  CA  ALA A   1      -6.812  13.057  68.484  1.00  0.00    -0.095 C  
ATOM     24  CB  ALA A   1      -5.332  13.405  68.338  1.00  0.00    -0.093 C  
BRANCH  23  25
ATOM     25  C   ALA A   1      -7.679  13.957  67.588  1.00  0.00    -0.184 C  
ATOM     26  O   ALA A   1      -8.303  13.176  66.571  1.00  0.00    -0.404 OA 
ATOM     27  H   ALA A   1      -8.838  13.731  66.017  1.00  0.00     0.000 HD 
ENDBRANCH  23  25
ENDBRANCH  20  23
ENDBRANCH  15  19
TORSDOF 3
ENDMDL
MODEL       46
REMARK 921   NORMALIZED FREE ENERGY PREDICTED BY IDOCK:   -5.55 KCAL/MOL
REMARK 922        TOTAL FREE ENERGY PREDICTED BY IDOCK:   -6.97 KCAL/MOL
REMARK 923 INTER-LIGAND FREE ENERGY PREDICTED BY IDOCK:   -6.69 KCAL/MOL
REMARK 924 INTRA-LIGAND FREE ENERGY PREDICTED BY IDOCK:   -0.29 KCAL/MOL
REMARK 927      BINDING AFFINITY PREDICTED BY RF-SCORE:    0.00 PKD
ROOT
HETATM    1  C   UNK A   0      -8.530  10.915  66.956  1.00  0.00    -0.134 C  
HETATM    2  C   UNK A   0      -7.962  11.048  65.521  1.00  0.00     0.086 C  
HETATM    3  C   UNK A   0      -9.122  11.042  64.584  1.00  0.00    -0.138 A  
HETATM    4  C   UNK A   0      -9.399  10.421  63.394  1.00  0.00    -0.300 A  
HETATM    5  N   UNK A   0     -10.629  10.872  62.971  1.00  0.00    -0.764 NA 
HETATM    6  C   UNK A   0     -11.168  11.743  63.897  1.00  0.00    -0.414 A  
HETATM    7  H   UNK A   0     -11.079  10.601  62.097  1.00  0.00     0.000 HD 
HETATM    8  C   UNK A   0     -12.342  12.499  63.924  1.00  0.00    -0.576 A  
HETATM    9  C   UNK A   0     -12.600  13.211  65.110  1.00  0.00    -0.525 A  
HETATM   10  C   UNK A   0     -11.790  13.076  66.255  1.00  0.00    -0.466 A  
HETATM   11  C   UNK A   0     -10.644  12.272  66.216  1.00  0.00    -0.282 A  
HETATM   12  C   UNK A   0     -10.298  11.726  64.967  1.00  0.00    -0.325 A  
HETATM   13  C   UNK A   0      -9.837  11.691  67.310  1.00  0.00    -0.203 C  
HETATM   14  C   UNK A   0     -10.354  11.437  68.525  1.00  0.00    -0.219 C  
HETATM   15  C   UNK A   0      -9.725  10.287  69.323  1.00  0.00    -0.240 C  
HETATM   16  C   UNK A   0      -7.073  12.335  68.349  1.00  0.00    -0.094 C  
HETATM   17  C   UNK A   0      -8.159  10.320  69.254  1.00  0.00    -0.155 C  
HETATM   18  N   UNK A   0      -7.552  10.981  68.068  1.00  0.00    -0.090 NA 
ENDROOT
BRANCH  15  19
HETATM   19  C   UNK A   0     -10.289   8.930  68.752  1.00  0.00    -0.211 C  
ATOM     20  N   ALA A   1      -9.696   7.790  69.281  1.00  0.00    -0.164 N  
ATOM     21  H   ALA A   1      -8.784   7.899  69.726  1.00  0.00     0.000 HD 
HETATM   22  O   UNK A   0     -11.160   8.859  67.899  1.00  0.00     0.000 OA 
BRANCH  20  23
ATOM     23  CA  ALA A   1     -10.279   6.440  69.251  1.00  0.00    -0.192 C  
ATOM     24  CB  ALA A   1     -11.614   6.380  69.990  1.00  0.00    -0.446 C  
BRANCH  23  25
ATOM     25  C   ALA A   1     -10.399   5.818  67.850  1.00  0.00    -0.214 C  
ATOM     26  O   ALA A   1     -11.597   6.265  67.219  1.00  0.00    -0.621 OA 
ATOM     27  H   ALA A   1     -11.672   5.881  66.354  1.00  0.00     0.000 HD 
ENDBRANCH  23  25
ENDBRANCH  20  23
ENDBRANCH  15  19
TORSDOF 3
ENDMDL
MODEL       47
REMARK 921   NORMALIZED FREE ENERGY PREDICTED BY IDOCK:   -5.49 KCAL/MOL
REMARK 922        TOTAL FREE ENERGY PREDICTED BY IDOCK:   -6.90 KCAL/MOL
REMARK 923 INTER-LIGAND FREE ENERGY PREDICTED BY IDOCK:   -6.06 KCAL/MOL
REMARK 924 INTRA-LIGAND FREE ENERGY PREDICTED BY IDOCK:   -0.84 KCAL/MOL
REMARK 927      BINDING AFFINITY PREDICTED BY RF-SCORE:    0.00 PKD
ROOT
HETATM    1  C   UNK A   0     -11.252   7.380  69.991  1.00  0.00    -0.180 C  
HETATM    2  C   UNK A   0     -11.032   6.253  68.951  1.00  0.00    -0.435 C  
HETATM    3  C   UNK A   0      -9.806   6.600  68.176  1.00  0.00    -0.135 A  
HETATM    4  C   UNK A   0      -9.468   6.589  66.848  1.00  0.00    -0.152 A  
HETATM    5  N   UNK A   0      -8.144   6.959  66.757  1.00  0.00    -0.108 NA 
HETATM    6  C   UNK A   0      -7.639   7.251  68.008  1.00  0.00    -0.115 A  
HETATM    7  H   UNK A   0      -7.613   7.011  65.888  1.00  0.00     0.000 HD 
HETATM    8  C   UNK A   0      -6.369   7.617  68.461  1.00  0.00    -0.044 A  
HETATM    9  C   UNK A   0      -6.260   7.933  69.828  1.00  0.00    -0.026 A  
HETATM   10  C   UNK A   0      -7.387   8.000  70.673  1.00  0.00    -0.056 A  
HETATM   11  C   UNK A   0      -8.657   7.674  70.180  1.00  0.00    -0.140 A  
HETATM   12  C   UNK A   0      -8.715   7.175  68.867  1.00  0.00    -0.128 A  
HETATM   13  C   UNK A   0     -10.003   7.976  70.712  1.00  0.00    -0.202 C  
HETATM   14  C   UNK A   0     -10.239   9.035  71.505  1.00  0.00    -0.414 C  
HETATM   15  C   UNK A   0     -11.646   9.647  71.450  1.00  0.00    -0.472 C  
HETATM   16  C   UNK A   0     -12.109   6.232  71.998  1.00  0.00    -0.266 C  
HETATM   17  C   UNK A   0     -12.760   8.543  71.455  1.00  0.00    -0.313 C  
HETATM   18  N   UNK A   0     -12.380   7.202  70.936  1.00  0.00    -0.527 NA 
ENDROOT
BRANCH  15  19
HETATM   19  C   UNK A   0     -11.740  10.541  70.155  1.00  0.00    -0.326 C  
ATOM     20  N   ALA A   1     -10.544  11.138  69.778  1.00  0.00    -0.455 N  
ATOM     21  H   ALA A   1      -9.816  11.220  70.488  1.00  0.00     0.000 HD 
HETATM   22  O   UNK A   0     -12.772  10.725  69.528  1.00  0.00    -0.257 OA 
BRANCH  20  23
ATOM     23  CA  ALA A   1     -10.245  11.663  68.436  1.00  0.00    -0.207 C  
ATOM     24  CB  ALA A   1     -10.168  10.548  67.394  1.00  0.00    -0.253 C  
BRANCH  23  25
ATOM     25  C   ALA A   1     -11.171  12.795  67.962  1.00  0.00    -0.270 C  
ATOM     26  O   ALA A   1     -12.139  12.283  67.049  1.00  0.00    -0.575 OA 
ATOM     27  H   ALA A   1     -12.711  12.981  66.756  1.00  0.00     0.000 HD 
ENDBRANCH  23  25
ENDBRANCH  20  23
ENDBRANCH  15  19
TORSDOF 3
ENDMDL
MODEL       48
REMARK 921   NORMALIZED FREE ENERGY PREDICTED BY IDOCK:   -5.49 KCAL/MOL
REMARK 922        TOTAL FREE ENERGY PREDICTED BY IDOCK:   -6.90 KCAL/MOL
REMARK 923 INTER-LIGAND FREE ENERGY PREDICTED BY IDOCK:   -6.33 KCAL/MOL
REMARK 924 INTRA-LIGAND FREE ENERGY PREDICTED BY IDOCK:   -0.56 KCAL/MOL
REMARK 927      BINDING AFFINITY PREDICTED BY RF-SCORE:    0.00 PKD
ROOT
HETATM    1  C   UNK A   0     -11.392  13.137  67.162  1.00  0.00    -0.316 C  
HETATM    2  C   UNK A   0     -12.407  14.217  67.612  1.00  0.00    -0.061 C  
HETATM    3  C   UNK A   0     -11.658  15.218  68.423  1.00  0.00    -0.365 A  
HETATM    4  C   UNK A   0     -11.888  15.868  69.608  1.00  0.00    -0.290 A  
HETATM    5  N   UNK A   0     -10.841  16.740  69.810  1.00  0.00    -0.375 NA 
HETATM    6  C   UNK A   0      -9.917  16.626  68.789  1.00  0.00    -0.265 A  
HETATM    7  H   UNK A   0     -10.759  17.378  70.600  1.00  0.00     0.000 HD 
HETATM    8  C   UNK A   0      -8.730  17.304  68.499  1.00  0.00    -0.273 A  
HETATM    9  C   UNK A   0      -7.994  16.831  67.397  1.00  0.00    -0.191 A  
HETATM   10  C   UNK A   0      -8.362  15.665  66.696  1.00  0.00    -0.310 A  
HETATM   11  C   UNK A   0      -9.533  14.977  67.040  1.00  0.00    -0.240 A  
HETATM   12  C   UNK A   0     -10.353  15.573  68.013  1.00  0.00    -0.247 A  
HETATM   13  C   UNK A   0      -9.965  13.597  66.730  1.00  0.00    -0.270 C  
HETATM   14  C   UNK A   0      -9.088  12.611  66.474  1.00  0.00    -0.163 C  
HETATM   15  C   UNK A   0      -9.524  11.183  66.827  1.00  0.00    -0.203 C  
HETATM   16  C   UNK A   0     -12.098  12.513  64.883  1.00  0.00    -0.440 C  
HETATM   17  C   UNK A   0     -11.000  10.899  66.383  1.00  0.00    -0.088 C  
HETATM   18  N   UNK A   0     -11.905  12.074  66.266  1.00  0.00    -0.574 NA 
ENDROOT
BRANCH  15  19
HETATM   19  C   UNK A   0      -9.353  10.990  68.383  1.00  0.00    -0.179 C  
ATOM     20  N   ALA A   1     -10.475  10.484  69.028  1.00  0.00    -0.203 N  
ATOM     21  H   ALA A   1     -11.372  10.571  68.548  1.00  0.00     0.000 HD 
HETATM   22  O   UNK A   0      -8.337  11.274  68.997  1.00  0.00    -0.114 OA 
BRANCH  20  23
ATOM     23  CA  ALA A   1     -10.473   9.834  70.348  1.00  0.00    -0.297 C  
ATOM     24  CB  ALA A   1     -11.824   9.966  71.049  1.00  0.00    -0.463 C  
BRANCH  23  25
ATOM     25  C   ALA A   1      -9.994   8.373  70.349  1.00  0.00    -0.185 C  
ATOM     26  O   ALA A   1     -10.575   7.668  69.255  1.00  0.00    -0.221 OA 
ATOM     27  H   ALA A   1     -10.280   6.766  69.256  1.00  0.00     0.000 HD 
ENDBRANCH  23  25
ENDBRANCH  20  23
ENDBRANCH  15  19
TORSDOF 3
ENDMDL
MODEL       49
REMARK 921   NORMALIZED FREE ENERGY PREDICTED BY IDOCK:   -5.48 KCAL/MOL
REMARK 922        TOTAL FREE ENERGY PREDICTED BY IDOCK:   -6.89 KCAL/MOL
REMARK 923 INTER-LIGAND FREE ENERGY PREDICTED BY IDOCK:   -6.19 KCAL/MOL
REMARK 924 INTRA-LIGAND FREE ENERGY PREDICTED BY IDOCK:   -0.70 KCAL/MOL
REMARK 927      BINDING AFFINITY PREDICTED BY RF-SCORE:    0.00 PKD
ROOT
HETATM    1  C   UNK A   0      -9.318  13.919  68.204  1.00  0.00    -0.203 C  
HETATM    2  C   UNK A   0      -7.811  13.563  68.258  1.00  0.00    -0.145 C  
HETATM    3  C   UNK A   0      -7.706  12.077  68.190  1.00  0.00    -0.135 A  
HETATM    4  C   UNK A   0      -6.979  11.129  68.863  1.00  0.00    -0.095 A  
HETATM    5  N   UNK A   0      -7.269   9.908  68.294  1.00  0.00    -0.077 NA 
HETATM    6  C   UNK A   0      -8.207  10.055  67.292  1.00  0.00    -0.117 A  
HETATM    7  H   UNK A   0      -6.849   9.022  68.574  1.00  0.00     0.000 HD 
HETATM    8  C   UNK A   0      -8.788   9.158  66.393  1.00  0.00    -0.165 A  
HETATM    9  C   UNK A   0      -9.801   9.673  65.562  1.00  0.00    -0.352 A  
HETATM   10  C   UNK A   0     -10.293  10.986  65.709  1.00  0.00    -0.316 A  
HETATM   11  C   UNK A   0      -9.723  11.850  66.652  1.00  0.00    -0.220 A  
HETATM   12  C   UNK A   0      -8.588  11.380  67.334  1.00  0.00    -0.142 A  
HETATM   13  C   UNK A   0     -10.238  13.104  67.244  1.00  0.00    -0.243 C  
HETATM   14  C   UNK A   0     -11.553  13.368  67.333  1.00  0.00    -0.394 C  
HETATM   15  C   UNK A   0     -12.004  14.273  68.488  1.00  0.00    -0.352 C  
HETATM   16  C   UNK A   0      -9.432  15.994  66.876  1.00  0.00    -0.226 C  
HETATM   17  C   UNK A   0     -11.059  15.511  68.660  1.00  0.00    -0.297 C  
HETATM   18  N   UNK A   0      -9.659  15.361  68.176  1.00  0.00    -0.202 NA 
ENDROOT
BRANCH  15  19
HETATM   19  C   UNK A   0     -12.045  13.404  69.802  1.00  0.00    -0.310 C  
ATOM     20  N   ALA A   1     -12.108  12.033  69.586  1.00  0.00    -0.264 N  
ATOM     21  H   ALA A   1     -12.429  11.716  68.671  1.00  0.00     0.000 HD 
HETATM   22  O   UNK A   0     -12.042  13.873  70.930  1.00  0.00    -0.340 OA 
BRANCH  20  23
ATOM     23  CA  ALA A   1     -11.750  11.002  70.573  1.00  0.00    -0.318 C  
ATOM     24  CB  ALA A   1     -12.951  10.582  71.419  1.00  0.00    -0.542 C  
BRANCH  23  25
ATOM     25  C   ALA A   1     -11.030   9.773  69.994  1.00  0.00    -0.277 C  
ATOM     26  O   ALA A   1     -11.502   9.508  68.675  1.00  0.00    -0.452 OA 
ATOM     27  H   ALA A   1     -11.058   8.749  68.317  1.00  0.00     0.000 HD 
ENDBRANCH  23  25
ENDBRANCH  20  23
ENDBRANCH  15  19
TORSDOF 3
ENDMDL
MODEL       50
REMARK 921   NORMALIZED FREE ENERGY PREDICTED BY IDOCK:   -5.44 KCAL/MOL
REMARK 922        TOTAL FREE ENERGY PREDICTED BY IDOCK:   -6.84 KCAL/MOL
REMARK 923 INTER-LIGAND FREE ENERGY PREDICTED BY IDOCK:   -6.36 KCAL/MOL
REMARK 924 INTRA-LIGAND FREE ENERGY PREDICTED BY IDOCK:   -0.48 KCAL/MOL
REMARK 927      BINDING AFFINITY PREDICTED BY RF-SCORE:    0.00 PKD
ROOT
HETATM    1  C   UNK A   0     -10.722  12.902  66.337  1.00  0.00    -0.270 C  
HETATM    2  C   UNK A   0     -11.023  11.523  65.699  1.00  0.00    -0.296 C  
HETATM    3  C   UNK A   0     -10.715  10.485  66.724  1.00  0.00    -0.252 A  
HETATM    4  C   UNK A   0     -10.058   9.282  66.714  1.00  0.00    -0.261 A  
HETATM    5  N   UNK A   0     -10.165   8.744  67.977  1.00  0.00    -0.204 NA 
HETATM    6  C   UNK A   0     -10.845   9.607  68.812  1.00  0.00    -0.168 A  
HETATM    7  H   UNK A   0      -9.794   7.836  68.256  1.00  0.00     0.000 HD 
HETATM    8  C   UNK A   0     -11.256   9.518  70.145  1.00  0.00    -0.275 A  
HETATM    9  C   UNK A   0     -11.856  10.668  70.692  1.00  0.00    -0.463 A  
HETATM   10  C   UNK A   0     -11.930  11.883  69.982  1.00  0.00    -0.409 A  
HETATM   11  C   UNK A   0     -11.467  11.957  68.662  1.00  0.00    -0.350 A  
HETATM   12  C   UNK A   0     -11.051  10.752  68.071  1.00  0.00    -0.359 A  
HETATM   13  C   UNK A   0     -11.110  13.127  67.831  1.00  0.00    -0.288 C  
HETATM   14  C   UNK A   0     -10.711  14.293  68.367  1.00  0.00    -0.257 C  
HETATM   15  C   UNK A   0      -9.763  15.158  67.525  1.00  0.00    -0.205 C  
HETATM   16  C   UNK A   0     -12.465  14.404  65.450  1.00  0.00    -0.350 C  
HETATM   17  C   UNK A   0     -10.219  15.231  66.027  1.00  0.00    -0.317 C  
HETATM   18  N   UNK A   0     -11.035  14.096  65.517  1.00  0.00    -0.300 NA 
ENDROOT
BRANCH  15  19
HETATM   19  C   UNK A   0      -8.312  14.554  67.647  1.00  0.00    -0.180 C  
ATOM     20  N   ALA A   1      -8.163  13.610  68.656  1.00  0.00    -0.296 N  
ATOM     21  H   ALA A   1      -8.857  13.608  69.403  1.00  0.00     0.000 HD 
HETATM   22  O   UNK A   0      -7.374  14.886  66.939  1.00  0.00    -0.067 OA 
BRANCH  20  23
ATOM     23  CA  ALA A   1      -7.082  12.614  68.731  1.00  0.00    -0.087 C  
ATOM     24  CB  ALA A   1      -6.014  13.009  69.749  1.00  0.00    -0.130 C  
BRANCH  23  25
ATOM     25  C   ALA A   1      -7.549  11.167  68.959  1.00  0.00    -0.119 C  
ATOM     26  O   ALA A   1      -7.323  10.790  70.315  1.00  0.00    -0.452 OA 
ATOM     27  H   ALA A   1      -7.611   9.897  70.457  1.00  0.00     0.000 HD 
ENDBRANCH  23  25
ENDBRANCH  20  23
ENDBRANCH  15  19
TORSDOF 3
ENDMDL
MODEL       51
REMARK 921   NORMALIZED FREE ENERGY PREDICTED BY IDOCK:   -5.42 KCAL/MOL
REMARK 922        TOTAL FREE ENERGY PREDICTED BY IDOCK:   -6.82 KCAL/MOL
REMARK 923 INTER-LIGAND FREE ENERGY PREDICTED BY IDOCK:   -6.30 KCAL/MOL
REMARK 924 INTRA-LIGAND FREE ENERGY PREDICTED BY IDOCK:   -0.52 KCAL/MOL
REMARK 927      BINDING AFFINITY PREDICTED BY RF-SCORE:    0.00 PKD
ROOT
HETATM    1  C   UNK A   0     -10.274   8.101  67.756  1.00  0.00    -0.228 C  
HETATM    2  C   UNK A   0     -10.460   8.942  66.468  1.00  0.00    -0.175 C  
HETATM    3  C   UNK A   0      -9.418  10.008  66.482  1.00  0.00    -0.222 A  
HETATM    4  C   UNK A   0      -9.409  11.353  66.218  1.00  0.00    -0.212 A  
HETATM    5  N   UNK A   0      -8.107  11.787  66.338  1.00  0.00    -0.374 NA 
HETATM    6  C   UNK A   0      -7.285  10.745  66.719  1.00  0.00    -0.128 A  
HETATM    7  H   UNK A   0      -7.795  12.743  66.169  1.00  0.00     0.000 HD 
HETATM    8  C   UNK A   0      -5.907  10.644  66.923  1.00  0.00    -0.062 A  
HETATM    9  C   UNK A   0      -5.436   9.412  67.412  1.00  0.00    -0.037 A  
HETATM   10  C   UNK A   0      -6.311   8.375  67.795  1.00  0.00    -0.053 A  
HETATM   11  C   UNK A   0      -7.693   8.521  67.623  1.00  0.00    -0.102 A  
HETATM   12  C   UNK A   0      -8.128   9.679  66.955  1.00  0.00    -0.113 A  
HETATM   13  C   UNK A   0      -8.822   7.781  68.227  1.00  0.00    -0.129 C  
HETATM   14  C   UNK A   0      -8.719   7.161  69.416  1.00  0.00    -0.134 C  
HETATM   15  C   UNK A   0     -10.003   7.028  70.246  1.00  0.00    -0.186 C  
HETATM   16  C   UNK A   0     -10.778   5.784  67.078  1.00  0.00    -0.289 C  
HETATM   17  C   UNK A   0     -11.222   6.587  69.363  1.00  0.00    -0.356 C  
HETATM   18  N   UNK A   0     -11.160   6.923  67.915  1.00  0.00    -0.531 NA 
ENDROOT
BRANCH  15  19
HETATM   19  C   UNK A   0     -10.281   8.414  70.943  1.00  0.00    -0.194 C  
ATOM     20  N   ALA A   1     -11.517   8.974  70.642  1.00  0.00    -0.295 N  
ATOM     21  H   ALA A   1     -11.992   8.641  69.803  1.00  0.00     0.000 HD 
HETATM   22  O   UNK A   0      -9.485   8.981  71.675  1.00  0.00    -0.282 OA 
BRANCH  20  23
ATOM     23  CA  ALA A   1     -12.195  10.009  71.439  1.00  0.00    -0.416 C  
ATOM     24  CB  ALA A   1     -12.293  11.334  70.684  1.00  0.00    -0.477 C  
BRANCH  23  25
ATOM     25  C   ALA A   1     -13.563   9.598  72.006  1.00  0.00    -0.385 C  
ATOM     26  O   ALA A   1     -13.387   8.765  73.150  1.00  0.00    -0.918 OA 
ATOM     27  H   ALA A   1     -14.232   8.510  73.500  1.00  0.00     0.000 HD 
ENDBRANCH  23  25
ENDBRANCH  20  23
ENDBRANCH  15  19
TORSDOF 3
ENDMDL
MODEL       52
REMARK 921   NORMALIZED FREE ENERGY PREDICTED BY IDOCK:   -5.40 KCAL/MOL
REMARK 922        TOTAL FREE ENERGY PREDICTED BY IDOCK:   -6.79 KCAL/MOL
REMARK 923 INTER-LIGAND FREE ENERGY PREDICTED BY IDOCK:   -6.48 KCAL/MOL
REMARK 924 INTRA-LIGAND FREE ENERGY PREDICTED BY IDOCK:   -0.31 KCAL/MOL
REMARK 927      BINDING AFFINITY PREDICTED BY RF-SCORE:    0.00 PKD
ROOT
HETATM    1  C   UNK A   0      -9.658  14.253  67.569  1.00  0.00    -0.216 C  
HETATM    2  C   UNK A   0      -8.294  14.983  67.654  1.00  0.00    -0.175 C  
HETATM    3  C   UNK A   0      -7.464  14.255  68.655  1.00  0.00    -0.127 A  
HETATM    4  C   UNK A   0      -6.654  14.631  69.695  1.00  0.00    -0.155 A  
HETATM    5  N   UNK A   0      -6.096  13.485  70.217  1.00  0.00    -0.285 NA 
HETATM    6  C   UNK A   0      -6.572  12.372  69.554  1.00  0.00    -0.048 A  
HETATM    7  H   UNK A   0      -5.425  13.463  70.985  1.00  0.00     0.000 HD 
HETATM    8  C   UNK A   0      -6.291  11.008  69.659  1.00  0.00    -0.106 A  
HETATM    9  C   UNK A   0      -7.067  10.147  68.860  1.00  0.00    -0.069 A  
HETATM   10  C   UNK A   0      -8.150  10.614  68.089  1.00  0.00    -0.114 A  
HETATM   11  C   UNK A   0      -8.440  11.984  68.040  1.00  0.00    -0.168 A  
HETATM   12  C   UNK A   0      -7.537  12.844  68.688  1.00  0.00    -0.085 A  
HETATM   13  C   UNK A   0      -9.667  12.694  67.619  1.00  0.00    -0.197 C  
HETATM   14  C   UNK A   0     -10.881  12.120  67.672  1.00  0.00    -0.272 C  
HETATM   15  C   UNK A   0     -12.083  13.052  67.878  1.00  0.00    -0.234 C  
HETATM   16  C   UNK A   0     -10.297  14.379  65.190  1.00  0.00    -0.421 C  
HETATM   17  C   UNK A   0     -11.986  14.334  66.981  1.00  0.00    -0.433 C  
HETATM   18  N   UNK A   0     -10.623  14.762  66.565  1.00  0.00    -0.293 NA 
ENDROOT
BRANCH  15  19
HETATM   19  C   UNK A   0     -12.149  13.434  69.406  1.00  0.00    -0.269 C  
ATOM     20  N   ALA A   1     -12.351  14.786  69.655  1.00  0.00    -0.517 N  
ATOM     21  H   ALA A   1     -12.134  15.439  68.902  1.00  0.00     0.000 HD 
HETATM   22  O   UNK A   0     -12.016  12.630  70.316  1.00  0.00    -0.348 OA 
BRANCH  20  23
ATOM     23  CA  ALA A   1     -12.853  15.350  70.918  1.00  0.00    -0.476 C  
ATOM     24  CB  ALA A   1     -14.182  14.721  71.333  1.00  0.00    -0.514 C  
BRANCH  23  25
ATOM     25  C   ALA A   1     -11.849  15.326  72.082  1.00  0.00    -0.439 C  
ATOM     26  O   ALA A   1     -12.086  16.429  72.953  1.00  0.00    -0.516 OA 
ATOM     27  H   ALA A   1     -11.466  16.415  73.672  1.00  0.00     0.000 HD 
ENDBRANCH  23  25
ENDBRANCH  20  23
ENDBRANCH  15  19
TORSDOF 3
ENDMDL
MODEL       53
REMARK 921   NORMALIZED FREE ENERGY PREDICTED BY IDOCK:   -5.39 KCAL/MOL
REMARK 922        TOTAL FREE ENERGY PREDICTED BY IDOCK:   -6.78 KCAL/MOL
REMARK 923 INTER-LIGAND FREE ENERGY PREDICTED BY IDOCK:   -5.93 KCAL/MOL
REMARK 924 INTRA-LIGAND FREE ENERGY PREDICTED BY IDOCK:   -0.86 KCAL/MOL
REMARK 927      BINDING AFFINITY PREDICTED BY RF-SCORE:    0.00 PKD
ROOT
HETATM    1  C   UNK A   0      -8.884   6.155  68.812  1.00  0.00    -0.121 C  
HETATM    2  C   UNK A   0      -7.977   6.107  70.067  1.00  0.00    -0.111 C  
HETATM    3  C   UNK A   0      -8.524   7.090  71.045  1.00  0.00    -0.133 A  
HETATM    4  C   UNK A   0      -7.978   8.050  71.857  1.00  0.00    -0.115 A  
HETATM    5  N   UNK A   0      -9.004   8.598  72.595  1.00  0.00    -0.375 NA 
HETATM    6  C   UNK A   0     -10.211   8.033  72.234  1.00  0.00    -0.260 A  
HETATM    7  H   UNK A   0      -8.888   9.320  73.306  1.00  0.00     0.000 HD 
HETATM    8  C   UNK A   0     -11.517   8.195  72.703  1.00  0.00    -0.454 A  
HETATM    9  C   UNK A   0     -12.522   7.500  72.005  1.00  0.00    -0.289 A  
HETATM   10  C   UNK A   0     -12.252   6.779  70.825  1.00  0.00    -0.353 A  
HETATM   11  C   UNK A   0     -10.938   6.671  70.351  1.00  0.00    -0.341 A  
HETATM   12  C   UNK A   0      -9.927   7.208  71.166  1.00  0.00    -0.187 A  
HETATM   13  C   UNK A   0     -10.424   6.294  69.017  1.00  0.00    -0.287 C  
HETATM   14  C   UNK A   0     -11.148   6.460  67.896  1.00  0.00    -0.370 C  
HETATM   15  C   UNK A   0     -10.370   6.694  66.593  1.00  0.00    -0.215 C  
HETATM   16  C   UNK A   0      -8.998   3.821  68.023  1.00  0.00    -0.126 C  
HETATM   17  C   UNK A   0      -9.148   5.721  66.464  1.00  0.00    -0.141 C  
HETATM   18  N   UNK A   0      -8.573   5.191  67.730  1.00  0.00    -0.104 NA 
ENDROOT
BRANCH  15  19
HETATM   19  C   UNK A   0      -9.901   8.198  66.566  1.00  0.00    -0.239 C  
ATOM     20  N   ALA A   1     -10.786   9.089  67.162  1.00  0.00    -0.343 N  
ATOM     21  H   ALA A   1     -11.753   8.784  67.277  1.00  0.00     0.000 HD 
HETATM   22  O   UNK A   0      -8.861   8.579  66.053  1.00  0.00    -0.153 OA 
BRANCH  20  23
ATOM     23  CA  ALA A   1     -10.439  10.437  67.639  1.00  0.00    -0.233 C  
ATOM     24  CB  ALA A   1     -11.227  11.520  66.904  1.00  0.00    -0.363 C  
BRANCH  23  25
ATOM     25  C   ALA A   1     -10.531  10.629  69.162  1.00  0.00    -0.222 C  
ATOM     26  O   ALA A   1      -9.261  10.390  69.761  1.00  0.00    -0.393 OA 
ATOM     27  H   ALA A   1      -9.317  10.508  70.702  1.00  0.00     0.000 HD 
ENDBRANCH  23  25
ENDBRANCH  20  23
ENDBRANCH  15  19
TORSDOF 3
ENDMDL
MODEL       54
REMARK 921   NORMALIZED FREE ENERGY PREDICTED BY IDOCK:   -5.34 KCAL/MOL
REMARK 922        TOTAL FREE ENERGY PREDICTED BY IDOCK:   -6.72 KCAL/MOL
REMARK 923 INTER-LIGAND FREE ENERGY PREDICTED BY IDOCK:   -6.22 KCAL/MOL
REMARK 924 INTRA-LIGAND FREE ENERGY PREDICTED BY IDOCK:   -0.51 KCAL/MOL
REMARK 927      BINDING AFFINITY PREDICTED BY RF-SCORE:    0.00 PKD
ROOT
HETATM    1  C   UNK A   0      -8.385   9.663  66.476  1.00  0.00    -0.120 C  
HETATM    2  C   UNK A   0      -7.694  10.242  65.216  1.00  0.00    -0.144 C  
HETATM    3  C   UNK A   0      -8.764  10.536  64.220  1.00  0.00    -0.184 A  
HETATM    4  C   UNK A   0      -8.916  10.324  62.875  1.00  0.00    -0.249 A  
HETATM    5  N   UNK A   0     -10.115  10.890  62.501  1.00  0.00    -0.710 NA 
HETATM    6  C   UNK A   0     -10.758  11.425  63.601  1.00  0.00    -0.401 A  
HETATM    7  H   UNK A   0     -10.477  10.911  61.548  1.00  0.00     0.000 HD 
HETATM    8  C   UNK A   0     -11.949  12.138  63.754  1.00  0.00    -0.607 A  
HETATM    9  C   UNK A   0     -12.331  12.439  65.074  1.00  0.00    -0.441 A  
HETATM   10  C   UNK A   0     -11.624  11.946  66.189  1.00  0.00    -0.299 A  
HETATM   11  C   UNK A   0     -10.458  11.192  66.006  1.00  0.00    -0.312 A  
HETATM   12  C   UNK A   0      -9.987  11.068  64.687  1.00  0.00    -0.357 A  
HETATM   13  C   UNK A   0      -9.738  10.291  66.932  1.00  0.00    -0.229 C  
HETATM   14  C   UNK A   0     -10.355   9.668  67.951  1.00  0.00    -0.271 C  
HETATM   15  C   UNK A   0      -9.771   8.322  68.400  1.00  0.00    -0.170 C  
HETATM   16  C   UNK A   0      -7.097  10.565  68.376  1.00  0.00    -0.078 C  
HETATM   17  C   UNK A   0      -8.206   8.370  68.492  1.00  0.00    -0.124 C  
HETATM   18  N   UNK A   0      -7.512   9.370  67.638  1.00  0.00    -0.087 NA 
ENDROOT
BRANCH  15  19
HETATM   19  C   UNK A   0     -10.244   7.218  67.380  1.00  0.00    -0.236 C  
ATOM     20  N   ALA A   1      -9.220   6.438  66.857  1.00  0.00    -0.131 N  
ATOM     21  H   ALA A   1      -8.272   6.812  66.909  1.00  0.00     0.000 HD 
HETATM   22  O   UNK A   0     -11.407   7.053  67.045  1.00  0.00    -0.238 OA 
BRANCH  20  23
ATOM     23  CA  ALA A   1      -9.395   5.117  66.232  1.00  0.00    -0.151 C  
ATOM     24  CB  ALA A   1      -8.322   4.840  65.180  1.00  0.00    -0.129 C  
BRANCH  23  25
ATOM     25  C   ALA A   1      -9.512   3.945  67.219  1.00  0.00    -0.199 C  
ATOM     26  O   ALA A   1      -9.856   2.751  66.520  1.00  0.00    -0.349 OA 
ATOM     27  H   ALA A   1      -9.929   2.027  67.130  1.00  0.00     0.000 HD 
ENDBRANCH  23  25
ENDBRANCH  20  23
ENDBRANCH  15  19
TORSDOF 3
ENDMDL
MODEL       55
REMARK 921   NORMALIZED FREE ENERGY PREDICTED BY IDOCK:   -5.34 KCAL/MOL
REMARK 922        TOTAL FREE ENERGY PREDICTED BY IDOCK:   -6.72 KCAL/MOL
REMARK 923 INTER-LIGAND FREE ENERGY PREDICTED BY IDOCK:   -5.95 KCAL/MOL
REMARK 924 INTRA-LIGAND FREE ENERGY PREDICTED BY IDOCK:   -0.78 KCAL/MOL
REMARK 927      BINDING AFFINITY PREDICTED BY RF-SCORE:    0.00 PKD
ROOT
HETATM    1  C   UNK A   0     -11.703   9.252  71.265  1.00  0.00    -0.346 C  
HETATM    2  C   UNK A   0     -12.692  10.433  71.434  1.00  0.00    -0.551 C  
HETATM    3  C   UNK A   0     -12.200  11.547  70.574  1.00  0.00    -0.469 A  
HETATM    4  C   UNK A   0     -12.044  12.899  70.741  1.00  0.00    -0.162 A  
HETATM    5  N   UNK A   0     -11.602  13.413  69.542  1.00  0.00    -0.341 NA 
HETATM    6  C   UNK A   0     -11.430  12.402  68.618  1.00  0.00    -0.303 A  
HETATM    7  H   UNK A   0     -11.426  14.402  69.363  1.00  0.00     0.000 HD 
HETATM    8  C   UNK A   0     -11.058  12.394  67.272  1.00  0.00    -0.329 A  
HETATM    9  C   UNK A   0     -10.895  11.130  66.675  1.00  0.00    -0.308 A  
HETATM   10  C   UNK A   0     -10.980   9.936  67.419  1.00  0.00    -0.214 A  
HETATM   11  C   UNK A   0     -11.308   9.975  68.780  1.00  0.00    -0.117 A  
HETATM   12  C   UNK A   0     -11.656  11.230  69.309  1.00  0.00    -0.390 A  
HETATM   13  C   UNK A   0     -11.133   8.962  69.842  1.00  0.00    -0.146 C  
HETATM   14  C   UNK A   0     -10.184   8.011  69.778  1.00  0.00    -0.206 C  
HETATM   15  C   UNK A   0      -9.639   7.481  71.111  1.00  0.00    -0.164 C  
HETATM   16  C   UNK A   0     -13.113   7.230  71.332  1.00  0.00    -0.361 C  
HETATM   17  C   UNK A   0     -10.788   7.212  72.143  1.00  0.00    -0.224 C  
HETATM   18  N   UNK A   0     -12.042   7.995  71.973  1.00  0.00    -0.315 NA 
ENDROOT
BRANCH  15  19
HETATM   19  C   UNK A   0      -8.609   8.534  71.672  1.00  0.00    -0.187 C  
ATOM     20  N   ALA A   1      -7.589   8.869  70.791  1.00  0.00    -0.090 N  
ATOM     21  H   ALA A   1      -7.399   8.223  70.024  1.00  0.00     0.000 HD 
HETATM   22  O   UNK A   0      -8.669   9.015  72.793  1.00  0.00    -0.235 OA 
BRANCH  20  23
ATOM     23  CA  ALA A   1      -6.760  10.082  70.876  1.00  0.00     0.073 C  
ATOM     24  CB  ALA A   1      -5.305   9.755  71.207  1.00  0.00    -0.070 C  
BRANCH  23  25
ATOM     25  C   ALA A   1      -6.849  11.014  69.656  1.00  0.00    -0.129 C  
ATOM     26  O   ALA A   1      -8.208  11.362  69.406  1.00  0.00    -0.365 OA 
ATOM     27  H   ALA A   1      -8.263  11.937  68.652  1.00  0.00     0.000 HD 
ENDBRANCH  23  25
ENDBRANCH  20  23
ENDBRANCH  15  19
TORSDOF 3
ENDMDL
MODEL       56
REMARK 921   NORMALIZED FREE ENERGY PREDICTED BY IDOCK:   -5.30 KCAL/MOL
REMARK 922        TOTAL FREE ENERGY PREDICTED BY IDOCK:   -6.68 KCAL/MOL
REMARK 923 INTER-LIGAND FREE ENERGY PREDICTED BY IDOCK:   -6.59 KCAL/MOL
REMARK 924 INTRA-LIGAND FREE ENERGY PREDICTED BY IDOCK:   -0.09 KCAL/MOL
REMARK 927      BINDING AFFINITY PREDICTED BY RF-SCORE:    0.00 PKD
ROOT
HETATM    1  C   UNK A   0     -10.712  10.734  67.236  1.00  0.00    -0.274 C  
HETATM    2  C   UNK A   0     -11.490  11.897  66.572  1.00  0.00    -0.381 C  
HETATM    3  C   UNK A   0     -11.307  13.101  67.433  1.00  0.00    -0.344 A  
HETATM    4  C   UNK A   0     -12.137  14.081  67.911  1.00  0.00    -0.279 A  
HETATM    5  N   UNK A   0     -11.357  14.976  68.610  1.00  0.00    -0.281 NA 
HETATM    6  C   UNK A   0     -10.041  14.558  68.624  1.00  0.00    -0.244 A  
HETATM    7  H   UNK A   0     -11.703  15.826  69.054  1.00  0.00     0.000 HD 
HETATM    8  C   UNK A   0      -8.870  15.118  69.140  1.00  0.00    -0.221 A  
HETATM    9  C   UNK A   0      -7.706  14.333  69.042  1.00  0.00    -0.065 A  
HETATM   10  C   UNK A   0      -7.736  13.007  68.565  1.00  0.00    -0.111 A  
HETATM   11  C   UNK A   0      -8.935  12.454  68.098  1.00  0.00    -0.196 A  
HETATM   12  C   UNK A   0     -10.042  13.317  68.024  1.00  0.00    -0.235 A  
HETATM   13  C   UNK A   0      -9.324  11.044  67.878  1.00  0.00    -0.160 C  
HETATM   14  C   UNK A   0      -8.754  10.030  68.551  1.00  0.00    -0.123 C  
HETATM   15  C   UNK A   0      -9.610   8.776  68.778  1.00  0.00    -0.160 C  
HETATM   16  C   UNK A   0      -9.777   9.441  65.356  1.00  0.00    -0.178 C  
HETATM   17  C   UNK A   0     -10.394   8.366  67.484  1.00  0.00    -0.265 C  
HETATM   18  N   UNK A   0     -10.687   9.446  66.503  1.00  0.00    -0.038 NA 
ENDROOT
BRANCH  15  19
HETATM   19  C   UNK A   0     -10.600   9.070  69.970  1.00  0.00    -0.228 C  
ATOM     20  N   ALA A   1     -11.550   8.079  70.188  1.00  0.00    -0.470 N  
ATOM     21  H   ALA A   1     -11.740   7.434  69.421  1.00  0.00     0.000 HD 
HETATM   22  O   UNK A   0     -10.568  10.085  70.648  1.00  0.00    -0.295 OA 
BRANCH  20  23
ATOM     23  CA  ALA A   1     -12.304   7.889  71.437  1.00  0.00    -0.312 C  
ATOM     24  CB  ALA A   1     -11.388   7.897  72.660  1.00  0.00    -0.468 C  
BRANCH  23  25
ATOM     25  C   ALA A   1     -13.488   8.849  71.632  1.00  0.00    -0.378 C  
ATOM     26  O   ALA A   1     -14.085   8.635  72.909  1.00  0.00    -0.886 OA 
ATOM     27  H   ALA A   1     -14.817   9.227  73.029  1.00  0.00     0.000 HD 
ENDBRANCH  23  25
ENDBRANCH  20  23
ENDBRANCH  15  19
TORSDOF 3
ENDMDL
MODEL       57
REMARK 921   NORMALIZED FREE ENERGY PREDICTED BY IDOCK:   -5.30 KCAL/MOL
REMARK 922        TOTAL FREE ENERGY PREDICTED BY IDOCK:   -6.68 KCAL/MOL
REMARK 923 INTER-LIGAND FREE ENERGY PREDICTED BY IDOCK:   -5.90 KCAL/MOL
REMARK 924 INTRA-LIGAND FREE ENERGY PREDICTED BY IDOCK:   -0.78 KCAL/MOL
REMARK 927      BINDING AFFINITY PREDICTED BY RF-SCORE:    0.00 PKD
ROOT
HETATM    1  C   UNK A   0      -9.579  12.431  68.227  1.00  0.00    -0.211 C  
HETATM    2  C   UNK A   0      -8.147  12.922  67.896  1.00  0.00    -0.161 C  
HETATM    3  C   UNK A   0      -7.532  11.911  66.989  1.00  0.00    -0.126 A  
HETATM    4  C   UNK A   0      -6.311  11.292  66.920  1.00  0.00    -0.125 A  
HETATM    5  N   UNK A   0      -6.318  10.492  65.798  1.00  0.00    -0.123 NA 
HETATM    6  C   UNK A   0      -7.546  10.555  65.170  1.00  0.00    -0.046 A  
HETATM    7  H   UNK A   0      -5.528   9.933  65.478  1.00  0.00     0.000 HD 
HETATM    8  C   UNK A   0      -8.045   9.988  63.995  1.00  0.00    -0.153 A  
HETATM    9  C   UNK A   0      -9.409  10.209  63.724  1.00  0.00    -0.336 A  
HETATM   10  C   UNK A   0     -10.258  10.859  64.643  1.00  0.00    -0.411 A  
HETATM   11  C   UNK A   0      -9.740  11.376  65.836  1.00  0.00    -0.257 A  
HETATM   12  C   UNK A   0      -8.345  11.317  65.997  1.00  0.00    -0.071 A  
HETATM   13  C   UNK A   0     -10.419  11.777  67.087  1.00  0.00    -0.250 C  
HETATM   14  C   UNK A   0     -11.600  11.255  67.461  1.00  0.00    -0.257 C  
HETATM   15  C   UNK A   0     -11.885  11.184  68.967  1.00  0.00    -0.418 C  
HETATM   16  C   UNK A   0     -10.944  14.483  68.328  1.00  0.00    -0.247 C  
HETATM   17  C   UNK A   0     -11.476  12.508  69.699  1.00  0.00    -0.185 C  
HETATM   18  N   UNK A   0     -10.414  13.330  69.059  1.00  0.00    -0.429 NA 
ENDROOT
BRANCH  15  19
HETATM   19  C   UNK A   0     -11.103   9.947  69.555  1.00  0.00    -0.217 C  
ATOM     20  N   ALA A   1     -11.161   8.802  68.770  1.00  0.00    -0.421 N  
ATOM     21  H   ALA A   1     -11.913   8.740  68.084  1.00  0.00     0.000 HD 
HETATM   22  O   UNK A   0     -10.505   9.963  70.619  1.00  0.00    -0.292 OA 
BRANCH  20  23
ATOM     23  CA  ALA A   1     -10.222   7.672  68.850  1.00  0.00    -0.210 C  
ATOM     24  CB  ALA A   1     -10.950   6.338  69.006  1.00  0.00    -0.437 C  
BRANCH  23  25
ATOM     25  C   ALA A   1      -9.190   7.604  67.712  1.00  0.00    -0.136 C  
ATOM     26  O   ALA A   1      -9.853   7.630  66.451  1.00  0.00    -0.380 OA 
ATOM     27  H   ALA A   1      -9.217   7.588  65.748  1.00  0.00     0.000 HD 
ENDBRANCH  23  25
ENDBRANCH  20  23
ENDBRANCH  15  19
TORSDOF 3
ENDMDL
MODEL       58
REMARK 921   NORMALIZED FREE ENERGY PREDICTED BY IDOCK:   -5.27 KCAL/MOL
REMARK 922        TOTAL FREE ENERGY PREDICTED BY IDOCK:   -6.65 KCAL/MOL
REMARK 923 INTER-LIGAND FREE ENERGY PREDICTED BY IDOCK:   -5.99 KCAL/MOL
REMARK 924 INTRA-LIGAND FREE ENERGY PREDICTED BY IDOCK:   -0.65 KCAL/MOL
REMARK 927      BINDING AFFINITY PREDICTED BY RF-SCORE:    0.00 PKD
ROOT
HETATM    1  C   UNK A   0      -8.844   9.945  69.379  1.00  0.00    -0.187 C  
HETATM    2  C   UNK A   0      -9.211   9.049  70.589  1.00  0.00    -0.279 C  
HETATM    3  C   UNK A   0     -10.191   8.034  70.106  1.00  0.00    -0.203 A  
HETATM    4  C   UNK A   0     -11.369   7.526  70.587  1.00  0.00    -0.281 A  
HETATM    5  N   UNK A   0     -11.783   6.547  69.711  1.00  0.00    -0.632 NA 
HETATM    6  C   UNK A   0     -10.905   6.450  68.649  1.00  0.00    -0.314 A  
HETATM    7  H   UNK A   0     -12.618   5.974  69.830  1.00  0.00     0.000 HD 
HETATM    8  C   UNK A   0     -10.841   5.601  67.541  1.00  0.00    -0.189 A  
HETATM    9  C   UNK A   0      -9.830   5.876  66.601  1.00  0.00    -0.197 A  
HETATM   10  C   UNK A   0      -9.006   7.015  66.701  1.00  0.00    -0.157 A  
HETATM   11  C   UNK A   0      -9.124   7.876  67.799  1.00  0.00    -0.138 A  
HETATM   12  C   UNK A   0     -10.003   7.479  68.821  1.00  0.00    -0.175 A  
HETATM   13  C   UNK A   0      -8.661   9.268  67.986  1.00  0.00    -0.121 C  
HETATM   14  C   UNK A   0      -8.471  10.106  66.951  1.00  0.00    -0.126 C  
HETATM   15  C   UNK A   0      -8.659  11.604  67.226  1.00  0.00    -0.154 C  
HETATM   16  C   UNK A   0      -6.449  10.455  69.670  1.00  0.00    -0.076 C  
HETATM   17  C   UNK A   0      -7.983  12.037  68.572  1.00  0.00    -0.132 C  
HETATM   18  N   UNK A   0      -7.813  10.984  69.609  1.00  0.00    -0.364 NA 
ENDROOT
BRANCH  15  19
HETATM   19  C   UNK A   0     -10.206  11.908  67.246  1.00  0.00    -0.200 C  
ATOM     20  N   ALA A   1     -10.599  12.834  68.203  1.00  0.00    -0.222 N  
ATOM     21  H   ALA A   1      -9.965  13.000  68.985  1.00  0.00     0.000 HD 
HETATM   22  O   UNK A   0     -11.015  11.371  66.505  1.00  0.00    -0.282 OA 
BRANCH  20  23
ATOM     23  CA  ALA A   1     -11.859  13.595  68.179  1.00  0.00    -0.372 C  
ATOM     24  CB  ALA A   1     -12.098  14.340  69.491  1.00  0.00    -0.376 C  
BRANCH  23  25
ATOM     25  C   ALA A   1     -12.024  14.536  66.975  1.00  0.00    -0.345 C  
ATOM     26  O   ALA A   1     -12.585  13.826  65.874  1.00  0.00    -0.472 OA 
ATOM     27  H   ALA A   1     -12.687  14.407  65.130  1.00  0.00     0.000 HD 
ENDBRANCH  23  25
ENDBRANCH  20  23
ENDBRANCH  15  19
TORSDOF 3
ENDMDL
MODEL       59
REMARK 921   NORMALIZED FREE ENERGY PREDICTED BY IDOCK:   -5.24 KCAL/MOL
REMARK 922        TOTAL FREE ENERGY PREDICTED BY IDOCK:   -6.61 KCAL/MOL
REMARK 923 INTER-LIGAND FREE ENERGY PREDICTED BY IDOCK:   -6.24 KCAL/MOL
REMARK 924 INTRA-LIGAND FREE ENERGY PREDICTED BY IDOCK:   -0.37 KCAL/MOL
REMARK 927      BINDING AFFINITY PREDICTED BY RF-SCORE:    0.00 PKD
ROOT
HETATM    1  C   UNK A   0      -9.713  10.444  64.922  1.00  0.00    -0.309 C  
HETATM    2  C   UNK A   0     -10.680  11.304  64.070  1.00  0.00    -0.444 C  
HETATM    3  C   UNK A   0     -11.310  12.299  64.984  1.00  0.00    -0.376 A  
HETATM    4  C   UNK A   0     -12.585  12.762  65.176  1.00  0.00    -0.444 A  
HETATM    5  N   UNK A   0     -12.526  13.746  66.138  1.00  0.00    -0.441 NA 
HETATM    6  C   UNK A   0     -11.232  13.891  66.598  1.00  0.00    -0.320 A  
HETATM    7  H   UNK A   0     -13.324  14.291  66.463  1.00  0.00     0.000 HD 
HETATM    8  C   UNK A   0     -10.639  14.764  67.514  1.00  0.00    -0.259 A  
HETATM    9  C   UNK A   0      -9.280  14.538  67.802  1.00  0.00    -0.194 A  
HETATM   10  C   UNK A   0      -8.583  13.423  67.296  1.00  0.00    -0.216 A  
HETATM   11  C   UNK A   0      -9.217  12.536  66.417  1.00  0.00    -0.177 A  
HETATM   12  C   UNK A   0     -10.509  12.886  65.990  1.00  0.00    -0.290 A  
HETATM   13  C   UNK A   0      -8.865  11.155  66.022  1.00  0.00    -0.196 C  
HETATM   14  C   UNK A   0      -8.142  10.345  66.814  1.00  0.00    -0.120 C  
HETATM   15  C   UNK A   0      -8.389   8.836  66.679  1.00  0.00    -0.108 C  
HETATM   16  C   UNK A   0      -7.789  10.000  63.444  1.00  0.00    -0.151 C  
HETATM   17  C   UNK A   0      -8.484   8.396  65.177  1.00  0.00    -0.160 C  
HETATM   18  N   UNK A   0      -8.908   9.432  64.197  1.00  0.00    -0.319 NA 
ENDROOT
BRANCH  15  19
HETATM   19  C   UNK A   0      -9.715   8.486  67.456  1.00  0.00    -0.162 C  
ATOM     20  N   ALA A   1      -9.613   8.576  68.839  1.00  0.00    -0.158 N  
ATOM     21  H   ALA A   1      -8.678   8.545  69.244  1.00  0.00     0.000 HD 
HETATM   22  O   UNK A   0     -10.753   8.143  66.913  1.00  0.00    -0.309 OA 
BRANCH  20  23
ATOM     23  CA  ALA A   1     -10.749   8.710  69.765  1.00  0.00    -0.215 C  
ATOM     24  CB  ALA A   1     -11.378   7.357  70.095  1.00  0.00    -0.200 C  
BRANCH  23  25
ATOM     25  C   ALA A   1     -10.448   9.502  71.048  1.00  0.00    -0.306 C  
ATOM     26  O   ALA A   1     -11.169   8.946  72.145  1.00  0.00    -0.360 OA 
ATOM     27  H   ALA A   1     -10.984   9.436  72.937  1.00  0.00     0.000 HD 
ENDBRANCH  23  25
ENDBRANCH  20  23
ENDBRANCH  15  19
TORSDOF 3
ENDMDL
MODEL       60
REMARK 921   NORMALIZED FREE ENERGY PREDICTED BY IDOCK:   -5.22 KCAL/MOL
REMARK 922        TOTAL FREE ENERGY PREDICTED BY IDOCK:   -6.58 KCAL/MOL
REMARK 923 INTER-LIGAND FREE ENERGY PREDICTED BY IDOCK:   -5.97 KCAL/MOL
REMARK 924 INTRA-LIGAND FREE ENERGY PREDICTED BY IDOCK:   -0.61 KCAL/MOL
REMARK 927      BINDING AFFINITY PREDICTED BY RF-SCORE:    0.00 PKD
ROOT
HETATM    1  C   UNK A   0     -11.457  13.372  67.121  1.00  0.00    -0.339 C  
HETATM    2  C   UNK A   0     -12.534  14.168  67.900  1.00  0.00     0.204 C  
HETATM    3  C   UNK A   0     -11.830  15.247  68.651  1.00  0.00    -0.329 A  
HETATM    4  C   UNK A   0     -11.904  15.741  69.927  1.00  0.00    -0.344 A  
HETATM    5  N   UNK A   0     -11.032  16.804  70.008  1.00  0.00    -0.388 NA 
HETATM    6  C   UNK A   0     -10.364  16.971  68.811  1.00  0.00    -0.336 A  
HETATM    7  H   UNK A   0     -10.898  17.385  70.835  1.00  0.00     0.000 HD 
HETATM    8  C   UNK A   0      -9.433  17.910  68.363  1.00  0.00    -0.304 A  
HETATM    9  C   UNK A   0      -8.892  17.693  67.081  1.00  0.00    -0.251 A  
HETATM   10  C   UNK A   0      -9.174  16.528  66.339  1.00  0.00    -0.327 A  
HETATM   11  C   UNK A   0     -10.076  15.578  66.834  1.00  0.00    -0.263 A  
HETATM   12  C   UNK A   0     -10.751  15.907  68.022  1.00  0.00    -0.301 A  
HETATM   13  C   UNK A   0     -10.288  14.164  66.458  1.00  0.00    -0.284 C  
HETATM   14  C   UNK A   0      -9.316  13.415  65.907  1.00  0.00     0.055 C  
HETATM   15  C   UNK A   0      -9.369  11.903  66.170  1.00  0.00    -0.228 C  
HETATM   16  C   UNK A   0     -12.532  12.777  64.983  1.00  0.00    -0.506 C  
HETATM   17  C   UNK A   0     -10.822  11.337  66.014  1.00  0.00    -0.213 C  
HETATM   18  N   UNK A   0     -11.943  12.291  66.232  1.00  0.00    -0.626 NA 
ENDROOT
BRANCH  15  19
HETATM   19  C   UNK A   0      -8.811  11.640  67.621  1.00  0.00    -0.159 C  
ATOM     20  N   ALA A   1      -9.610  10.817  68.405  1.00  0.00    -0.169 N  
ATOM     21  H   ALA A   1     -10.587  10.711  68.131  1.00  0.00     0.000 HD 
HETATM   22  O   UNK A   0      -7.775  12.122  68.051  1.00  0.00    -0.114 OA 
BRANCH  20  23
ATOM     23  CA  ALA A   1      -9.158  10.088  69.601  1.00  0.00    -0.210 C  
ATOM     24  CB  ALA A   1     -10.307   9.825  70.574  1.00  0.00    -0.348 C  
BRANCH  23  25
ATOM     25  C   ALA A   1      -8.376   8.796  69.314  1.00  0.00    -0.120 C  
ATOM     26  O   ALA A   1      -7.128   9.108  68.700  1.00  0.00    -0.069 OA 
ATOM     27  H   ALA A   1      -6.644   8.311  68.522  1.00  0.00     0.000 HD 
ENDBRANCH  23  25
ENDBRANCH  20  23
ENDBRANCH  15  19
TORSDOF 3
ENDMDL
MODEL       61
REMARK 921   NORMALIZED FREE ENERGY PREDICTED BY IDOCK:   -5.20 KCAL/MOL
REMARK 922        TOTAL FREE ENERGY PREDICTED BY IDOCK:   -6.56 KCAL/MOL
REMARK 923 INTER-LIGAND FREE ENERGY PREDICTED BY IDOCK:   -5.92 KCAL/MOL
REMARK 924 INTRA-LIGAND FREE ENERGY PREDICTED BY IDOCK:   -0.65 KCAL/MOL
REMARK 927      BINDING AFFINITY PREDICTED BY RF-SCORE:    0.00 PKD
ROOT
HETATM    1  C   UNK A   0     -10.423  12.930  68.520  1.00  0.00    -0.247 C  
HETATM    2  C   UNK A   0     -10.322  14.429  68.898  1.00  0.00    -0.233 C  
HETATM    3  C   UNK A   0     -10.126  15.192  67.633  1.00  0.00    -0.231 A  
HETATM    4  C   UNK A   0      -9.303  16.215  67.240  1.00  0.00    -0.213 A  
HETATM    5  N   UNK A   0      -9.643  16.544  65.946  1.00  0.00    -0.483 NA 
HETATM    6  C   UNK A   0     -10.647  15.714  65.487  1.00  0.00    -0.404 A  
HETATM    7  H   UNK A   0      -9.215  17.294  65.404  1.00  0.00     0.000 HD 
HETATM    8  C   UNK A   0     -11.367  15.661  64.291  1.00  0.00    -0.181 A  
HETATM    9  C   UNK A   0     -12.266  14.588  64.150  1.00  0.00    -0.372 A  
HETATM   10  C   UNK A   0     -12.350  13.551  65.101  1.00  0.00    -0.488 A  
HETATM   11  C   UNK A   0     -11.580  13.605  66.270  1.00  0.00    -0.372 A  
HETATM   12  C   UNK A   0     -10.836  14.779  66.483  1.00  0.00    -0.319 A  
HETATM   13  C   UNK A   0     -11.215  12.543  67.233  1.00  0.00    -0.347 C  
HETATM   14  C   UNK A   0     -11.162  11.246  66.884  1.00  0.00    -0.300 C  
HETATM   15  C   UNK A   0     -10.181  10.356  67.660  1.00  0.00    -0.240 C  
HETATM   16  C   UNK A   0     -12.098  11.996  70.072  1.00  0.00    -0.280 C  
HETATM   17  C   UNK A   0     -10.241  10.633  69.201  1.00  0.00    -0.220 C  
HETATM   18  N   UNK A   0     -10.703  11.983  69.625  1.00  0.00    -0.402 NA 
ENDROOT
BRANCH  15  19
HETATM   19  C   UNK A   0      -8.733  10.614  67.093  1.00  0.00    -0.130 C  
ATOM     20  N   ALA A   1      -7.741  10.695  68.063  1.00  0.00    -0.098 N  
ATOM     21  H   ALA A   1      -8.034  10.894  69.019  1.00  0.00     0.000 HD 
HETATM   22  O   UNK A   0      -8.480  10.755  65.907  1.00  0.00    -0.160 OA 
BRANCH  20  23
ATOM     23  CA  ALA A   1      -6.301  10.517  67.818  1.00  0.00    -0.059 C  
ATOM     24  CB  ALA A   1      -5.471  10.814  69.066  1.00  0.00    -0.040 C  
BRANCH  23  25
ATOM     25  C   ALA A   1      -5.910   9.161  67.208  1.00  0.00    -0.046 C  
ATOM     26  O   ALA A   1      -5.883   9.255  65.786  1.00  0.00    -0.052 OA 
ATOM     27  H   ALA A   1      -5.642   8.418  65.409  1.00  0.00     0.000 HD 
ENDBRANCH  23  25
ENDBRANCH  20  23
ENDBRANCH  15  19
TORSDOF 3
ENDMDL
MODEL       62
REMARK 921   NORMALIZED FREE ENERGY PREDICTED BY IDOCK:   -5.20 KCAL/MOL
REMARK 922        TOTAL FREE ENERGY PREDICTED BY IDOCK:   -6.56 KCAL/MOL
REMARK 923 INTER-LIGAND FREE ENERGY PREDICTED BY IDOCK:   -6.17 KCAL/MOL
REMARK 924 INTRA-LIGAND FREE ENERGY PREDICTED BY IDOCK:   -0.40 KCAL/MOL
REMARK 927      BINDING AFFINITY PREDICTED BY RF-SCORE:    0.00 PKD
ROOT
HETATM    1  C   UNK A   0      -8.822   7.418  71.440  1.00  0.00    -0.126 C  
HETATM    2  C   UNK A   0      -8.112   8.754  71.104  1.00  0.00    -0.192 C  
HETATM    3  C   UNK A   0      -9.099   9.609  70.384  1.00  0.00    -0.245 A  
HETATM    4  C   UNK A   0      -9.054  10.405  69.269  1.00  0.00    -0.175 A  
HETATM    5  N   UNK A   0     -10.287  11.005  69.142  1.00  0.00    -0.300 NA 
HETATM    6  C   UNK A   0     -11.139  10.570  70.138  1.00  0.00    -0.298 A  
HETATM    7  H   UNK A   0     -10.536  11.675  68.414  1.00  0.00     0.000 HD 
HETATM    8  C   UNK A   0     -12.452  10.902  70.481  1.00  0.00    -0.438 A  
HETATM    9  C   UNK A   0     -13.032  10.160  71.527  1.00  0.00    -0.547 A  
HETATM   10  C   UNK A   0     -12.376   9.060  72.116  1.00  0.00    -0.442 A  
HETATM   11  C   UNK A   0     -11.077   8.719  71.719  1.00  0.00    -0.417 A  
HETATM   12  C   UNK A   0     -10.444   9.589  70.815  1.00  0.00    -0.384 A  
HETATM   13  C   UNK A   0     -10.312   7.467  71.901  1.00  0.00    -0.226 C  
HETATM   14  C   UNK A   0     -10.913   6.275  72.054  1.00  0.00    -0.299 C  
HETATM   15  C   UNK A   0     -10.143   5.039  71.570  1.00  0.00    -0.263 C  
HETATM   16  C   UNK A   0      -7.949   6.776  73.655  1.00  0.00    -0.098 C  
HETATM   17  C   UNK A   0      -8.636   5.089  71.998  1.00  0.00    -0.125 C  
HETATM   18  N   UNK A   0      -8.048   6.435  72.235  1.00  0.00    -0.107 NA 
ENDROOT
BRANCH  15  19
HETATM   19  C   UNK A   0     -10.283   4.958  70.002  1.00  0.00    -0.243 C  
ATOM     20  N   ALA A   1      -9.375   4.107  69.384  1.00  0.00    -0.152 N  
ATOM     21  H   ALA A   1      -8.533   3.861  69.905  1.00  0.00     0.000 HD 
HETATM   22  O   UNK A   0     -11.101   5.595  69.357  1.00  0.00    -0.294 OA 
BRANCH  20  23
ATOM     23  CA  ALA A   1      -9.532   3.532  68.038  1.00  0.00    -0.160 C  
ATOM     24  CB  ALA A   1      -8.706   4.288  66.998  1.00  0.00    -0.110 C  
BRANCH  23  25
ATOM     25  C   ALA A   1      -9.278   2.019  67.946  1.00  0.00    -0.185 C  
ATOM     26  O   ALA A   1      -9.583   1.553  66.634  1.00  0.00    -0.341 OA 
ATOM     27  H   ALA A   1      -9.426   0.618  66.577  1.00  0.00     0.000 HD 
ENDBRANCH  23  25
ENDBRANCH  20  23
ENDBRANCH  15  19
TORSDOF 3
ENDMDL
MODEL       63
REMARK 921   NORMALIZED FREE ENERGY PREDICTED BY IDOCK:   -5.20 KCAL/MOL
REMARK 922        TOTAL FREE ENERGY PREDICTED BY IDOCK:   -6.56 KCAL/MOL
REMARK 923 INTER-LIGAND FREE ENERGY PREDICTED BY IDOCK:   -6.12 KCAL/MOL
REMARK 924 INTRA-LIGAND FREE ENERGY PREDICTED BY IDOCK:   -0.45 KCAL/MOL
REMARK 927      BINDING AFFINITY PREDICTED BY RF-SCORE:    0.00 PKD
ROOT
HETATM    1  C   UNK A   0      -8.310  10.194  68.561  1.00  0.00    -0.116 C  
HETATM    2  C   UNK A   0      -8.097   9.816  70.049  1.00  0.00    -0.203 C  
HETATM    3  C   UNK A   0      -9.260   8.979  70.463  1.00  0.00    -0.261 A  
HETATM    4  C   UNK A   0     -10.082   8.944  71.559  1.00  0.00    -0.324 A  
HETATM    5  N   UNK A   0     -10.945   7.883  71.392  1.00  0.00    -0.229 NA 
HETATM    6  C   UNK A   0     -10.716   7.263  70.180  1.00  0.00    -0.244 A  
HETATM    7  H   UNK A   0     -11.653   7.597  72.068  1.00  0.00     0.000 HD 
HETATM    8  C   UNK A   0     -11.269   6.136  69.567  1.00  0.00    -0.482 A  
HETATM    9  C   UNK A   0     -10.837   5.862  68.256  1.00  0.00    -0.325 A  
HETATM   10  C   UNK A   0      -9.988   6.738  67.549  1.00  0.00    -0.180 A  
HETATM   11  C   UNK A   0      -9.486   7.887  68.173  1.00  0.00    -0.154 A  
HETATM   12  C   UNK A   0      -9.773   8.040  69.540  1.00  0.00    -0.170 A  
HETATM   13  C   UNK A   0      -8.888   9.111  67.598  1.00  0.00    -0.123 C  
HETATM   14  C   UNK A   0      -9.172   9.531  66.353  1.00  0.00    -0.210 C  
HETATM   15  C   UNK A   0      -9.088  11.041  66.092  1.00  0.00    -0.208 C  
HETATM   16  C   UNK A   0      -6.053  10.157  67.569  1.00  0.00    -0.057 C  
HETATM   17  C   UNK A   0      -7.806  11.672  66.736  1.00  0.00    -0.130 C  
HETATM   18  N   UNK A   0      -7.225  10.965  67.909  1.00  0.00    -0.085 NA 
ENDROOT
BRANCH  15  19
HETATM   19  C   UNK A   0     -10.397  11.710  66.663  1.00  0.00    -0.222 C  
ATOM     20  N   ALA A   1     -10.300  13.081  66.871  1.00  0.00    -0.244 N  
ATOM     21  H   ALA A   1      -9.365  13.480  66.944  1.00  0.00     0.000 HD 
HETATM   22  O   UNK A   0     -11.417  11.094  66.929  1.00  0.00    -0.414 OA 
BRANCH  20  23
ATOM     23  CA  ALA A   1     -11.442  14.001  66.993  1.00  0.00    -0.351 C  
ATOM     24  CB  ALA A   1     -11.082  15.250  67.796  1.00  0.00    -0.318 C  
BRANCH  23  25
ATOM     25  C   ALA A   1     -12.114  14.379  65.663  1.00  0.00    -0.354 C  
ATOM     26  O   ALA A   1     -13.498  14.041  65.703  1.00  0.00    -0.713 OA 
ATOM     27  H   ALA A   1     -13.914  14.275  64.881  1.00  0.00     0.000 HD 
ENDBRANCH  23  25
ENDBRANCH  20  23
ENDBRANCH  15  19
TORSDOF 3
ENDMDL
MODEL       64
REMARK 921   NORMALIZED FREE ENERGY PREDICTED BY IDOCK:   -5.18 KCAL/MOL
REMARK 922        TOTAL FREE ENERGY PREDICTED BY IDOCK:   -6.54 KCAL/MOL
REMARK 923 INTER-LIGAND FREE ENERGY PREDICTED BY IDOCK:   -6.04 KCAL/MOL
REMARK 924 INTRA-LIGAND FREE ENERGY PREDICTED BY IDOCK:   -0.50 KCAL/MOL
REMARK 927      BINDING AFFINITY PREDICTED BY RF-SCORE:    0.00 PKD
ROOT
HETATM    1  C   UNK A   0      -8.403  17.863  68.347  1.00  0.00    -0.304 C  
HETATM    2  C   UNK A   0      -8.375  19.099  69.279  1.00  0.00    -0.024 C  
HETATM    3  C   UNK A   0      -7.133  19.862  68.965  1.00  0.00    -0.306 A  
HETATM    4  C   UNK A   0      -6.154  20.463  69.713  1.00  0.00    -0.318 A  
HETATM    5  N   UNK A   0      -5.286  21.078  68.837  1.00  0.00    -0.348 NA 
HETATM    6  C   UNK A   0      -5.672  20.842  67.532  1.00  0.00    -0.260 A  
HETATM    7  H   UNK A   0      -4.475  21.630  69.114  1.00  0.00     0.000 HD 
HETATM    8  C   UNK A   0      -5.175  21.273  66.300  1.00  0.00    -0.262 A  
HETATM    9  C   UNK A   0      -5.790  20.732  65.155  1.00  0.00    -0.269 A  
HETATM   10  C   UNK A   0      -6.768  19.720  65.238  1.00  0.00    -0.317 A  
HETATM   11  C   UNK A   0      -7.214  19.273  66.488  1.00  0.00    -0.241 A  
HETATM   12  C   UNK A   0      -6.729  19.961  67.614  1.00  0.00    -0.274 A  
HETATM   13  C   UNK A   0      -7.936  18.040  66.868  1.00  0.00    -0.251 C  
HETATM   14  C   UNK A   0      -7.859  16.911  66.143  1.00  0.00    -0.277 C  
HETATM   15  C   UNK A   0      -8.039  15.586  66.896  1.00  0.00    -0.284 C  
HETATM   16  C   UNK A   0     -10.781  17.559  67.769  1.00  0.00    -0.332 C  
HETATM   17  C   UNK A   0      -9.232  15.651  67.910  1.00  0.00    -0.190 C  
HETATM   18  N   UNK A   0      -9.602  16.995  68.429  1.00  0.00    -0.267 NA 
ENDROOT
BRANCH  15  19
HETATM   19  C   UNK A   0      -6.685  15.256  67.634  1.00  0.00    -0.173 C  
ATOM     20  N   ALA A   1      -6.838  14.625  68.863  1.00  0.00    -0.097 N  
ATOM     21  H   ALA A   1      -7.745  14.704  69.322  1.00  0.00     0.000 HD 
HETATM   22  O   UNK A   0      -5.582  15.538  67.194  1.00  0.00    -0.320 OA 
BRANCH  20  23
ATOM     23  CA  ALA A   1      -5.793  13.853  69.554  1.00  0.00    -0.099 C  
ATOM     24  CB  ALA A   1      -5.728  14.190  71.043  1.00  0.00    -0.215 C  
BRANCH  23  25
ATOM     25  C   ALA A   1      -5.861  12.332  69.338  1.00  0.00    -0.092 C  
ATOM     26  O   ALA A   1      -6.429  11.702  70.483  1.00  0.00    -0.519 OA 
ATOM     27  H   ALA A   1      -6.471  10.763  70.350  1.00  0.00     0.000 HD 
ENDBRANCH  23  25
ENDBRANCH  20  23
ENDBRANCH  15  19
TORSDOF 3
ENDMDL
MODEL       65
REMARK 921   NORMALIZED FREE ENERGY PREDICTED BY IDOCK:   -5.12 KCAL/MOL
REMARK 922        TOTAL FREE ENERGY PREDICTED BY IDOCK:   -6.47 KCAL/MOL
REMARK 923 INTER-LIGAND FREE ENERGY PREDICTED BY IDOCK:   -6.01 KCAL/MOL
REMARK 924 INTRA-LIGAND FREE ENERGY PREDICTED BY IDOCK:   -0.46 KCAL/MOL
REMARK 927      BINDING AFFINITY PREDICTED BY RF-SCORE:    0.00 PKD
ROOT
HETATM    1  C   UNK A   0      -8.081  11.310  68.241  1.00  0.00    -0.137 C  
HETATM    2  C   UNK A   0      -7.245  12.537  68.684  1.00  0.00    -0.103 C  
HETATM    3  C   UNK A   0      -7.903  13.749  68.117  1.00  0.00    -0.149 A  
HETATM    4  C   UNK A   0      -7.461  14.876  67.475  1.00  0.00    -0.200 A  
HETATM    5  N   UNK A   0      -8.557  15.679  67.252  1.00  0.00    -0.180 NA 
HETATM    6  C   UNK A   0      -9.707  15.061  67.704  1.00  0.00    -0.215 A  
HETATM    7  H   UNK A   0      -8.525  16.600  66.815  1.00  0.00     0.000 HD 
HETATM    8  C   UNK A   0     -11.044  15.461  67.760  1.00  0.00    -0.320 A  
HETATM    9  C   UNK A   0     -11.966  14.497  68.210  1.00  0.00    -0.303 A  
HETATM   10  C   UNK A   0     -11.587  13.165  68.472  1.00  0.00    -0.361 A  
HETATM   11  C   UNK A   0     -10.245  12.779  68.361  1.00  0.00    -0.237 A  
HETATM   12  C   UNK A   0      -9.315  13.800  68.100  1.00  0.00    -0.211 A  
HETATM   13  C   UNK A   0      -9.636  11.437  68.238  1.00  0.00    -0.192 C  
HETATM   14  C   UNK A   0     -10.305  10.391  67.724  1.00  0.00    -0.245 C  
HETATM   15  C   UNK A   0      -9.471   9.305  67.028  1.00  0.00    -0.205 C  
HETATM   16  C   UNK A   0      -8.012   9.768  70.165  1.00  0.00    -0.186 C  
HETATM   17  C   UNK A   0      -8.188   8.942  67.852  1.00  0.00    -0.110 C  
HETATM   18  N   UNK A   0      -7.653   9.990  68.763  1.00  0.00    -0.080 NA 
ENDROOT
BRANCH  15  19
HETATM   19  C   UNK A   0      -9.092   9.827  65.590  1.00  0.00    -0.178 C  
ATOM     20  N   ALA A   1     -10.159  10.340  64.862  1.00  0.00    -0.326 N  
ATOM     21  H   ALA A   1     -11.099  10.069  65.153  1.00  0.00     0.000 HD 
HETATM   22  O   UNK A   0      -7.966   9.777  65.121  1.00  0.00    -0.118 OA 
BRANCH  20  23
ATOM     23  CA  ALA A   1     -10.041  11.242  63.706  1.00  0.00    -0.361 C  
ATOM     24  CB  ALA A   1      -9.656  10.489  62.434  1.00  0.00    -0.179 C  
BRANCH  23  25
ATOM     25  C   ALA A   1     -11.260  12.146  63.462  1.00  0.00    -0.458 C  
ATOM     26  O   ALA A   1     -12.315  11.391  62.870  1.00  0.00    -0.954 OA 
ATOM     27  H   ALA A   1     -13.069  11.949  62.718  1.00  0.00     0.000 HD 
ENDBRANCH  23  25
ENDBRANCH  20  23
ENDBRANCH  15  19
TORSDOF 3
ENDMDL
MODEL       66
REMARK 921   NORMALIZED FREE ENERGY PREDICTED BY IDOCK:   -5.07 KCAL/MOL
REMARK 922        TOTAL FREE ENERGY PREDICTED BY IDOCK:   -6.41 KCAL/MOL
REMARK 923 INTER-LIGAND FREE ENERGY PREDICTED BY IDOCK:   -5.74 KCAL/MOL
REMARK 924 INTRA-LIGAND FREE ENERGY PREDICTED BY IDOCK:   -0.67 KCAL/MOL
REMARK 927      BINDING AFFINITY PREDICTED BY RF-SCORE:    0.00 PKD
ROOT
HETATM    1  C   UNK A   0     -10.811   7.340  70.143  1.00  0.00    -0.256 C  
HETATM    2  C   UNK A   0     -12.254   6.938  70.536  1.00  0.00    -0.253 C  
HETATM    3  C   UNK A   0     -12.772   7.990  71.456  1.00  0.00    -0.325 A  
HETATM    4  C   UNK A   0     -13.465   7.982  72.639  1.00  0.00     0.274 A  
HETATM    5  N   UNK A   0     -13.718   9.294  72.976  1.00  0.00    -0.934 NA 
HETATM    6  C   UNK A   0     -13.156  10.147  72.047  1.00  0.00    -0.437 A  
HETATM    7  H   UNK A   0     -14.245   9.592  73.796  1.00  0.00     0.000 HD 
HETATM    8  C   UNK A   0     -13.165  11.536  71.901  1.00  0.00    -0.479 A  
HETATM    9  C   UNK A   0     -12.380  12.060  70.857  1.00  0.00    -0.384 A  
HETATM   10  C   UNK A   0     -11.532  11.247  70.077  1.00  0.00    -0.359 A  
HETATM   11  C   UNK A   0     -11.508   9.861  70.277  1.00  0.00    -0.349 A  
HETATM   12  C   UNK A   0     -12.440   9.337  71.190  1.00  0.00    -0.341 A  
HETATM   13  C   UNK A   0     -10.511   8.847  69.871  1.00  0.00    -0.223 C  
HETATM   14  C   UNK A   0      -9.219   9.155  69.661  1.00  0.00    -0.172 C  
HETATM   15  C   UNK A   0      -8.189   8.045  69.913  1.00  0.00    -0.119 C  
HETATM   16  C   UNK A   0     -10.583   6.662  67.783  1.00  0.00    -0.252 C  
HETATM   17  C   UNK A   0      -8.656   6.673  69.316  1.00  0.00    -0.131 C  
HETATM   18  N   UNK A   0     -10.122   6.471  69.159  1.00  0.00    -0.161 NA 
ENDROOT
BRANCH  15  19
HETATM   19  C   UNK A   0      -7.957   7.937  71.468  1.00  0.00    -0.099 C  
ATOM     20  N   ALA A   1      -7.963   6.638  71.963  1.00  0.00    -0.102 N  
ATOM     21  H   ALA A   1      -8.408   5.920  71.391  1.00  0.00     0.000 HD 
HETATM   22  O   UNK A   0      -7.801   8.899  72.203  1.00  0.00    -0.351 OA 
BRANCH  20  23
ATOM     23  CA  ALA A   1      -7.381   6.218  73.248  1.00  0.00    -0.087 C  
ATOM     24  CB  ALA A   1      -7.800   4.798  73.624  1.00  0.00    -0.095 C  
BRANCH  23  25
ATOM     25  C   ALA A   1      -5.857   6.387  73.354  1.00  0.00    -0.054 C  
ATOM     26  O   ALA A   1      -5.540   7.719  73.747  1.00  0.00    -0.051 OA 
ATOM     27  H   ALA A   1      -4.598   7.824  73.812  1.00  0.00     0.000 HD 
ENDBRANCH  23  25
ENDBRANCH  20  23
ENDBRANCH  15  19
TORSDOF 3
ENDMDL
MODEL       67
REMARK 921   NORMALIZED FREE ENERGY PREDICTED BY IDOCK:   -5.06 KCAL/MOL
REMARK 922        TOTAL FREE ENERGY PREDICTED BY IDOCK:   -6.39 KCAL/MOL
REMARK 923 INTER-LIGAND FREE ENERGY PREDICTED BY IDOCK:   -5.77 KCAL/MOL
REMARK 924 INTRA-LIGAND FREE ENERGY PREDICTED BY IDOCK:   -0.62 KCAL/MOL
REMARK 927      BINDING AFFINITY PREDICTED BY RF-SCORE:    0.00 PKD
ROOT
HETATM    1  C   UNK A   0      -8.625   6.707  68.564  1.00  0.00    -0.124 C  
HETATM    2  C   UNK A   0      -7.620   6.734  69.742  1.00  0.00    -0.104 C  
HETATM    3  C   UNK A   0      -8.252   7.514  70.844  1.00  0.00    -0.112 A  
HETATM    4  C   UNK A   0      -7.825   8.493  71.703  1.00  0.00    -0.124 A  
HETATM    5  N   UNK A   0      -8.866   8.774  72.559  1.00  0.00    -0.389 NA 
HETATM    6  C   UNK A   0      -9.975   8.017  72.233  1.00  0.00    -0.239 A  
HETATM    7  H   UNK A   0      -8.825   9.445  73.325  1.00  0.00     0.000 HD 
HETATM    8  C   UNK A   0     -11.242   7.889  72.805  1.00  0.00    -0.466 A  
HETATM    9  C   UNK A   0     -12.159   7.071  72.118  1.00  0.00    -0.281 A  
HETATM   10  C   UNK A   0     -11.863   6.511  70.858  1.00  0.00    -0.391 A  
HETATM   11  C   UNK A   0     -10.599   6.696  70.285  1.00  0.00    -0.265 A  
HETATM   12  C   UNK A   0      -9.637   7.350  71.074  1.00  0.00    -0.161 A  
HETATM   13  C   UNK A   0     -10.141   6.531  68.888  1.00  0.00    -0.183 C  
HETATM   14  C   UNK A   0     -10.978   6.644  67.842  1.00  0.00    -0.342 C  
HETATM   15  C   UNK A   0     -10.373   7.125  66.516  1.00  0.00    -0.104 C  
HETATM   16  C   UNK A   0      -8.374   4.465  67.568  1.00  0.00    -0.099 C  
HETATM   17  C   UNK A   0      -9.008   6.418  66.210  1.00  0.00    -0.156 C  
HETATM   18  N   UNK A   0      -8.237   5.909  67.376  1.00  0.00    -0.106 NA 
ENDROOT
BRANCH  15  19
HETATM   19  C   UNK A   0     -10.195   8.689  66.598  1.00  0.00    -0.273 C  
ATOM     20  N   ALA A   1     -11.141   9.336  67.384  1.00  0.00    -0.355 N  
ATOM     21  H   ALA A   1     -12.012   8.841  67.575  1.00  0.00     0.000 HD 
HETATM   22  O   UNK A   0      -9.319   9.307  66.014  1.00  0.00    -0.186 OA 
BRANCH  20  23
ATOM     23  CA  ALA A   1     -10.986  10.681  67.961  1.00  0.00    -0.282 C  
ATOM     24  CB  ALA A   1      -9.804  10.752  68.927  1.00  0.00    -0.209 C  
BRANCH  23  25
ATOM     25  C   ALA A   1     -10.924  11.824  66.934  1.00  0.00    -0.285 C  
ATOM     26  O   ALA A   1     -12.149  11.894  66.208  1.00  0.00    -0.535 OA 
ATOM     27  H   ALA A   1     -12.111  12.599  65.574  1.00  0.00     0.000 HD 
ENDBRANCH  23  25
ENDBRANCH  20  23
ENDBRANCH  15  19
TORSDOF 3
ENDMDL
MODEL       68
REMARK 921   NORMALIZED FREE ENERGY PREDICTED BY IDOCK:   -5.06 KCAL/MOL
REMARK 922        TOTAL FREE ENERGY PREDICTED BY IDOCK:   -6.39 KCAL/MOL
REMARK 923 INTER-LIGAND FREE ENERGY PREDICTED BY IDOCK:   -5.78 KCAL/MOL
REMARK 924 INTRA-LIGAND FREE ENERGY PREDICTED BY IDOCK:   -0.61 KCAL/MOL
REMARK 927      BINDING AFFINITY PREDICTED BY RF-SCORE:    0.00 PKD
ROOT
HETATM    1  C   UNK A   0     -10.473   8.649  68.364  1.00  0.00    -0.176 C  
HETATM    2  C   UNK A   0     -10.201   8.170  66.916  1.00  0.00    -0.387 C  
HETATM    3  C   UNK A   0      -9.425   9.244  66.234  1.00  0.00    -0.284 A  
HETATM    4  C   UNK A   0      -9.490   9.851  65.007  1.00  0.00    -0.280 A  
HETATM    5  N   UNK A   0      -8.440  10.739  64.931  1.00  0.00    -0.333 NA 
HETATM    6  C   UNK A   0      -7.726  10.743  66.113  1.00  0.00    -0.149 A  
HETATM    7  H   UNK A   0      -8.221  11.313  64.117  1.00  0.00     0.000 HD 
HETATM    8  C   UNK A   0      -6.570  11.410  66.526  1.00  0.00    -0.071 A  
HETATM    9  C   UNK A   0      -6.190  11.228  67.869  1.00  0.00    -0.050 A  
HETATM   10  C   UNK A   0      -6.991  10.516  68.784  1.00  0.00    -0.070 A  
HETATM   11  C   UNK A   0      -8.171   9.897  68.353  1.00  0.00    -0.106 A  
HETATM   12  C   UNK A   0      -8.432   9.926  66.972  1.00  0.00    -0.121 A  
HETATM   13  C   UNK A   0      -9.336   9.404  69.119  1.00  0.00    -0.159 C  
HETATM   14  C   UNK A   0      -9.669   9.909  70.320  1.00  0.00    -0.211 C  
HETATM   15  C   UNK A   0     -11.153   9.860  70.708  1.00  0.00    -0.417 C  
HETATM   16  C   UNK A   0     -10.311   6.613  69.747  1.00  0.00    -0.193 C  
HETATM   17  C   UNK A   0     -11.800   8.476  70.359  1.00  0.00     0.086 C  
HETATM   18  N   UNK A   0     -11.169   7.695  69.261  1.00  0.00    -0.433 NA 
ENDROOT
BRANCH  15  19
HETATM   19  C   UNK A   0     -11.893  11.035  69.960  1.00  0.00    -0.355 C  
ATOM     20  N   ALA A   1     -11.564  12.306  70.415  1.00  0.00    -0.493 N  
ATOM     21  H   ALA A   1     -11.149  12.380  71.345  1.00  0.00     0.000 HD 
HETATM   22  O   UNK A   0     -12.706  10.868  69.065  1.00  0.00    -0.239 OA 
BRANCH  20  23
ATOM     23  CA  ALA A   1     -11.767  13.554  69.663  1.00  0.00    -0.314 C  
ATOM     24  CB  ALA A   1     -11.788  14.775  70.582  1.00  0.00    -0.364 C  
BRANCH  23  25
ATOM     25  C   ALA A   1     -10.798  13.768  68.489  1.00  0.00    -0.263 C  
ATOM     26  O   ALA A   1      -9.476  13.399  68.874  1.00  0.00    -0.403 OA 
ATOM     27  H   ALA A   1      -8.877  13.531  68.149  1.00  0.00     0.000 HD 
ENDBRANCH  23  25
ENDBRANCH  20  23
ENDBRANCH  15  19
TORSDOF 3
ENDMDL
MODEL       69
REMARK 921   NORMALIZED FREE ENERGY PREDICTED BY IDOCK:   -5.03 KCAL/MOL
REMARK 922        TOTAL FREE ENERGY PREDICTED BY IDOCK:   -6.36 KCAL/MOL
REMARK 923 INTER-LIGAND FREE ENERGY PREDICTED BY IDOCK:   -6.28 KCAL/MOL
REMARK 924 INTRA-LIGAND FREE ENERGY PREDICTED BY IDOCK:   -0.09 KCAL/MOL
REMARK 927      BINDING AFFINITY PREDICTED BY RF-SCORE:    0.00 PKD
ROOT
HETATM    1  C   UNK A   0     -10.566  12.233  67.955  1.00  0.00    -0.212 C  
HETATM    2  C   UNK A   0     -10.335  10.766  67.516  1.00  0.00    -0.244 C  
HETATM    3  C   UNK A   0      -8.986  10.700  66.885  1.00  0.00    -0.147 A  
HETATM    4  C   UNK A   0      -8.477  10.118  65.754  1.00  0.00    -0.147 A  
HETATM    5  N   UNK A   0      -7.120  10.356  65.743  1.00  0.00    -0.135 NA 
HETATM    6  C   UNK A   0      -6.758  11.123  66.833  1.00  0.00    -0.128 A  
HETATM    7  H   UNK A   0      -6.475  10.014  65.031  1.00  0.00     0.000 HD 
HETATM    8  C   UNK A   0      -5.527  11.588  67.303  1.00  0.00    -0.079 A  
HETATM    9  C   UNK A   0      -5.568  12.443  68.421  1.00  0.00    -0.057 A  
HETATM   10  C   UNK A   0      -6.783  12.908  68.963  1.00  0.00    -0.095 A  
HETATM   11  C   UNK A   0      -8.004  12.463  68.440  1.00  0.00    -0.149 A  
HETATM   12  C   UNK A   0      -7.941  11.462  67.455  1.00  0.00    -0.139 A  
HETATM   13  C   UNK A   0      -9.367  13.020  68.568  1.00  0.00    -0.078 C  
HETATM   14  C   UNK A   0      -9.589  14.324  68.810  1.00  0.00    -0.153 C  
HETATM   15  C   UNK A   0     -10.899  14.919  68.276  1.00  0.00    -0.257 C  
HETATM   16  C   UNK A   0     -11.807  12.073  70.080  1.00  0.00    -0.301 C  
HETATM   17  C   UNK A   0     -12.118  13.970  68.543  1.00  0.00    -0.294 C  
HETATM   18  N   UNK A   0     -11.824  12.519  68.686  1.00  0.00    -0.312 NA 
ENDROOT
BRANCH  15  19
HETATM   19  C   UNK A   0     -10.720  15.190  66.734  1.00  0.00    -0.311 C  
ATOM     20  N   ALA A   1     -11.034  14.110  65.918  1.00  0.00    -0.293 N  
ATOM     21  H   ALA A   1     -11.046  13.185  66.347  1.00  0.00     0.000 HD 
HETATM   22  O   UNK A   0     -10.320  16.246  66.269  1.00  0.00    -0.304 OA 
BRANCH  20  23
ATOM     23  CA  ALA A   1     -11.352  14.197  64.483  1.00  0.00    -0.348 C  
ATOM     24  CB  ALA A   1     -11.739  12.837  63.904  1.00  0.00    -0.530 C  
BRANCH  23  25
ATOM     25  C   ALA A   1     -12.393  15.266  64.114  1.00  0.00    -0.044 C  
ATOM     26  O   ALA A   1     -11.738  16.437  63.630  1.00  0.00    -1.520 OA 
ATOM     27  H   ALA A   1     -12.380  17.098  63.402  1.00  0.00     0.000 HD 
ENDBRANCH  23  25
ENDBRANCH  20  23
ENDBRANCH  15  19
TORSDOF 3
ENDMDL
MODEL       70
REMARK 921   NORMALIZED FREE ENERGY PREDICTED BY IDOCK:   -5.03 KCAL/MOL
REMARK 922        TOTAL FREE ENERGY PREDICTED BY IDOCK:   -6.35 KCAL/MOL
REMARK 923 INTER-LIGAND FREE ENERGY PREDICTED BY IDOCK:   -7.20 KCAL/MOL
REMARK 924 INTRA-LIGAND FREE ENERGY PREDICTED BY IDOCK:    0.85 KCAL/MOL
REMARK 927      BINDING AFFINITY PREDICTED BY RF-SCORE:    0.00 PKD
ROOT
HETATM    1  C   UNK A   0      -9.648  14.052  68.362  1.00  0.00    -0.222 C  
HETATM    2  C   UNK A   0      -8.532  13.269  67.626  1.00  0.00    -0.191 C  
HETATM    3  C   UNK A   0      -9.200  12.307  66.705  1.00  0.00    -0.208 A  
HETATM    4  C   UNK A   0      -9.018  10.985  66.391  1.00  0.00    -0.181 A  
HETATM    5  N   UNK A   0      -9.921  10.669  65.400  1.00  0.00    -0.263 NA 
HETATM    6  C   UNK A   0     -10.712  11.761  65.103  1.00  0.00    -0.291 A  
HETATM    7  H   UNK A   0      -9.995   9.757  64.949  1.00  0.00     0.000 HD 
HETATM    8  C   UNK A   0     -11.720  11.979  64.162  1.00  0.00    -0.457 A  
HETATM    9  C   UNK A   0     -12.378  13.222  64.226  1.00  0.00    -0.406 A  
HETATM   10  C   UNK A   0     -12.125  14.150  65.257  1.00  0.00    -0.407 A  
HETATM   11  C   UNK A   0     -11.140  13.884  66.217  1.00  0.00    -0.304 A  
HETATM   12  C   UNK A   0     -10.363  12.729  66.022  1.00  0.00    -0.291 A  
HETATM   13  C   UNK A   0     -10.910  14.480  67.550  1.00  0.00    -0.289 C  
HETATM   14  C   UNK A   0     -11.900  15.041  68.266  1.00  0.00    -0.295 C  
HETATM   15  C   UNK A   0     -11.760  15.007  69.794  1.00  0.00    -0.341 C  
HETATM   16  C   UNK A   0      -8.770  16.345  68.590  1.00  0.00    -0.234 C  
HETATM   17  C   UNK A   0     -10.308  15.379  70.253  1.00  0.00    -0.183 C  
HETATM   18  N   UNK A   0      -9.210  15.131  69.279  1.00  0.00    -0.311 NA 
ENDROOT
BRANCH  15  19
HETATM   19  C   UNK A   0     -12.158  13.565  70.290  1.00  0.00    -0.355 C  
ATOM     20  N   ALA A   1     -11.421  12.534  69.719  1.00  0.00    -0.492 N  
ATOM     21  H   ALA A   1     -10.934  12.734  68.845  1.00  0.00     0.000 HD 
HETATM   22  O   UNK A   0     -13.050  13.342  71.093  1.00  0.00    -0.272 OA 
BRANCH  20  23
ATOM     23  CA  ALA A   1     -11.288  11.178  70.275  1.00  0.00    -0.148 C  
ATOM     24  CB  ALA A   1     -12.649  10.527  70.515  1.00  0.00    -0.423 C  
BRANCH  23  25
ATOM     25  C   ALA A   1     -10.363  10.241  69.483  1.00  0.00    -0.242 C  
ATOM     26  O   ALA A   1      -9.005  10.467  69.855  1.00  0.00    -0.394 OA 
ATOM     27  H   ALA A   1      -8.434   9.888  69.365  1.00  0.00     0.000 HD 
ENDBRANCH  23  25
ENDBRANCH  20  23
ENDBRANCH  15  19
TORSDOF 3
ENDMDL
MODEL       71
REMARK 921   NORMALIZED FREE ENERGY PREDICTED BY IDOCK:   -4.96 KCAL/MOL
REMARK 922        TOTAL FREE ENERGY PREDICTED BY IDOCK:   -6.28 KCAL/MOL
REMARK 923 INTER-LIGAND FREE ENERGY PREDICTED BY IDOCK:   -5.78 KCAL/MOL
REMARK 924 INTRA-LIGAND FREE ENERGY PREDICTED BY IDOCK:   -0.50 KCAL/MOL
REMARK 927      BINDING AFFINITY PREDICTED BY RF-SCORE:    0.00 PKD
ROOT
HETATM    1  C   UNK A   0      -7.060  16.197  67.199  1.00  0.00    -0.218 C  
HETATM    2  C   UNK A   0      -6.102  16.900  66.205  1.00  0.00     0.175 C  
HETATM    3  C   UNK A   0      -6.135  18.358  66.515  1.00  0.00    -0.192 A  
HETATM    4  C   UNK A   0      -6.220  19.502  65.766  1.00  0.00    -0.194 A  
HETATM    5  N   UNK A   0      -6.136  20.569  66.633  1.00  0.00    -0.181 NA 
HETATM    6  C   UNK A   0      -6.042  20.123  67.937  1.00  0.00    -0.223 A  
HETATM    7  H   UNK A   0      -6.142  21.549  66.352  1.00  0.00     0.000 HD 
HETATM    8  C   UNK A   0      -5.886  20.781  69.159  1.00  0.00    -0.373 A  
HETATM    9  C   UNK A   0      -5.929  19.975  70.313  1.00  0.00    -0.375 A  
HETATM   10  C   UNK A   0      -6.236  18.600  70.254  1.00  0.00     0.028 A  
HETATM   11  C   UNK A   0      -6.435  17.976  69.016  1.00  0.00    -0.240 A  
HETATM   12  C   UNK A   0      -6.196  18.754  67.870  1.00  0.00    -0.203 A  
HETATM   13  C   UNK A   0      -7.083  16.690  68.679  1.00  0.00    -0.183 C  
HETATM   14  C   UNK A   0      -8.022  16.133  69.464  1.00  0.00     0.021 C  
HETATM   15  C   UNK A   0      -9.070  15.248  68.775  1.00  0.00    -0.200 C  
HETATM   16  C   UNK A   0      -5.965  14.050  67.724  1.00  0.00    -0.104 C  
HETATM   17  C   UNK A   0      -8.416  14.285  67.725  1.00  0.00    -0.176 C  
HETATM   18  N   UNK A   0      -7.124  14.717  67.128  1.00  0.00    -0.346 NA 
ENDROOT
BRANCH  15  19
HETATM   19  C   UNK A   0     -10.135  16.190  68.094  1.00  0.00    -0.237 C  
ATOM     20  N   ALA A   1      -9.958  17.543  68.355  1.00  0.00    -0.315 N  
ATOM     21  H   ALA A   1      -9.396  17.795  69.168  1.00  0.00     0.000 HD 
HETATM   22  O   UNK A   0     -11.059  15.787  67.406  1.00  0.00    -0.311 OA 
BRANCH  20  23
ATOM     23  CA  ALA A   1     -10.520  18.641  67.552  1.00  0.00    -0.428 C  
ATOM     24  CB  ALA A   1     -10.393  19.987  68.262  1.00  0.00    -0.494 C  
BRANCH  23  25
ATOM     25  C   ALA A   1      -9.987  18.728  66.112  1.00  0.00    -0.345 C  
ATOM     26  O   ALA A   1     -10.580  17.709  65.311  1.00  0.00    -0.663 OA 
ATOM     27  H   ALA A   1     -10.251  17.762  64.422  1.00  0.00     0.000 HD 
ENDBRANCH  23  25
ENDBRANCH  20  23
ENDBRANCH  15  19
TORSDOF 3
ENDMDL
MODEL       72
REMARK 921   NORMALIZED FREE ENERGY PREDICTED BY IDOCK:   -4.93 KCAL/MOL
REMARK 922        TOTAL FREE ENERGY PREDICTED BY IDOCK:   -6.24 KCAL/MOL
REMARK 923 INTER-LIGAND FREE ENERGY PREDICTED BY IDOCK:   -5.88 KCAL/MOL
REMARK 924 INTRA-LIGAND FREE ENERGY PREDICTED BY IDOCK:   -0.36 KCAL/MOL
REMARK 927      BINDING AFFINITY PREDICTED BY RF-SCORE:    0.00 PKD
ROOT
HETATM    1  C   UNK A   0      -9.730  12.929  67.353  1.00  0.00    -0.201 C  
HETATM    2  C   UNK A   0      -8.563  13.258  68.318  1.00  0.00    -0.169 C  
HETATM    3  C   UNK A   0      -7.859  14.452  67.768  1.00  0.00    -0.169 A  
HETATM    4  C   UNK A   0      -6.545  14.797  67.583  1.00  0.00    -0.158 A  
HETATM    5  N   UNK A   0      -6.523  16.082  67.086  1.00  0.00    -0.279 NA 
HETATM    6  C   UNK A   0      -7.810  16.550  66.907  1.00  0.00    -0.228 A  
HETATM    7  H   UNK A   0      -5.677  16.611  66.879  1.00  0.00     0.000 HD 
HETATM    8  C   UNK A   0      -8.326  17.778  66.487  1.00  0.00    -0.294 A  
HETATM    9  C   UNK A   0      -9.724  17.850  66.335  1.00  0.00    -0.321 A  
HETATM   10  C   UNK A   0     -10.550  16.717  66.476  1.00  0.00    -0.203 A  
HETATM   11  C   UNK A   0      -9.999  15.485  66.852  1.00  0.00    -0.251 A  
HETATM   12  C   UNK A   0      -8.634  15.481  67.187  1.00  0.00    -0.240 A  
HETATM   13  C   UNK A   0     -10.540  14.114  66.741  1.00  0.00    -0.277 C  
HETATM   14  C   UNK A   0     -11.454  13.776  65.814  1.00  0.00    -0.324 C  
HETATM   15  C   UNK A   0     -11.450  12.320  65.330  1.00  0.00    -0.402 C  
HETATM   16  C   UNK A   0     -11.565  12.169  68.815  1.00  0.00    -0.327 C  
HETATM   17  C   UNK A   0     -11.300  11.312  66.522  1.00  0.00    -0.047 C  
HETATM   18  N   UNK A   0     -10.626  11.817  67.749  1.00  0.00    -0.195 NA 
ENDROOT
BRANCH  15  19
HETATM   19  C   UNK A   0     -10.274  12.151  64.295  1.00  0.00    -0.324 C  
ATOM     20  N   ALA A   1      -9.243  11.324  64.723  1.00  0.00    -0.369 N  
ATOM     21  H   ALA A   1      -9.162  11.154  65.725  1.00  0.00     0.000 HD 
HETATM   22  O   UNK A   0     -10.238  12.707  63.208  1.00  0.00    -0.314 OA 
BRANCH  20  23
ATOM     23  CA  ALA A   1      -8.258  10.674  63.844  1.00  0.00     0.010 C  
ATOM     24  CB  ALA A   1      -7.095  10.078  64.636  1.00  0.00    -0.140 C  
BRANCH  23  25
ATOM     25  C   ALA A   1      -8.843   9.641  62.867  1.00  0.00    -0.245 C  
ATOM     26  O   ALA A   1      -8.711   8.329  63.408  1.00  0.00    -0.415 OA 
ATOM     27  H   ALA A   1      -9.072   7.691  62.805  1.00  0.00     0.000 HD 
ENDBRANCH  23  25
ENDBRANCH  20  23
ENDBRANCH  15  19
TORSDOF 3
ENDMDL
MODEL       73
REMARK 921   NORMALIZED FREE ENERGY PREDICTED BY IDOCK:   -4.93 KCAL/MOL
REMARK 922        TOTAL FREE ENERGY PREDICTED BY IDOCK:   -6.24 KCAL/MOL
REMARK 923 INTER-LIGAND FREE ENERGY PREDICTED BY IDOCK:   -5.69 KCAL/MOL
REMARK 924 INTRA-LIGAND FREE ENERGY PREDICTED BY IDOCK:   -0.54 KCAL/MOL
REMARK 927      BINDING AFFINITY PREDICTED BY RF-SCORE:    0.00 PKD
ROOT
HETATM    1  C   UNK A   0      -8.283   8.726  67.790  1.00  0.00    -0.111 C  
HETATM    2  C   UNK A   0      -7.211   8.527  68.891  1.00  0.00    -0.078 C  
HETATM    3  C   UNK A   0      -7.923   8.503  70.201  1.00  0.00    -0.105 A  
HETATM    4  C   UNK A   0      -7.707   9.076  71.428  1.00  0.00    -0.037 A  
HETATM    5  N   UNK A   0      -8.692   8.617  72.275  1.00  0.00    -0.369 NA 
HETATM    6  C   UNK A   0      -9.565   7.791  71.595  1.00  0.00    -0.155 A  
HETATM    7  H   UNK A   0      -8.766   8.855  73.264  1.00  0.00     0.000 HD 
HETATM    8  C   UNK A   0     -10.677   7.046  71.995  1.00  0.00    -0.243 A  
HETATM    9  C   UNK A   0     -11.387   6.386  70.974  1.00  0.00    -0.386 A  
HETATM   10  C   UNK A   0     -11.075   6.563  69.611  1.00  0.00    -0.435 A  
HETATM   11  C   UNK A   0      -9.982   7.356  69.236  1.00  0.00    -0.173 A  
HETATM   12  C   UNK A   0      -9.172   7.845  70.275  1.00  0.00    -0.152 A  
HETATM   13  C   UNK A   0      -9.643   7.976  67.937  1.00  0.00    -0.178 C  
HETATM   14  C   UNK A   0     -10.580   8.285  67.024  1.00  0.00    -0.328 C  
HETATM   15  C   UNK A   0     -10.278   9.464  66.088  1.00  0.00    -0.264 C  
HETATM   16  C   UNK A   0      -7.505   7.354  65.894  1.00  0.00    -0.080 C  
HETATM   17  C   UNK A   0      -8.807   9.415  65.549  1.00  0.00    -0.184 C  
HETATM   18  N   UNK A   0      -7.807   8.699  66.387  1.00  0.00    -0.097 NA 
ENDROOT
BRANCH  15  19
HETATM   19  C   UNK A   0     -10.547  10.799  66.880  1.00  0.00    -0.258 C  
ATOM     20  N   ALA A   1      -9.536  11.747  66.774  1.00  0.00    -0.196 N  
ATOM     21  H   ALA A   1      -8.614  11.420  66.484  1.00  0.00     0.000 HD 
HETATM   22  O   UNK A   0     -11.544  11.002  67.556  1.00  0.00    -0.529 OA 
BRANCH  20  23
ATOM     23  CA  ALA A   1      -9.690  13.185  67.048  1.00  0.00    -0.241 C  
ATOM     24  CB  ALA A   1      -8.342  13.869  67.265  1.00  0.00    -0.199 C  
BRANCH  23  25
ATOM     25  C   ALA A   1     -10.536  13.953  66.019  1.00  0.00    -0.293 C  
ATOM     26  O   ALA A   1     -10.077  13.667  64.700  1.00  0.00    -0.603 OA 
ATOM     27  H   ALA A   1     -10.599  14.142  64.064  1.00  0.00     0.000 HD 
ENDBRANCH  23  25
ENDBRANCH  20  23
ENDBRANCH  15  19
TORSDOF 3
ENDMDL
MODEL       74
REMARK 921   NORMALIZED FREE ENERGY PREDICTED BY IDOCK:   -4.92 KCAL/MOL
REMARK 922        TOTAL FREE ENERGY PREDICTED BY IDOCK:   -6.23 KCAL/MOL
REMARK 923 INTER-LIGAND FREE ENERGY PREDICTED BY IDOCK:   -5.54 KCAL/MOL
REMARK 924 INTRA-LIGAND FREE ENERGY PREDICTED BY IDOCK:   -0.69 KCAL/MOL
REMARK 927      BINDING AFFINITY PREDICTED BY RF-SCORE:    0.00 PKD
ROOT
HETATM    1  C   UNK A   0      -8.629   6.674  71.980  1.00  0.00    -0.123 C  
HETATM    2  C   UNK A   0      -7.778   7.968  72.001  1.00  0.00    -0.124 C  
HETATM    3  C   UNK A   0      -8.432   8.942  71.080  1.00  0.00    -0.250 A  
HETATM    4  C   UNK A   0      -7.987   9.799  70.108  1.00  0.00    -0.186 A  
HETATM    5  N   UNK A   0      -9.079  10.501  69.647  1.00  0.00    -0.405 NA 
HETATM    6  C   UNK A   0     -10.229  10.073  70.280  1.00  0.00    -0.206 A  
HETATM    7  H   UNK A   0      -9.043  11.233  68.937  1.00  0.00     0.000 HD 
HETATM    8  C   UNK A   0     -11.562  10.484  70.215  1.00  0.00    -0.417 A  
HETATM    9  C   UNK A   0     -12.487   9.725  70.956  1.00  0.00    -0.414 A  
HETATM   10  C   UNK A   0     -12.117   8.543  71.628  1.00  0.00    -0.373 A  
HETATM   11  C   UNK A   0     -10.780   8.127  71.637  1.00  0.00    -0.299 A  
HETATM   12  C   UNK A   0      -9.843   9.000  71.057  1.00  0.00    -0.352 A  
HETATM   13  C   UNK A   0     -10.183   6.810  71.946  1.00  0.00    -0.206 C  
HETATM   14  C   UNK A   0     -10.865   5.661  71.799  1.00  0.00    -0.301 C  
HETATM   15  C   UNK A   0     -10.048   4.401  71.482  1.00  0.00    -0.221 C  
HETATM   16  C   UNK A   0      -8.554   5.828  74.295  1.00  0.00    -0.111 C  
HETATM   17  C   UNK A   0      -8.759   4.307  72.370  1.00  0.00    -0.108 C  
HETATM   18  N   UNK A   0      -8.207   5.586  72.894  1.00  0.00    -0.109 NA 
ENDROOT
BRANCH  15  19
HETATM   19  C   UNK A   0      -9.679   4.430  69.950  1.00  0.00    -0.221 C  
ATOM     20  N   ALA A   1     -10.373   5.378  69.208  1.00  0.00    -0.252 N  
ATOM     21  H   ALA A   1     -11.240   5.741  69.602  1.00  0.00     0.000 HD 
HETATM   22  O   UNK A   0      -8.869   3.679  69.430  1.00  0.00    -0.076 OA 
BRANCH  20  23
ATOM     23  CA  ALA A   1      -9.955   5.898  67.896  1.00  0.00    -0.134 C  
ATOM     24  CB  ALA A   1     -11.124   6.513  67.129  1.00  0.00    -0.434 C  
BRANCH  23  25
ATOM     25  C   ALA A   1      -8.756   6.861  67.933  1.00  0.00    -0.121 C  
ATOM     26  O   ALA A   1      -7.538   6.122  67.968  1.00  0.00    -0.097 OA 
ATOM     27  H   ALA A   1      -6.798   6.716  67.991  1.00  0.00     0.000 HD 
ENDBRANCH  23  25
ENDBRANCH  20  23
ENDBRANCH  15  19
TORSDOF 3
ENDMDL
MODEL       75
REMARK 921   NORMALIZED FREE ENERGY PREDICTED BY IDOCK:   -4.91 KCAL/MOL
REMARK 922        TOTAL FREE ENERGY PREDICTED BY IDOCK:   -6.22 KCAL/MOL
REMARK 923 INTER-LIGAND FREE ENERGY PREDICTED BY IDOCK:   -5.78 KCAL/MOL
REMARK 924 INTRA-LIGAND FREE ENERGY PREDICTED BY IDOCK:   -0.44 KCAL/MOL
REMARK 927      BINDING AFFINITY PREDICTED BY RF-SCORE:    0.00 PKD
ROOT
HETATM    1  C   UNK A   0      -9.333  14.752  68.517  1.00  0.00    -0.199 C  
HETATM    2  C   UNK A   0      -8.008  14.841  69.315  1.00  0.00    -0.103 C  
HETATM    3  C   UNK A   0      -6.972  15.388  68.393  1.00  0.00    -0.111 A  
HETATM    4  C   UNK A   0      -5.670  15.070  68.106  1.00  0.00    -0.135 A  
HETATM    5  N   UNK A   0      -5.209  15.999  67.200  1.00  0.00    -0.338 NA 
HETATM    6  C   UNK A   0      -6.214  16.885  66.866  1.00  0.00    -0.191 A  
HETATM    7  H   UNK A   0      -4.260  16.028  66.828  1.00  0.00     0.000 HD 
HETATM    8  C   UNK A   0      -6.253  18.017  66.049  1.00  0.00    -0.277 A  
HETATM    9  C   UNK A   0      -7.513  18.620  65.876  1.00  0.00    -0.215 A  
HETATM   10  C   UNK A   0      -8.694  18.048  66.392  1.00  0.00    -0.249 A  
HETATM   11  C   UNK A   0      -8.630  16.885  67.169  1.00  0.00    -0.217 A  
HETATM   12  C   UNK A   0      -7.348  16.410  67.492  1.00  0.00    -0.170 A  
HETATM   13  C   UNK A   0      -9.683  15.911  67.532  1.00  0.00    -0.223 C  
HETATM   14  C   UNK A   0     -10.776  15.720  66.773  1.00  0.00    -0.293 C  
HETATM   15  C   UNK A   0     -11.420  14.328  66.818  1.00  0.00    -0.380 C  
HETATM   16  C   UNK A   0     -11.093  15.335  70.143  1.00  0.00    -0.293 C  
HETATM   17  C   UNK A   0     -11.517  13.779  68.283  1.00  0.00    -0.312 C  
HETATM   18  N   UNK A   0     -10.532  14.306  69.266  1.00  0.00    -0.404 NA 
ENDROOT
BRANCH  15  19
HETATM   19  C   UNK A   0     -10.566  13.365  65.907  1.00  0.00    -0.283 C  
ATOM     20  N   ALA A   1     -10.214  12.163  66.510  1.00  0.00    -0.204 N  
ATOM     21  H   ALA A   1     -10.247  12.121  67.528  1.00  0.00     0.000 HD 
HETATM   22  O   UNK A   0     -10.212  13.637  64.771  1.00  0.00    -0.392 OA 
BRANCH  20  23
ATOM     23  CA  ALA A   1      -9.798  10.947  65.794  1.00  0.00    -0.237 C  
ATOM     24  CB  ALA A   1      -8.353  11.041  65.306  1.00  0.00     0.056 C  
BRANCH  23  25
ATOM     25  C   ALA A   1     -10.035   9.633  66.556  1.00  0.00    -0.246 C  
ATOM     26  O   ALA A   1     -11.226   9.728  67.333  1.00  0.00    -0.368 OA 
ATOM     27  H   ALA A   1     -11.373   8.917  67.804  1.00  0.00     0.000 HD 
ENDBRANCH  23  25
ENDBRANCH  20  23
ENDBRANCH  15  19
TORSDOF 3
ENDMDL
MODEL       76
REMARK 921   NORMALIZED FREE ENERGY PREDICTED BY IDOCK:   -4.91 KCAL/MOL
REMARK 922        TOTAL FREE ENERGY PREDICTED BY IDOCK:   -6.22 KCAL/MOL
REMARK 923 INTER-LIGAND FREE ENERGY PREDICTED BY IDOCK:   -5.76 KCAL/MOL
REMARK 924 INTRA-LIGAND FREE ENERGY PREDICTED BY IDOCK:   -0.45 KCAL/MOL
REMARK 927      BINDING AFFINITY PREDICTED BY RF-SCORE:    0.00 PKD
ROOT
HETATM    1  C   UNK A   0      -8.365  15.544  69.133  1.00  0.00    -0.253 C  
HETATM    2  C   UNK A   0      -9.648  15.242  69.947  1.00  0.00    -0.061 C  
HETATM    3  C   UNK A   0     -10.705  14.841  68.975  1.00  0.00    -0.251 A  
HETATM    4  C   UNK A   0     -12.029  15.151  68.806  1.00  0.00    -0.250 A  
HETATM    5  N   UNK A   0     -12.497  14.398  67.751  1.00  0.00    -0.526 NA 
HETATM    6  C   UNK A   0     -11.477  13.639  67.212  1.00  0.00    -0.343 A  
HETATM    7  H   UNK A   0     -13.460  14.400  67.417  1.00  0.00     0.000 HD 
HETATM    8  C   UNK A   0     -11.434  12.692  66.186  1.00  0.00    -0.413 A  
HETATM    9  C   UNK A   0     -10.162  12.191  65.851  1.00  0.00    -0.272 A  
HETATM   10  C   UNK A   0      -8.981  12.702  66.425  1.00  0.00    -0.056 A  
HETATM   11  C   UNK A   0      -9.051  13.688  67.418  1.00  0.00    -0.222 A  
HETATM   12  C   UNK A   0     -10.334  14.033  67.876  1.00  0.00    -0.239 A  
HETATM   13  C   UNK A   0      -8.019  14.617  67.927  1.00  0.00    -0.149 C  
HETATM   14  C   UNK A   0      -6.969  15.001  67.180  1.00  0.00     0.075 C  
HETATM   15  C   UNK A   0      -6.375  16.385  67.474  1.00  0.00    -0.192 C  
HETATM   16  C   UNK A   0      -6.513  14.733  70.545  1.00  0.00    -0.034 C  
HETATM   17  C   UNK A   0      -6.231  16.641  69.014  1.00  0.00    -0.172 C  
HETATM   18  N   UNK A   0      -7.150  15.888  69.909  1.00  0.00    -0.030 NA 
ENDROOT
BRANCH  15  19
HETATM   19  C   UNK A   0      -7.303  17.469  66.804  1.00  0.00    -0.215 C  
ATOM     20  N   ALA A   1      -7.998  18.268  67.704  1.00  0.00    -0.239 N  
ATOM     21  H   ALA A   1      -8.107  17.919  68.656  1.00  0.00     0.000 HD 
HETATM   22  O   UNK A   0      -7.435  17.602  65.598  1.00  0.00    -0.508 OA 
BRANCH  20  23
ATOM     23  CA  ALA A   1      -8.589  19.580  67.390  1.00  0.00    -0.304 C  
ATOM     24  CB  ALA A   1      -9.828  19.861  68.238  1.00  0.00    -0.514 C  
BRANCH  23  25
ATOM     25  C   ALA A   1      -7.607  20.762  67.444  1.00  0.00    -0.300 C  
ATOM     26  O   ALA A   1      -6.617  20.528  68.442  1.00  0.00    -0.295 OA 
ATOM     27  H   ALA A   1      -6.011  21.258  68.476  1.00  0.00     0.000 HD 
ENDBRANCH  23  25
ENDBRANCH  20  23
ENDBRANCH  15  19
TORSDOF 3
ENDMDL
MODEL       77
REMARK 921   NORMALIZED FREE ENERGY PREDICTED BY IDOCK:   -4.90 KCAL/MOL
REMARK 922        TOTAL FREE ENERGY PREDICTED BY IDOCK:   -6.20 KCAL/MOL
REMARK 923 INTER-LIGAND FREE ENERGY PREDICTED BY IDOCK:   -5.37 KCAL/MOL
REMARK 924 INTRA-LIGAND FREE ENERGY PREDICTED BY IDOCK:   -0.83 KCAL/MOL
REMARK 927      BINDING AFFINITY PREDICTED BY RF-SCORE:    0.00 PKD
ROOT
HETATM    1  C   UNK A   0     -11.513   8.863  70.496  1.00  0.00    -0.200 C  
HETATM    2  C   UNK A   0     -12.515   8.138  71.428  1.00  0.00    -0.313 C  
HETATM    3  C   UNK A   0     -11.766   7.053  72.124  1.00  0.00    -0.321 A  
HETATM    4  C   UNK A   0     -12.015   5.735  72.405  1.00  0.00    -0.105 A  
HETATM    5  N   UNK A   0     -10.954   5.264  73.146  1.00  0.00    -0.282 NA 
HETATM    6  C   UNK A   0     -10.004   6.253  73.308  1.00  0.00    -0.180 A  
HETATM    7  H   UNK A   0     -10.881   4.319  73.523  1.00  0.00     0.000 HD 
HETATM    8  C   UNK A   0      -8.794   6.306  74.003  1.00  0.00    -0.133 A  
HETATM    9  C   UNK A   0      -8.037   7.484  73.851  1.00  0.00    -0.195 A  
HETATM   10  C   UNK A   0      -8.411   8.503  72.953  1.00  0.00    -0.134 A  
HETATM   11  C   UNK A   0      -9.608   8.401  72.232  1.00  0.00    -0.374 A  
HETATM   12  C   UNK A   0     -10.442   7.313  72.542  1.00  0.00    -0.273 A  
HETATM   13  C   UNK A   0     -10.063   9.112  71.017  1.00  0.00    -0.373 C  
HETATM   14  C   UNK A   0      -9.203   9.627  70.123  1.00  0.00    -0.287 C  
HETATM   15  C   UNK A   0      -9.682   9.717  68.667  1.00  0.00    -0.162 C  
HETATM   16  C   UNK A   0     -12.167  11.240  70.588  1.00  0.00    -0.393 C  
HETATM   17  C   UNK A   0     -11.151  10.256  68.572  1.00  0.00    -0.242 C  
HETATM   18  N   UNK A   0     -12.025  10.042  69.757  1.00  0.00    -0.475 NA 
ENDROOT
BRANCH  15  19
HETATM   19  C   UNK A   0      -9.562   8.283  68.023  1.00  0.00    -0.153 C  
ATOM     20  N   ALA A   1      -8.473   7.542  68.465  1.00  0.00    -0.129 N  
ATOM     21  H   ALA A   1      -7.701   8.052  68.894  1.00  0.00     0.000 HD 
HETATM   22  O   UNK A   0     -10.337   7.844  67.188  1.00  0.00    -0.268 OA 
BRANCH  20  23
ATOM     23  CA  ALA A   1      -8.346   6.080  68.361  1.00  0.00    -0.113 C  
ATOM     24  CB  ALA A   1      -6.911   5.655  68.051  1.00  0.00    -0.066 C  
BRANCH  23  25
ATOM     25  C   ALA A   1      -8.904   5.294  69.559  1.00  0.00    -0.104 C  
ATOM     26  O   ALA A   1      -7.990   5.356  70.651  1.00  0.00    -0.100 OA 
ATOM     27  H   ALA A   1      -8.334   4.871  71.391  1.00  0.00     0.000 HD 
ENDBRANCH  23  25
ENDBRANCH  20  23
ENDBRANCH  15  19
TORSDOF 3
ENDMDL
MODEL       78
REMARK 921   NORMALIZED FREE ENERGY PREDICTED BY IDOCK:   -4.84 KCAL/MOL
REMARK 922        TOTAL FREE ENERGY PREDICTED BY IDOCK:   -6.13 KCAL/MOL
REMARK 923 INTER-LIGAND FREE ENERGY PREDICTED BY IDOCK:   -5.77 KCAL/MOL
REMARK 924 INTRA-LIGAND FREE ENERGY PREDICTED BY IDOCK:   -0.37 KCAL/MOL
REMARK 927      BINDING AFFINITY PREDICTED BY RF-SCORE:    0.00 PKD
ROOT
HETATM    1  C   UNK A   0      -8.725   6.269  68.641  1.00  0.00    -0.120 C  
HETATM    2  C   UNK A   0      -7.820   6.313  69.897  1.00  0.00    -0.110 C  
HETATM    3  C   UNK A   0      -8.431   7.286  70.848  1.00  0.00    -0.128 A  
HETATM    4  C   UNK A   0      -7.949   8.301  71.633  1.00  0.00    -0.128 A  
HETATM    5  N   UNK A   0      -9.010   8.802  72.355  1.00  0.00    -0.387 NA 
HETATM    6  C   UNK A   0     -10.178   8.150  72.009  1.00  0.00    -0.249 A  
HETATM    7  H   UNK A   0      -8.942   9.548  73.046  1.00  0.00     0.000 HD 
HETATM    8  C   UNK A   0     -11.492   8.242  72.473  1.00  0.00    -0.454 A  
HETATM    9  C   UNK A   0     -12.449   7.465  71.794  1.00  0.00    -0.367 A  
HETATM   10  C   UNK A   0     -12.131   6.730  70.634  1.00  0.00    -0.371 A  
HETATM   11  C   UNK A   0     -10.812   6.694  70.164  1.00  0.00    -0.330 A  
HETATM   12  C   UNK A   0      -9.839   7.316  70.964  1.00  0.00    -0.183 A  
HETATM   13  C   UNK A   0     -10.272   6.315  68.840  1.00  0.00    -0.219 C  
HETATM   14  C   UNK A   0     -11.002   6.403  67.715  1.00  0.00    -0.425 C  
HETATM   15  C   UNK A   0     -10.238   6.650  66.407  1.00  0.00    -0.027 C  
HETATM   16  C   UNK A   0      -8.688   3.912  67.916  1.00  0.00    -0.103 C  
HETATM   17  C   UNK A   0      -8.955   5.755  66.305  1.00  0.00    -0.146 C  
HETATM   18  N   UNK A   0      -8.350   5.298  67.585  1.00  0.00    -0.106 NA 
ENDROOT
BRANCH  15  19
HETATM   19  C   UNK A   0      -9.866   8.181  66.339  1.00  0.00    -0.190 C  
ATOM     20  N   ALA A   1      -8.980   8.515  65.323  1.00  0.00    -0.390 N  
ATOM     21  H   ALA A   1      -8.417   7.763  64.924  1.00  0.00     0.000 HD 
HETATM   22  O   UNK A   0     -10.293   9.021  67.116  1.00  0.00    -0.243 OA 
BRANCH  20  23
ATOM     23  CA  ALA A   1      -8.788   9.868  64.776  1.00  0.00    -0.202 C  
ATOM     24  CB  ALA A   1      -7.309  10.241  64.687  1.00  0.00    -0.085 C  
BRANCH  23  25
ATOM     25  C   ALA A   1      -9.503  10.135  63.442  1.00  0.00    -0.261 C  
ATOM     26  O   ALA A   1      -9.308   9.035  62.556  1.00  0.00    -0.544 OA 
ATOM     27  H   ALA A   1      -9.749   9.200  61.731  1.00  0.00     0.000 HD 
ENDBRANCH  23  25
ENDBRANCH  20  23
ENDBRANCH  15  19
TORSDOF 3
ENDMDL
MODEL       79
REMARK 921   NORMALIZED FREE ENERGY PREDICTED BY IDOCK:   -4.82 KCAL/MOL
REMARK 922        TOTAL FREE ENERGY PREDICTED BY IDOCK:   -6.11 KCAL/MOL
REMARK 923 INTER-LIGAND FREE ENERGY PREDICTED BY IDOCK:   -5.28 KCAL/MOL
REMARK 924 INTRA-LIGAND FREE ENERGY PREDICTED BY IDOCK:   -0.83 KCAL/MOL
REMARK 927      BINDING AFFINITY PREDICTED BY RF-SCORE:    0.00 PKD
ROOT
HETATM    1  C   UNK A   0      -7.707   9.590  69.576  1.00  0.00    -0.100 C  
HETATM    2  C   UNK A   0      -8.508  10.857  69.186  1.00  0.00    -0.064 C  
HETATM    3  C   UNK A   0      -9.955  10.510  69.280  1.00  0.00    -0.233 A  
HETATM    4  C   UNK A   0     -11.054  10.731  68.490  1.00  0.00    -0.262 A  
HETATM    5  N   UNK A   0     -12.147  10.218  69.153  1.00  0.00    -0.612 NA 
HETATM    6  C   UNK A   0     -11.758   9.630  70.341  1.00  0.00    -0.202 A  
HETATM    7  H   UNK A   0     -13.108  10.266  68.815  1.00  0.00     0.000 HD 
HETATM    8  C   UNK A   0     -12.466   9.025  71.381  1.00  0.00    -0.378 A  
HETATM    9  C   UNK A   0     -11.697   8.442  72.406  1.00  0.00    -0.452 A  
HETATM   10  C   UNK A   0     -10.291   8.360  72.331  1.00  0.00    -0.399 A  
HETATM   11  C   UNK A   0      -9.609   8.935  71.251  1.00  0.00    -0.348 A  
HETATM   12  C   UNK A   0     -10.379   9.679  70.341  1.00  0.00    -0.350 A  
HETATM   13  C   UNK A   0      -8.235   8.711  70.752  1.00  0.00    -0.158 C  
HETATM   14  C   UNK A   0      -7.574   7.559  70.961  1.00  0.00    -0.084 C  
HETATM   15  C   UNK A   0      -6.530   7.155  69.912  1.00  0.00    -0.039 C  
HETATM   16  C   UNK A   0      -5.752  10.434  70.821  1.00  0.00    -0.099 C  
HETATM   17  C   UNK A   0      -5.638   8.371  69.481  1.00  0.00    -0.030 C  
HETATM   18  N   UNK A   0      -6.232   9.727  69.632  1.00  0.00    -0.043 NA 
ENDROOT
BRANCH  15  19
HETATM   19  C   UNK A   0      -7.291   6.545  68.673  1.00  0.00    -0.087 C  
ATOM     20  N   ALA A   1      -8.478   5.895  68.989  1.00  0.00    -0.105 N  
ATOM     21  H   ALA A   1      -8.606   5.593  69.955  1.00  0.00     0.000 HD 
HETATM   22  O   UNK A   0      -6.883   6.607  67.524  1.00  0.00    -0.070 OA 
BRANCH  20  23
ATOM     23  CA  ALA A   1      -9.565   5.607  68.040  1.00  0.00    -0.120 C  
ATOM     24  CB  ALA A   1      -9.636   4.121  67.691  1.00  0.00    -0.213 C  
BRANCH  23  25
ATOM     25  C   ALA A   1     -10.946   6.140  68.454  1.00  0.00    -0.305 C  
ATOM     26  O   ALA A   1     -11.270   7.300  67.692  1.00  0.00    -0.530 OA 
ATOM     27  H   ALA A   1     -12.122   7.630  67.948  1.00  0.00     0.000 HD 
ENDBRANCH  23  25
ENDBRANCH  20  23
ENDBRANCH  15  19
TORSDOF 3
ENDMDL
MODEL       80
REMARK 921   NORMALIZED FREE ENERGY PREDICTED BY IDOCK:   -4.81 KCAL/MOL
REMARK 922        TOTAL FREE ENERGY PREDICTED BY IDOCK:   -6.10 KCAL/MOL
REMARK 923 INTER-LIGAND FREE ENERGY PREDICTED BY IDOCK:   -5.53 KCAL/MOL
REMARK 924 INTRA-LIGAND FREE ENERGY PREDICTED BY IDOCK:   -0.57 KCAL/MOL
REMARK 927      BINDING AFFINITY PREDICTED BY RF-SCORE:    0.00 PKD
ROOT
HETATM    1  C   UNK A   0     -11.069  11.683  67.902  1.00  0.00    -0.247 C  
HETATM    2  C   UNK A   0     -11.606  10.723  68.993  1.00  0.00    -0.370 C  
HETATM    3  C   UNK A   0     -10.524   9.740  69.287  1.00  0.00    -0.236 A  
HETATM    4  C   UNK A   0     -10.475   8.381  69.461  1.00  0.00    -0.224 A  
HETATM    5  N   UNK A   0      -9.177   8.054  69.782  1.00  0.00    -0.149 NA 
HETATM    6  C   UNK A   0      -8.379   9.181  69.774  1.00  0.00    -0.136 A  
HETATM    7  H   UNK A   0      -8.850   7.112  69.996  1.00  0.00     0.000 HD 
HETATM    8  C   UNK A   0      -7.033   9.398  70.073  1.00  0.00    -0.071 A  
HETATM    9  C   UNK A   0      -6.544  10.699  69.851  1.00  0.00    -0.137 A  
HETATM   10  C   UNK A   0      -7.330  11.700  69.244  1.00  0.00     0.025 A  
HETATM   11  C   UNK A   0      -8.665  11.440  68.910  1.00  0.00    -0.012 A  
HETATM   12  C   UNK A   0      -9.188  10.201  69.317  1.00  0.00    -0.220 A  
HETATM   13  C   UNK A   0      -9.582  12.146  67.989  1.00  0.00    -0.204 C  
HETATM   14  C   UNK A   0      -9.136  12.872  66.950  1.00  0.00    -0.224 C  
HETATM   15  C   UNK A   0     -10.061  12.984  65.730  1.00  0.00    -0.294 C  
HETATM   16  C   UNK A   0     -12.000  13.891  68.487  1.00  0.00    -0.359 C  
HETATM   17  C   UNK A   0     -11.546  13.258  66.151  1.00  0.00    -0.348 C  
HETATM   18  N   UNK A   0     -11.956  12.803  67.507  1.00  0.00    -0.381 NA 
ENDROOT
BRANCH  15  19
HETATM   19  C   UNK A   0      -9.944  11.647  64.903  1.00  0.00    -0.255 C  
ATOM     20  N   ALA A   1      -8.672  11.087  64.889  1.00  0.00    -0.362 N  
ATOM     21  H   ALA A   1      -7.888  11.697  65.120  1.00  0.00     0.000 HD 
HETATM   22  O   UNK A   0     -10.874  11.135  64.300  1.00  0.00    -0.361 OA 
BRANCH  20  23
ATOM     23  CA  ALA A   1      -8.368   9.684  64.566  1.00  0.00    -0.169 C  
ATOM     24  CB  ALA A   1      -9.143   8.715  65.456  1.00  0.00    -0.190 C  
BRANCH  23  25
ATOM     25  C   ALA A   1      -8.525   9.312  63.082  1.00  0.00    -0.212 C  
ATOM     26  O   ALA A   1      -8.539   7.895  62.934  1.00  0.00    -0.400 OA 
ATOM     27  H   ALA A   1      -8.636   7.665  62.017  1.00  0.00     0.000 HD 
ENDBRANCH  23  25
ENDBRANCH  20  23
ENDBRANCH  15  19
TORSDOF 3
ENDMDL
MODEL       81
REMARK 921   NORMALIZED FREE ENERGY PREDICTED BY IDOCK:   -4.81 KCAL/MOL
REMARK 922        TOTAL FREE ENERGY PREDICTED BY IDOCK:   -6.10 KCAL/MOL
REMARK 923 INTER-LIGAND FREE ENERGY PREDICTED BY IDOCK:   -5.55 KCAL/MOL
REMARK 924 INTRA-LIGAND FREE ENERGY PREDICTED BY IDOCK:   -0.55 KCAL/MOL
REMARK 927      BINDING AFFINITY PREDICTED BY RF-SCORE:    0.00 PKD
ROOT
HETATM    1  C   UNK A   0     -10.224   8.067  68.854  1.00  0.00    -0.209 C  
HETATM    2  C   UNK A   0     -10.660   6.585  68.733  1.00  0.00    -0.282 C  
HETATM    3  C   UNK A   0     -10.220   6.104  67.392  1.00  0.00    -0.226 A  
HETATM    4  C   UNK A   0     -10.800   5.365  66.394  1.00  0.00    -0.131 A  
HETATM    5  N   UNK A   0      -9.854   5.188  65.409  1.00  0.00    -0.370 NA 
HETATM    6  C   UNK A   0      -8.684   5.842  65.743  1.00  0.00    -0.151 A  
HETATM    7  H   UNK A   0      -9.996   4.650  64.555  1.00  0.00     0.000 HD 
HETATM    8  C   UNK A   0      -7.434   5.933  65.127  1.00  0.00    -0.079 A  
HETATM    9  C   UNK A   0      -6.499   6.792  65.733  1.00  0.00    -0.050 A  
HETATM   10  C   UNK A   0      -6.837   7.612  66.828  1.00  0.00    -0.067 A  
HETATM   11  C   UNK A   0      -8.114   7.536  67.397  1.00  0.00    -0.116 A  
HETATM   12  C   UNK A   0      -8.967   6.535  66.901  1.00  0.00    -0.128 A  
HETATM   13  C   UNK A   0      -8.831   8.478  68.283  1.00  0.00    -0.142 C  
HETATM   14  C   UNK A   0      -8.561   9.795  68.300  1.00  0.00    -0.119 C  
HETATM   15  C   UNK A   0      -9.711  10.737  68.680  1.00  0.00    -0.187 C  
HETATM   16  C   UNK A   0      -9.560   8.342  71.214  1.00  0.00    -0.171 C  
HETATM   17  C   UNK A   0     -10.515  10.203  69.915  1.00  0.00    -0.275 C  
HETATM   18  N   UNK A   0     -10.488   8.734  70.151  1.00  0.00    -0.207 NA 
ENDROOT
BRANCH  15  19
HETATM   19  C   UNK A   0     -10.647  10.900  67.422  1.00  0.00    -0.243 C  
ATOM     20  N   ALA A   1      -9.974  11.142  66.230  1.00  0.00    -0.212 N  
ATOM     21  H   ALA A   1      -9.019  11.496  66.293  1.00  0.00     0.000 HD 
HETATM   22  O   UNK A   0     -11.865  10.843  67.467  1.00  0.00    -0.524 OA 
BRANCH  20  23
ATOM     23  CA  ALA A   1     -10.531  10.928  64.885  1.00  0.00    -0.282 C  
ATOM     24  CB  ALA A   1     -11.187  12.193  64.334  1.00  0.00    -0.400 C  
BRANCH  23  25
ATOM     25  C   ALA A   1      -9.548  10.331  63.865  1.00  0.00    -0.293 C  
ATOM     26  O   ALA A   1     -10.149  10.292  62.573  1.00  0.00    -0.687 OA 
ATOM     27  H   ALA A   1      -9.542   9.923  61.943  1.00  0.00     0.000 HD 
ENDBRANCH  23  25
ENDBRANCH  20  23
ENDBRANCH  15  19
TORSDOF 3
ENDMDL
MODEL       82
REMARK 921   NORMALIZED FREE ENERGY PREDICTED BY IDOCK:   -4.81 KCAL/MOL
REMARK 922        TOTAL FREE ENERGY PREDICTED BY IDOCK:   -6.10 KCAL/MOL
REMARK 923 INTER-LIGAND FREE ENERGY PREDICTED BY IDOCK:   -5.37 KCAL/MOL
REMARK 924 INTRA-LIGAND FREE ENERGY PREDICTED BY IDOCK:   -0.72 KCAL/MOL
REMARK 927      BINDING AFFINITY PREDICTED BY RF-SCORE:    0.00 PKD
ROOT
HETATM    1  C   UNK A   0     -11.485  13.387  66.583  1.00  0.00    -0.344 C  
HETATM    2  C   UNK A   0     -12.407  14.132  67.580  1.00  0.00    -0.073 C  
HETATM    3  C   UNK A   0     -11.561  15.117  68.313  1.00  0.00    -0.357 A  
HETATM    4  C   UNK A   0     -11.433  15.491  69.626  1.00  0.00    -0.329 A  
HETATM    5  N   UNK A   0     -10.517  16.519  69.673  1.00  0.00    -0.295 NA 
HETATM    6  C   UNK A   0     -10.023  16.782  68.410  1.00  0.00    -0.268 A  
HETATM    7  H   UNK A   0     -10.244  17.016  70.520  1.00  0.00     0.000 HD 
HETATM    8  C   UNK A   0      -9.132  17.737  67.916  1.00  0.00    -0.259 A  
HETATM    9  C   UNK A   0      -8.790  17.628  66.555  1.00  0.00    -0.287 A  
HETATM   10  C   UNK A   0      -9.220  16.546  65.760  1.00  0.00    -0.071 A  
HETATM   11  C   UNK A   0     -10.076  15.575  66.296  1.00  0.00    -0.312 A  
HETATM   12  C   UNK A   0     -10.560  15.808  67.595  1.00  0.00    -0.301 A  
HETATM   13  C   UNK A   0     -10.393  14.209  65.829  1.00  0.00    -0.338 C  
HETATM   14  C   UNK A   0      -9.541  13.492  65.077  1.00  0.00     0.250 C  
HETATM   15  C   UNK A   0      -9.612  11.964  65.208  1.00  0.00    -0.156 C  
HETATM   16  C   UNK A   0     -12.878  13.023  64.581  1.00  0.00    -0.207 C  
HETATM   17  C   UNK A   0     -11.094  11.450  65.216  1.00  0.00    -0.129 C  
HETATM   18  N   UNK A   0     -12.134  12.407  65.681  1.00  0.00    -0.584 NA 
ENDROOT
BRANCH  15  19
HETATM   19  C   UNK A   0      -8.862  11.551  66.531  1.00  0.00    -0.190 C  
ATOM     20  N   ALA A   1      -7.582  12.078  66.657  1.00  0.00    -0.374 N  
ATOM     21  H   ALA A   1      -7.123  12.404  65.807  1.00  0.00     0.000 HD 
HETATM   22  O   UNK A   0      -9.335  10.813  67.381  1.00  0.00    -0.150 OA 
BRANCH  20  23
ATOM     23  CA  ALA A   1      -6.838  12.203  67.920  1.00  0.00    -0.095 C  
ATOM     24  CB  ALA A   1      -5.356  11.878  67.741  1.00  0.00    -0.063 C  
BRANCH  23  25
ATOM     25  C   ALA A   1      -7.022  13.543  68.651  1.00  0.00    -0.100 C  
ATOM     26  O   ALA A   1      -8.399  13.743  68.963  1.00  0.00    -0.346 OA 
ATOM     27  H   ALA A   1      -8.512  14.571  69.414  1.00  0.00     0.000 HD 
ENDBRANCH  23  25
ENDBRANCH  20  23
ENDBRANCH  15  19
TORSDOF 3
ENDMDL
MODEL       83
REMARK 921   NORMALIZED FREE ENERGY PREDICTED BY IDOCK:   -4.78 KCAL/MOL
REMARK 922        TOTAL FREE ENERGY PREDICTED BY IDOCK:   -6.07 KCAL/MOL
REMARK 923 INTER-LIGAND FREE ENERGY PREDICTED BY IDOCK:   -5.70 KCAL/MOL
REMARK 924 INTRA-LIGAND FREE ENERGY PREDICTED BY IDOCK:   -0.37 KCAL/MOL
REMARK 927      BINDING AFFINITY PREDICTED BY RF-SCORE:    0.00 PKD
ROOT
HETATM    1  C   UNK A   0     -10.511   9.417  68.198  1.00  0.00    -0.220 C  
HETATM    2  C   UNK A   0     -10.762   7.914  67.921  1.00  0.00    -0.147 C  
HETATM    3  C   UNK A   0      -9.528   7.371  67.283  1.00  0.00    -0.179 A  
HETATM    4  C   UNK A   0      -9.275   6.549  66.216  1.00  0.00    -0.133 A  
HETATM    5  N   UNK A   0      -7.913   6.352  66.162  1.00  0.00    -0.108 NA 
HETATM    6  C   UNK A   0      -7.282   7.074  67.156  1.00  0.00    -0.089 A  
HETATM    7  H   UNK A   0      -7.437   5.757  65.483  1.00  0.00     0.000 HD 
HETATM    8  C   UNK A   0      -5.949   7.180  67.556  1.00  0.00    -0.033 A  
HETATM    9  C   UNK A   0      -5.673   8.113  68.574  1.00  0.00    -0.037 A  
HETATM   10  C   UNK A   0      -6.661   8.984  69.077  1.00  0.00    -0.048 A  
HETATM   11  C   UNK A   0      -7.982   8.888  68.622  1.00  0.00    -0.103 A  
HETATM   12  C   UNK A   0      -8.275   7.824  67.752  1.00  0.00    -0.126 A  
HETATM   13  C   UNK A   0      -9.101   9.851  68.706  1.00  0.00    -0.147 C  
HETATM   14  C   UNK A   0      -8.901  11.177  68.806  1.00  0.00    -0.128 C  
HETATM   15  C   UNK A   0      -9.989  12.091  68.226  1.00  0.00    -0.203 C  
HETATM   16  C   UNK A   0     -11.641   9.863  70.344  1.00  0.00    -0.282 C  
HETATM   17  C   UNK A   0     -11.427  11.600  68.612  1.00  0.00    -0.290 C  
HETATM   18  N   UNK A   0     -11.585  10.150  68.910  1.00  0.00    -0.504 NA 
ENDROOT
BRANCH  15  19
HETATM   19  C   UNK A   0      -9.806  12.137  66.661  1.00  0.00    -0.211 C  
ATOM     20  N   ALA A   1     -10.951  12.493  65.957  1.00  0.00    -0.274 N  
ATOM     21  H   ALA A   1     -11.846  12.391  66.434  1.00  0.00     0.000 HD 
HETATM   22  O   UNK A   0      -8.762  11.868  66.088  1.00  0.00    -0.133 OA 
BRANCH  20  23
ATOM     23  CA  ALA A   1     -10.972  13.005  64.578  1.00  0.00    -0.358 C  
ATOM     24  CB  ALA A   1     -10.876  11.877  63.551  1.00  0.00    -0.502 C  
BRANCH  23  25
ATOM     25  C   ALA A   1     -12.145  13.944  64.253  1.00  0.00    -0.440 C  
ATOM     26  O   ALA A   1     -12.527  13.793  62.888  1.00  0.00    -1.009 OA 
ATOM     27  H   ALA A   1     -13.251  14.373  62.687  1.00  0.00     0.000 HD 
ENDBRANCH  23  25
ENDBRANCH  20  23
ENDBRANCH  15  19
TORSDOF 3
ENDMDL
MODEL       84
REMARK 921   NORMALIZED FREE ENERGY PREDICTED BY IDOCK:   -4.76 KCAL/MOL
REMARK 922        TOTAL FREE ENERGY PREDICTED BY IDOCK:   -6.04 KCAL/MOL
REMARK 923 INTER-LIGAND FREE ENERGY PREDICTED BY IDOCK:   -5.18 KCAL/MOL
REMARK 924 INTRA-LIGAND FREE ENERGY PREDICTED BY IDOCK:   -0.86 KCAL/MOL
REMARK 927      BINDING AFFINITY PREDICTED BY RF-SCORE:    0.00 PKD
ROOT
HETATM    1  C   UNK A   0     -10.105   8.308  70.834  1.00  0.00    -0.190 C  
HETATM    2  C   UNK A   0      -8.899   9.025  70.178  1.00  0.00    -0.196 C  
HETATM    3  C   UNK A   0      -8.232   8.039  69.281  1.00  0.00    -0.127 A  
HETATM    4  C   UNK A   0      -6.932   7.679  69.039  1.00  0.00    -0.069 A  
HETATM    5  N   UNK A   0      -6.946   6.738  68.033  1.00  0.00    -0.077 NA 
HETATM    6  C   UNK A   0      -8.244   6.456  67.656  1.00  0.00    -0.118 A  
HETATM    7  H   UNK A   0      -6.115   6.311  67.625  1.00  0.00     0.000 HD 
HETATM    8  C   UNK A   0      -8.791   5.632  66.669  1.00  0.00    -0.119 A  
HETATM    9  C   UNK A   0     -10.194   5.528  66.650  1.00  0.00    -0.279 A  
HETATM   10  C   UNK A   0     -11.002   6.119  67.642  1.00  0.00    -0.400 A  
HETATM   11  C   UNK A   0     -10.422   6.901  68.649  1.00  0.00    -0.217 A  
HETATM   12  C   UNK A   0      -9.043   7.152  68.538  1.00  0.00    -0.132 A  
HETATM   13  C   UNK A   0     -10.954   7.335  69.959  1.00  0.00    -0.273 C  
HETATM   14  C   UNK A   0     -11.905   6.644  70.611  1.00  0.00    -0.443 C  
HETATM   15  C   UNK A   0     -11.908   6.738  72.143  1.00  0.00    -0.326 C  
HETATM   16  C   UNK A   0     -11.865  10.029  70.981  1.00  0.00    -0.386 C  
HETATM   17  C   UNK A   0     -11.694   8.212  72.634  1.00  0.00    -0.355 C  
HETATM   18  N   UNK A   0     -10.971   9.130  71.713  1.00  0.00    -0.370 NA 
ENDROOT
BRANCH  15  19
HETATM   19  C   UNK A   0     -10.777   5.788  72.694  1.00  0.00    -0.240 C  
ATOM     20  N   ALA A   1     -10.487   4.703  71.876  1.00  0.00    -0.149 N  
ATOM     21  H   ALA A   1     -11.190   4.430  71.189  1.00  0.00     0.000 HD 
HETATM   22  O   UNK A   0     -10.203   5.958  73.758  1.00  0.00    -0.201 OA 
BRANCH  20  23
ATOM     23  CA  ALA A   1      -9.244   3.916  71.923  1.00  0.00    -0.123 C  
ATOM     24  CB  ALA A   1      -9.469   2.472  71.477  1.00  0.00    -0.211 C  
BRANCH  23  25
ATOM     25  C   ALA A   1      -8.053   4.540  71.179  1.00  0.00    -0.086 C  
ATOM     26  O   ALA A   1      -7.513   5.618  71.940  1.00  0.00    -0.090 OA 
ATOM     27  H   ALA A   1      -6.777   6.004  71.481  1.00  0.00     0.000 HD 
ENDBRANCH  23  25
ENDBRANCH  20  23
ENDBRANCH  15  19
TORSDOF 3
ENDMDL
MODEL       85
REMARK 921   NORMALIZED FREE ENERGY PREDICTED BY IDOCK:   -4.76 KCAL/MOL
REMARK 922        TOTAL FREE ENERGY PREDICTED BY IDOCK:   -6.04 KCAL/MOL
REMARK 923 INTER-LIGAND FREE ENERGY PREDICTED BY IDOCK:   -5.78 KCAL/MOL
REMARK 924 INTRA-LIGAND FREE ENERGY PREDICTED BY IDOCK:   -0.26 KCAL/MOL
REMARK 927      BINDING AFFINITY PREDICTED BY RF-SCORE:    0.00 PKD
ROOT
HETATM    1  C   UNK A   0     -10.850  12.013  66.172  1.00  0.00    -0.286 C  
HETATM    2  C   UNK A   0     -12.034  12.913  66.607  1.00  0.00    -0.436 C  
HETATM    3  C   UNK A   0     -11.642  13.570  67.887  1.00  0.00    -0.377 A  
HETATM    4  C   UNK A   0     -12.267  13.801  69.085  1.00  0.00    -0.250 A  
HETATM    5  N   UNK A   0     -11.399  14.529  69.869  1.00  0.00    -0.318 NA 
HETATM    6  C   UNK A   0     -10.205  14.731  69.204  1.00  0.00    -0.220 A  
HETATM    7  H   UNK A   0     -11.608  14.869  70.807  1.00  0.00     0.000 HD 
HETATM    8  C   UNK A   0      -9.042  15.433  69.529  1.00  0.00    -0.231 A  
HETATM    9  C   UNK A   0      -7.974  15.329  68.617  1.00  0.00    -0.149 A  
HETATM   10  C   UNK A   0      -8.024  14.468  67.503  1.00  0.00    -0.208 A  
HETATM   11  C   UNK A   0      -9.187  13.738  67.228  1.00  0.00    -0.239 A  
HETATM   12  C   UNK A   0     -10.305  14.004  68.037  1.00  0.00    -0.240 A  
HETATM   13  C   UNK A   0      -9.399  12.550  66.374  1.00  0.00    -0.209 C  
HETATM   14  C   UNK A   0      -8.413  11.679  66.100  1.00  0.00    -0.008 C  
HETATM   15  C   UNK A   0      -8.823  10.226  65.824  1.00  0.00    -0.179 C  
HETATM   16  C   UNK A   0     -10.788  12.191  63.713  1.00  0.00    -0.432 C  
HETATM   17  C   UNK A   0     -10.071  10.144  64.878  1.00  0.00    -0.207 C  
HETATM   18  N   UNK A   0     -10.987  11.317  64.871  1.00  0.00    -0.224 NA 
ENDROOT
BRANCH  15  19
HETATM   19  C   UNK A   0      -9.114   9.528  67.207  1.00  0.00    -0.130 C  
ATOM     20  N   ALA A   1      -9.982   8.445  67.136  1.00  0.00    -0.212 N  
ATOM     21  H   ALA A   1     -10.583   8.378  66.314  1.00  0.00     0.000 HD 
HETATM   22  O   UNK A   0      -8.645   9.902  68.271  1.00  0.00    -0.113 OA 
BRANCH  20  23
ATOM     23  CA  ALA A   1     -10.102   7.388  68.153  1.00  0.00    -0.179 C  
ATOM     24  CB  ALA A   1      -8.760   6.715  68.435  1.00  0.00    -0.122 C  
BRANCH  23  25
ATOM     25  C   ALA A   1     -10.784   7.822  69.461  1.00  0.00    -0.198 C  
ATOM     26  O   ALA A   1     -11.879   6.956  69.751  1.00  0.00    -0.613 OA 
ATOM     27  H   ALA A   1     -12.300   7.225  70.558  1.00  0.00     0.000 HD 
ENDBRANCH  23  25
ENDBRANCH  20  23
ENDBRANCH  15  19
TORSDOF 3
ENDMDL
MODEL       86
REMARK 921   NORMALIZED FREE ENERGY PREDICTED BY IDOCK:   -4.72 KCAL/MOL
REMARK 922        TOTAL FREE ENERGY PREDICTED BY IDOCK:   -6.00 KCAL/MOL
REMARK 923 INTER-LIGAND FREE ENERGY PREDICTED BY IDOCK:   -5.42 KCAL/MOL
REMARK 924 INTRA-LIGAND FREE ENERGY PREDICTED BY IDOCK:   -0.58 KCAL/MOL
REMARK 927      BINDING AFFINITY PREDICTED BY RF-SCORE:    0.00 PKD
ROOT
HETATM    1  C   UNK A   0      -9.535   6.528  69.432  1.00  0.00    -0.145 C  
HETATM    2  C   UNK A   0     -10.916   5.879  69.700  1.00  0.00    -0.447 C  
HETATM    3  C   UNK A   0     -11.596   6.699  70.743  1.00  0.00    -0.432 A  
HETATM    4  C   UNK A   0     -12.306   6.417  71.881  1.00  0.00    -0.225 A  
HETATM    5  N   UNK A   0     -12.747   7.616  72.398  1.00  0.00    -0.522 NA 
HETATM    6  C   UNK A   0     -12.291   8.668  71.629  1.00  0.00    -0.333 A  
HETATM    7  H   UNK A   0     -13.329   7.711  73.230  1.00  0.00     0.000 HD 
HETATM    8  C   UNK A   0     -12.491  10.049  71.690  1.00  0.00    -0.513 A  
HETATM    9  C   UNK A   0     -11.766  10.827  70.769  1.00  0.00    -0.400 A  
HETATM   10  C   UNK A   0     -10.796  10.265  69.914  1.00  0.00    -0.355 A  
HETATM   11  C   UNK A   0     -10.582   8.881  69.908  1.00  0.00    -0.229 A  
HETATM   12  C   UNK A   0     -11.451   8.103  70.693  1.00  0.00    -0.237 A  
HETATM   13  C   UNK A   0      -9.444   8.085  69.399  1.00  0.00    -0.159 C  
HETATM   14  C   UNK A   0      -8.204   8.594  69.292  1.00  0.00    -0.113 C  
HETATM   15  C   UNK A   0      -7.034   7.609  69.420  1.00  0.00    -0.063 C  
HETATM   16  C   UNK A   0      -9.164   6.254  67.010  1.00  0.00    -0.124 C  
HETATM   17  C   UNK A   0      -7.291   6.293  68.607  1.00  0.00    -0.086 C  
HETATM   18  N   UNK A   0      -8.711   5.920  68.361  1.00  0.00    -0.113 NA 
ENDROOT
BRANCH  15  19
HETATM   19  C   UNK A   0      -6.822   7.297  70.950  1.00  0.00    -0.052 C  
ATOM     20  N   ALA A   1      -7.460   8.181  71.812  1.00  0.00    -0.081 N  
ATOM     21  H   ALA A   1      -7.731   9.090  71.437  1.00  0.00     0.000 HD 
HETATM   22  O   UNK A   0      -6.142   6.374  71.370  1.00  0.00    -0.038 OA 
BRANCH  20  23
ATOM     23  CA  ALA A   1      -7.775   7.908  73.224  1.00  0.00    -0.143 C  
ATOM     24  CB  ALA A   1      -6.847   8.669  74.170  1.00  0.00    -0.099 C  
BRANCH  23  25
ATOM     25  C   ALA A   1      -9.247   8.120  73.612  1.00  0.00    -0.107 C  
ATOM     26  O   ALA A   1      -9.699   7.036  74.420  1.00  0.00    -0.400 OA 
ATOM     27  H   ALA A   1     -10.609   7.167  74.659  1.00  0.00     0.000 HD 
ENDBRANCH  23  25
ENDBRANCH  20  23
ENDBRANCH  15  19
TORSDOF 3
ENDMDL
MODEL       87
REMARK 921   NORMALIZED FREE ENERGY PREDICTED BY IDOCK:   -4.70 KCAL/MOL
REMARK 922        TOTAL FREE ENERGY PREDICTED BY IDOCK:   -5.97 KCAL/MOL
REMARK 923 INTER-LIGAND FREE ENERGY PREDICTED BY IDOCK:   -5.52 KCAL/MOL
REMARK 924 INTRA-LIGAND FREE ENERGY PREDICTED BY IDOCK:   -0.45 KCAL/MOL
REMARK 927      BINDING AFFINITY PREDICTED BY RF-SCORE:    0.00 PKD
ROOT
HETATM    1  C   UNK A   0     -11.247   7.148  70.245  1.00  0.00    -0.276 C  
HETATM    2  C   UNK A   0     -11.143   5.865  69.385  1.00  0.00    -0.369 C  
HETATM    3  C   UNK A   0      -9.740   5.778  68.888  1.00  0.00    -0.174 A  
HETATM    4  C   UNK A   0      -9.159   5.492  67.680  1.00  0.00    -0.107 A  
HETATM    5  N   UNK A   0      -7.795   5.502  67.866  1.00  0.00    -0.096 NA 
HETATM    6  C   UNK A   0      -7.489   5.836  69.171  1.00  0.00    -0.084 A  
HETATM    7  H   UNK A   0      -7.107   5.293  67.143  1.00  0.00     0.000 HD 
HETATM    8  C   UNK A   0      -6.286   5.933  69.872  1.00  0.00    -0.027 A  
HETATM    9  C   UNK A   0      -6.370   6.405  71.196  1.00  0.00    -0.048 A  
HETATM   10  C   UNK A   0      -7.579   6.873  71.748  1.00  0.00    -0.093 A  
HETATM   11  C   UNK A   0      -8.764   6.807  71.004  1.00  0.00    -0.137 A  
HETATM   12  C   UNK A   0      -8.694   6.155  69.761  1.00  0.00    -0.135 A  
HETATM   13  C   UNK A   0     -10.053   7.511  71.182  1.00  0.00    -0.195 C  
HETATM   14  C   UNK A   0     -10.142   8.698  71.806  1.00  0.00    -0.380 C  
HETATM   15  C   UNK A   0     -11.285   9.628  71.375  1.00  0.00    -0.426 C  
HETATM   16  C   UNK A   0     -12.772   6.553  72.090  1.00  0.00    -0.050 C  
HETATM   17  C   UNK A   0     -12.637   8.851  71.216  1.00  0.00    -0.262 C  
HETATM   18  N   UNK A   0     -12.546   7.396  70.915  1.00  0.00    -0.564 NA 
ENDROOT
BRANCH  15  19
HETATM   19  C   UNK A   0     -10.868  10.320  70.022  1.00  0.00    -0.307 C  
ATOM     20  N   ALA A   1     -11.919  10.904  69.324  1.00  0.00    -0.430 N  
ATOM     21  H   ALA A   1     -12.863  10.589  69.549  1.00  0.00     0.000 HD 
HETATM   22  O   UNK A   0      -9.726  10.339  69.589  1.00  0.00    -0.228 OA 
BRANCH  20  23
ATOM     23  CA  ALA A   1     -11.777  11.939  68.288  1.00  0.00    -0.321 C  
ATOM     24  CB  ALA A   1     -11.183  13.229  68.850  1.00  0.00    -0.322 C  
BRANCH  23  25
ATOM     25  C   ALA A   1     -11.021  11.492  67.026  1.00  0.00    -0.294 C  
ATOM     26  O   ALA A   1      -9.686  11.990  67.054  1.00  0.00    -0.192 OA 
ATOM     27  H   ALA A   1      -9.220  11.715  66.274  1.00  0.00     0.000 HD 
ENDBRANCH  23  25
ENDBRANCH  20  23
ENDBRANCH  15  19
TORSDOF 3
ENDMDL
MODEL       88
REMARK 921   NORMALIZED FREE ENERGY PREDICTED BY IDOCK:   -4.70 KCAL/MOL
REMARK 922        TOTAL FREE ENERGY PREDICTED BY IDOCK:   -5.97 KCAL/MOL
REMARK 923 INTER-LIGAND FREE ENERGY PREDICTED BY IDOCK:   -5.12 KCAL/MOL
REMARK 924 INTRA-LIGAND FREE ENERGY PREDICTED BY IDOCK:   -0.85 KCAL/MOL
REMARK 927      BINDING AFFINITY PREDICTED BY RF-SCORE:    0.00 PKD
ROOT
HETATM    1  C   UNK A   0     -10.962   6.911  70.534  1.00  0.00    -0.273 C  
HETATM    2  C   UNK A   0     -11.132   6.340  69.104  1.00  0.00    -0.457 C  
HETATM    3  C   UNK A   0     -10.116   5.262  68.935  1.00  0.00    -0.254 A  
HETATM    4  C   UNK A   0      -9.237   4.910  67.944  1.00  0.00    -0.122 A  
HETATM    5  N   UNK A   0      -8.598   3.760  68.350  1.00  0.00    -0.092 NA 
HETATM    6  C   UNK A   0      -9.025   3.391  69.611  1.00  0.00    -0.113 A  
HETATM    7  H   UNK A   0      -7.908   3.252  67.797  1.00  0.00     0.000 HD 
HETATM    8  C   UNK A   0      -8.733   2.301  70.434  1.00  0.00    -0.119 A  
HETATM    9  C   UNK A   0      -9.302   2.320  71.721  1.00  0.00    -0.178 A  
HETATM   10  C   UNK A   0     -10.024   3.430  72.203  1.00  0.00    -0.230 A  
HETATM   11  C   UNK A   0     -10.261   4.532  71.371  1.00  0.00    -0.183 A  
HETATM   12  C   UNK A   0      -9.853   4.410  70.032  1.00  0.00    -0.294 A  
HETATM   13  C   UNK A   0     -10.663   5.916  71.698  1.00  0.00    -0.308 C  
HETATM   14  C   UNK A   0     -10.398   6.478  72.890  1.00  0.00    -0.232 C  
HETATM   15  C   UNK A   0     -10.222   8.002  72.919  1.00  0.00    -0.384 C  
HETATM   16  C   UNK A   0     -13.253   7.421  71.291  1.00  0.00    -0.281 C  
HETATM   17  C   UNK A   0     -11.317   8.729  72.064  1.00  0.00    -0.371 C  
HETATM   18  N   UNK A   0     -11.931   7.951  70.955  1.00  0.00    -0.431 NA 
ENDROOT
BRANCH  15  19
HETATM   19  C   UNK A   0      -8.775   8.337  72.389  1.00  0.00    -0.213 C  
ATOM     20  N   ALA A   1      -7.772   7.519  72.893  1.00  0.00    -0.088 N  
ATOM     21  H   ALA A   1      -7.971   7.007  73.753  1.00  0.00     0.000 HD 
HETATM   22  O   UNK A   0      -8.527   9.248  71.615  1.00  0.00    -0.304 OA 
BRANCH  20  23
ATOM     23  CA  ALA A   1      -6.445   7.332  72.285  1.00  0.00    -0.051 C  
ATOM     24  CB  ALA A   1      -5.420   6.829  73.301  1.00  0.00    -0.042 C  
BRANCH  23  25
ATOM     25  C   ALA A   1      -6.431   6.464  71.016  1.00  0.00    -0.049 C  
ATOM     26  O   ALA A   1      -6.893   7.223  69.901  1.00  0.00    -0.053 OA 
ATOM     27  H   ALA A   1      -6.884   6.687  69.117  1.00  0.00     0.000 HD 
ENDBRANCH  23  25
ENDBRANCH  20  23
ENDBRANCH  15  19
TORSDOF 3
ENDMDL
MODEL       89
REMARK 921   NORMALIZED FREE ENERGY PREDICTED BY IDOCK:   -4.70 KCAL/MOL
REMARK 922        TOTAL FREE ENERGY PREDICTED BY IDOCK:   -5.97 KCAL/MOL
REMARK 923 INTER-LIGAND FREE ENERGY PREDICTED BY IDOCK:   -5.39 KCAL/MOL
REMARK 924 INTRA-LIGAND FREE ENERGY PREDICTED BY IDOCK:   -0.58 KCAL/MOL
REMARK 927      BINDING AFFINITY PREDICTED BY RF-SCORE:    0.00 PKD
ROOT
HETATM    1  C   UNK A   0      -9.040  11.539  66.979  1.00  0.00    -0.175 C  
HETATM    2  C   UNK A   0      -8.066  12.074  68.058  1.00  0.00    -0.153 C  
HETATM    3  C   UNK A   0      -7.673  13.454  67.653  1.00  0.00    -0.179 A  
HETATM    4  C   UNK A   0      -6.491  14.146  67.603  1.00  0.00    -0.135 A  
HETATM    5  N   UNK A   0      -6.782  15.431  67.200  1.00  0.00    -0.275 NA 
HETATM    6  C   UNK A   0      -8.134  15.561  66.948  1.00  0.00    -0.249 A  
HETATM    7  H   UNK A   0      -6.097  16.179  67.102  1.00  0.00     0.000 HD 
HETATM    8  C   UNK A   0      -8.932  16.644  66.573  1.00  0.00    -0.310 A  
HETATM    9  C   UNK A   0     -10.286  16.361  66.310  1.00  0.00    -0.341 A  
HETATM   10  C   UNK A   0     -10.787  15.043  66.302  1.00  0.00    -0.333 A  
HETATM   11  C   UNK A   0      -9.951  13.970  66.635  1.00  0.00    -0.280 A  
HETATM   12  C   UNK A   0      -8.658  14.292  67.083  1.00  0.00    -0.234 A  
HETATM   13  C   UNK A   0     -10.098  12.520  66.384  1.00  0.00    -0.255 C  
HETATM   14  C   UNK A   0     -10.829  12.040  65.363  1.00  0.00    -0.336 C  
HETATM   15  C   UNK A   0     -10.406  10.684  64.781  1.00  0.00    -0.353 C  
HETATM   16  C   UNK A   0     -10.693  10.198  68.225  1.00  0.00    -0.238 C  
HETATM   17  C   UNK A   0     -10.067   9.649  65.908  1.00  0.00    -0.234 C  
HETATM   18  N   UNK A   0      -9.629  10.200  67.219  1.00  0.00    -0.157 NA 
ENDROOT
BRANCH  15  19
HETATM   19  C   UNK A   0      -9.165  10.922  63.839  1.00  0.00    -0.203 C  
ATOM     20  N   ALA A   1      -8.080  10.092  64.093  1.00  0.00    -0.157 N  
ATOM     21  H   ALA A   1      -8.036   9.643  65.008  1.00  0.00     0.000 HD 
HETATM   22  O   UNK A   0      -9.128  11.773  62.963  1.00  0.00    -0.228 OA 
BRANCH  20  23
ATOM     23  CA  ALA A   1      -6.989   9.810  63.146  1.00  0.00    -0.114 C  
ATOM     24  CB  ALA A   1      -5.624  10.179  63.725  1.00  0.00    -0.129 C  
BRANCH  23  25
ATOM     25  C   ALA A   1      -6.977   8.381  62.579  1.00  0.00    -0.090 C  
ATOM     26  O   ALA A   1      -8.100   7.653  63.068  1.00  0.00    -0.232 OA 
ATOM     27  H   ALA A   1      -8.093   6.770  62.718  1.00  0.00     0.000 HD 
ENDBRANCH  23  25
ENDBRANCH  20  23
ENDBRANCH  15  19
TORSDOF 3
ENDMDL
MODEL       90
REMARK 921   NORMALIZED FREE ENERGY PREDICTED BY IDOCK:   -4.69 KCAL/MOL
REMARK 922        TOTAL FREE ENERGY PREDICTED BY IDOCK:   -5.96 KCAL/MOL
REMARK 923 INTER-LIGAND FREE ENERGY PREDICTED BY IDOCK:   -5.14 KCAL/MOL
REMARK 924 INTRA-LIGAND FREE ENERGY PREDICTED BY IDOCK:   -0.82 KCAL/MOL
REMARK 927      BINDING AFFINITY PREDICTED BY RF-SCORE:    0.00 PKD
ROOT
HETATM    1  C   UNK A   0     -10.051   4.509  73.191  1.00  0.00    -0.156 C  
HETATM    2  C   UNK A   0     -11.526   4.979  73.144  1.00  0.00    -0.362 C  
HETATM    3  C   UNK A   0     -11.657   5.909  71.986  1.00  0.00    -0.289 A  
HETATM    4  C   UNK A   0     -12.258   7.125  71.787  1.00  0.00    -0.344 A  
HETATM    5  N   UNK A   0     -12.089   7.455  70.460  1.00  0.00    -0.537 NA 
HETATM    6  C   UNK A   0     -11.347   6.486  69.813  1.00  0.00    -0.393 A  
HETATM    7  H   UNK A   0     -12.459   8.296  70.018  1.00  0.00     0.000 HD 
HETATM    8  C   UNK A   0     -10.949   6.320  68.485  1.00  0.00    -0.421 A  
HETATM    9  C   UNK A   0     -10.099   5.230  68.219  1.00  0.00    -0.219 A  
HETATM   10  C   UNK A   0      -9.575   4.421  69.248  1.00  0.00    -0.261 A  
HETATM   11  C   UNK A   0      -9.955   4.640  70.578  1.00  0.00    -0.295 A  
HETATM   12  C   UNK A   0     -10.952   5.606  70.799  1.00  0.00    -0.257 A  
HETATM   13  C   UNK A   0      -9.330   4.199  71.843  1.00  0.00    -0.190 C  
HETATM   14  C   UNK A   0      -8.018   3.920  71.935  1.00  0.00    -0.075 C  
HETATM   15  C   UNK A   0      -7.354   4.136  73.302  1.00  0.00    -0.071 C  
HETATM   16  C   UNK A   0     -10.161   2.150  73.904  1.00  0.00    -0.103 C  
HETATM   17  C   UNK A   0      -8.241   3.584  74.472  1.00  0.00    -0.081 C  
HETATM   18  N   UNK A   0      -9.706   3.504  74.226  1.00  0.00    -0.103 NA 
ENDROOT
BRANCH  15  19
HETATM   19  C   UNK A   0      -7.084   5.679  73.477  1.00  0.00    -0.086 C  
ATOM     20  N   ALA A   1      -6.795   6.351  72.295  1.00  0.00    -0.068 N  
ATOM     21  H   ALA A   1      -6.479   5.792  71.502  1.00  0.00     0.000 HD 
HETATM   22  O   UNK A   0      -7.101   6.257  74.552  1.00  0.00    -0.092 OA 
BRANCH  20  23
ATOM     23  CA  ALA A   1      -6.908   7.805  72.098  1.00  0.00    -0.060 C  
ATOM     24  CB  ALA A   1      -8.364   8.269  72.110  1.00  0.00    -0.232 C  
BRANCH  23  25
ATOM     25  C   ALA A   1      -6.053   8.656  73.051  1.00  0.00    -0.079 C  
ATOM     26  O   ALA A   1      -6.836   9.075  74.166  1.00  0.00    -0.367 OA 
ATOM     27  H   ALA A   1      -6.308   9.601  74.755  1.00  0.00     0.000 HD 
ENDBRANCH  23  25
ENDBRANCH  20  23
ENDBRANCH  15  19
TORSDOF 3
ENDMDL
MODEL       91
REMARK 921   NORMALIZED FREE ENERGY PREDICTED BY IDOCK:   -4.68 KCAL/MOL
REMARK 922        TOTAL FREE ENERGY PREDICTED BY IDOCK:   -5.95 KCAL/MOL
REMARK 923 INTER-LIGAND FREE ENERGY PREDICTED BY IDOCK:   -5.18 KCAL/MOL
REMARK 924 INTRA-LIGAND FREE ENERGY PREDICTED BY IDOCK:   -0.77 KCAL/MOL
REMARK 927      BINDING AFFINITY PREDICTED BY RF-SCORE:    0.00 PKD
ROOT
HETATM    1  C   UNK A   0     -11.110   7.836  69.595  1.00  0.00    -0.042 C  
HETATM    2  C   UNK A   0     -11.500   6.387  69.210  1.00  0.00    -0.318 C  
HETATM    3  C   UNK A   0     -10.489   5.904  68.226  1.00  0.00    -0.293 A  
HETATM    4  C   UNK A   0     -10.547   5.222  67.039  1.00  0.00    -0.184 A  
HETATM    5  N   UNK A   0      -9.251   5.005  66.626  1.00  0.00    -0.124 NA 
HETATM    6  C   UNK A   0      -8.360   5.579  67.511  1.00  0.00    -0.100 A  
HETATM    7  H   UNK A   0      -8.987   4.493  65.784  1.00  0.00     0.000 HD 
HETATM    8  C   UNK A   0      -6.966   5.603  67.578  1.00  0.00    -0.066 A  
HETATM    9  C   UNK A   0      -6.402   6.391  68.600  1.00  0.00    -0.038 A  
HETATM   10  C   UNK A   0      -7.190   7.211  69.433  1.00  0.00    -0.084 A  
HETATM   11  C   UNK A   0      -8.586   7.203  69.312  1.00  0.00    -0.137 A  
HETATM   12  C   UNK A   0      -9.137   6.267  68.420  1.00  0.00    -0.114 A  
HETATM   13  C   UNK A   0      -9.598   8.171  69.785  1.00  0.00    -0.171 C  
HETATM   14  C   UNK A   0      -9.310   9.468  69.991  1.00  0.00    -0.265 C  
HETATM   15  C   UNK A   0     -10.457  10.472  69.813  1.00  0.00    -0.245 C  
HETATM   16  C   UNK A   0     -11.659   8.025  71.992  1.00  0.00    -0.316 C  
HETATM   17  C   UNK A   0     -11.782   9.966  70.481  1.00  0.00    -0.295 C  
HETATM   18  N   UNK A   0     -11.939   8.494  70.633  1.00  0.00    -0.486 NA 
ENDROOT
BRANCH  15  19
HETATM   19  C   UNK A   0     -10.659  10.716  68.269  1.00  0.00    -0.194 C  
ATOM     20  N   ALA A   1      -9.489  10.989  67.571  1.00  0.00    -0.163 N  
ATOM     21  H   ALA A   1      -8.685  11.312  68.109  1.00  0.00     0.000 HD 
HETATM   22  O   UNK A   0     -11.745  10.693  67.712  1.00  0.00    -0.503 OA 
BRANCH  20  23
ATOM     23  CA  ALA A   1      -9.319  10.850  66.115  1.00  0.00    -0.186 C  
ATOM     24  CB  ALA A   1      -9.733   9.463  65.625  1.00  0.00    -0.336 C  
BRANCH  23  25
ATOM     25  C   ALA A   1      -9.989  11.951  65.277  1.00  0.00    -0.251 C  
ATOM     26  O   ALA A   1     -11.226  11.478  64.750  1.00  0.00    -0.274 OA 
ATOM     27  H   ALA A   1     -11.640  12.157  64.231  1.00  0.00     0.000 HD 
ENDBRANCH  23  25
ENDBRANCH  20  23
ENDBRANCH  15  19
TORSDOF 3
ENDMDL
MODEL       92
REMARK 921   NORMALIZED FREE ENERGY PREDICTED BY IDOCK:   -4.61 KCAL/MOL
REMARK 922        TOTAL FREE ENERGY PREDICTED BY IDOCK:   -5.87 KCAL/MOL
REMARK 923 INTER-LIGAND FREE ENERGY PREDICTED BY IDOCK:   -5.71 KCAL/MOL
REMARK 924 INTRA-LIGAND FREE ENERGY PREDICTED BY IDOCK:   -0.16 KCAL/MOL
REMARK 927      BINDING AFFINITY PREDICTED BY RF-SCORE:    0.00 PKD
ROOT
HETATM    1  C   UNK A   0      -8.363   9.667  67.670  1.00  0.00    -0.121 C  
HETATM    2  C   UNK A   0      -7.441   9.383  68.882  1.00  0.00    -0.074 C  
HETATM    3  C   UNK A   0      -8.303   8.866  69.982  1.00  0.00    -0.133 A  
HETATM    4  C   UNK A   0      -8.403   9.111  71.327  1.00  0.00    -0.031 A  
HETATM    5  N   UNK A   0      -9.361   8.259  71.831  1.00  0.00    -0.192 NA 
HETATM    6  C   UNK A   0      -9.910   7.499  70.818  1.00  0.00    -0.178 A  
HETATM    7  H   UNK A   0      -9.626   8.199  72.814  1.00  0.00     0.000 HD 
HETATM    8  C   UNK A   0     -10.860   6.475  70.803  1.00  0.00    -0.311 A  
HETATM    9  C   UNK A   0     -11.244   5.997  69.536  1.00  0.00    -0.416 A  
HETATM   10  C   UNK A   0     -10.794   6.596  68.342  1.00  0.00    -0.320 A  
HETATM   11  C   UNK A   0      -9.877   7.655  68.388  1.00  0.00    -0.176 A  
HETATM   12  C   UNK A   0      -9.359   7.987  69.651  1.00  0.00    -0.156 A  
HETATM   13  C   UNK A   0      -9.516   8.660  67.366  1.00  0.00    -0.187 C  
HETATM   14  C   UNK A   0     -10.361   9.022  66.385  1.00  0.00    -0.219 C  
HETATM   15  C   UNK A   0     -10.217  10.446  65.832  1.00  0.00    -0.302 C  
HETATM   16  C   UNK A   0      -7.026   9.041  65.695  1.00  0.00    -0.080 C  
HETATM   17  C   UNK A   0      -8.715  10.829  65.597  1.00  0.00    -0.190 C  
HETATM   18  N   UNK A   0      -7.702  10.117  66.422  1.00  0.00    -0.107 NA 
ENDROOT
BRANCH  15  19
HETATM   19  C   UNK A   0     -10.902  11.437  66.849  1.00  0.00    -0.285 C  
ATOM     20  N   ALA A   1     -10.306  12.690  66.924  1.00  0.00    -0.232 N  
ATOM     21  H   ALA A   1      -9.346  12.774  66.589  1.00  0.00     0.000 HD 
HETATM   22  O   UNK A   0     -11.866  11.146  67.540  1.00  0.00    -0.591 OA 
BRANCH  20  23
ATOM     23  CA  ALA A   1     -10.949  13.905  67.450  1.00  0.00    -0.288 C  
ATOM     24  CB  ALA A   1     -11.926  14.511  66.444  1.00  0.00    -0.350 C  
BRANCH  23  25
ATOM     25  C   ALA A   1     -11.611  13.743  68.828  1.00  0.00    -0.328 C  
ATOM     26  O   ALA A   1     -10.869  12.818  69.619  1.00  0.00    -0.440 OA 
ATOM     27  H   ALA A   1     -11.278  12.717  70.470  1.00  0.00     0.000 HD 
ENDBRANCH  23  25
ENDBRANCH  20  23
ENDBRANCH  15  19
TORSDOF 3
ENDMDL
MODEL       93
REMARK 921   NORMALIZED FREE ENERGY PREDICTED BY IDOCK:   -4.59 KCAL/MOL
REMARK 922        TOTAL FREE ENERGY PREDICTED BY IDOCK:   -5.84 KCAL/MOL
REMARK 923 INTER-LIGAND FREE ENERGY PREDICTED BY IDOCK:   -5.49 KCAL/MOL
REMARK 924 INTRA-LIGAND FREE ENERGY PREDICTED BY IDOCK:   -0.35 KCAL/MOL
REMARK 927      BINDING AFFINITY PREDICTED BY RF-SCORE:    0.00 PKD
ROOT
HETATM    1  C   UNK A   0      -9.590  13.844  67.770  1.00  0.00    -0.222 C  
HETATM    2  C   UNK A   0      -8.448  14.837  68.101  1.00  0.00    -0.149 C  
HETATM    3  C   UNK A   0      -7.260  14.028  68.496  1.00  0.00    -0.109 A  
HETATM    4  C   UNK A   0      -6.331  14.104  69.501  1.00  0.00    -0.120 A  
HETATM    5  N   UNK A   0      -5.419  13.092  69.296  1.00  0.00    -0.075 NA 
HETATM    6  C   UNK A   0      -5.775  12.339  68.195  1.00  0.00    -0.056 A  
HETATM    7  H   UNK A   0      -4.597  12.924  69.876  1.00  0.00     0.000 HD 
HETATM    8  C   UNK A   0      -5.175  11.257  67.547  1.00  0.00    -0.043 A  
HETATM    9  C   UNK A   0      -5.903  10.680  66.490  1.00  0.00    -0.081 A  
HETATM   10  C   UNK A   0      -7.217  11.084  66.177  1.00  0.00    -0.054 A  
HETATM   11  C   UNK A   0      -7.813  12.142  66.876  1.00  0.00    -0.069 A  
HETATM   12  C   UNK A   0      -7.000  12.830  67.794  1.00  0.00    -0.131 A  
HETATM   13  C   UNK A   0      -9.233  12.535  67.000  1.00  0.00    -0.214 C  
HETATM   14  C   UNK A   0     -10.237  11.653  66.854  1.00  0.00    -0.244 C  
HETATM   15  C   UNK A   0     -11.533  11.940  67.624  1.00  0.00    -0.387 C  
HETATM   16  C   UNK A   0     -10.792  14.867  65.875  1.00  0.00    -0.334 C  
HETATM   17  C   UNK A   0     -11.947  13.448  67.523  1.00  0.00    -0.339 C  
HETATM   18  N   UNK A   0     -10.857  14.429  67.271  1.00  0.00    -0.286 NA 
ENDROOT
BRANCH  15  19
HETATM   19  C   UNK A   0     -11.316  11.511  69.125  1.00  0.00    -0.286 C  
ATOM     20  N   ALA A   1     -12.153  12.148  70.034  1.00  0.00    -0.304 N  
ATOM     21  H   ALA A   1     -12.593  13.019  69.737  1.00  0.00     0.000 HD 
HETATM   22  O   UNK A   0     -10.475  10.704  69.489  1.00  0.00    -0.223 OA 
BRANCH  20  23
ATOM     23  CA  ALA A   1     -12.455  11.664  71.391  1.00  0.00    -0.208 C  
ATOM     24  CB  ALA A   1     -13.306  12.663  72.174  1.00  0.00    -0.570 C  
BRANCH  23  25
ATOM     25  C   ALA A   1     -13.064  10.255  71.456  1.00  0.00    -0.433 C  
ATOM     26  O   ALA A   1     -13.442   9.948  72.795  1.00  0.00    -0.557 OA 
ATOM     27  H   ALA A   1     -13.818   9.077  72.836  1.00  0.00     0.000 HD 
ENDBRANCH  23  25
ENDBRANCH  20  23
ENDBRANCH  15  19
TORSDOF 3
ENDMDL
MODEL       94
REMARK 921   NORMALIZED FREE ENERGY PREDICTED BY IDOCK:   -4.56 KCAL/MOL
REMARK 922        TOTAL FREE ENERGY PREDICTED BY IDOCK:   -5.80 KCAL/MOL
REMARK 923 INTER-LIGAND FREE ENERGY PREDICTED BY IDOCK:   -5.30 KCAL/MOL
REMARK 924 INTRA-LIGAND FREE ENERGY PREDICTED BY IDOCK:   -0.50 KCAL/MOL
REMARK 927      BINDING AFFINITY PREDICTED BY RF-SCORE:    0.00 PKD
ROOT
HETATM    1  C   UNK A   0      -8.080  12.670  67.583  1.00  0.00    -0.173 C  
HETATM    2  C   UNK A   0      -7.399  14.052  67.422  1.00  0.00    -0.135 C  
HETATM    3  C   UNK A   0      -8.479  15.050  67.174  1.00  0.00    -0.244 A  
HETATM    4  C   UNK A   0      -8.647  16.093  66.301  1.00  0.00    -0.338 A  
HETATM    5  N   UNK A   0      -9.846  16.697  66.607  1.00  0.00    -0.261 NA 
HETATM    6  C   UNK A   0     -10.473  16.027  67.639  1.00  0.00    -0.292 A  
HETATM    7  H   UNK A   0     -10.218  17.523  66.138  1.00  0.00     0.000 HD 
HETATM    8  C   UNK A   0     -11.658  16.256  68.343  1.00  0.00    -0.154 A  
HETATM    9  C   UNK A   0     -12.024  15.277  69.285  1.00  0.00    -0.327 A  
HETATM   10  C   UNK A   0     -11.307  14.071  69.429  1.00  0.00    -0.317 A  
HETATM   11  C   UNK A   0     -10.148  13.847  68.675  1.00  0.00    -0.203 A  
HETATM   12  C   UNK A   0      -9.693  14.916  67.884  1.00  0.00    -0.206 A  
HETATM   13  C   UNK A   0      -9.424  12.594  68.372  1.00  0.00    -0.163 C  
HETATM   14  C   UNK A   0     -10.034  11.396  68.370  1.00  0.00    -0.206 C  
HETATM   15  C   UNK A   0      -9.453  10.321  67.441  1.00  0.00    -0.174 C  
HETATM   16  C   UNK A   0      -6.765  11.513  69.320  1.00  0.00    -0.118 C  
HETATM   17  C   UNK A   0      -7.888  10.276  67.512  1.00  0.00    -0.102 C  
HETATM   18  N   UNK A   0      -7.197  11.528  67.921  1.00  0.00    -0.081 NA 
ENDROOT
BRANCH  15  19
HETATM   19  C   UNK A   0      -9.946  10.623  65.974  1.00  0.00    -0.239 C  
ATOM     20  N   ALA A   1      -9.025  10.312  64.981  1.00  0.00    -0.181 N  
ATOM     21  H   ALA A   1      -8.047  10.222  65.258  1.00  0.00     0.000 HD 
HETATM   22  O   UNK A   0     -11.033  11.110  65.707  1.00  0.00    -0.204 OA 
BRANCH  20  23
ATOM     23  CA  ALA A   1      -9.349  10.102  63.561  1.00  0.00    -0.290 C  
ATOM     24  CB  ALA A   1      -9.290  11.405  62.766  1.00  0.00    -0.320 C  
BRANCH  23  25
ATOM     25  C   ALA A   1      -8.535   8.998  62.867  1.00  0.00    -0.200 C  
ATOM     26  O   ALA A   1      -8.645   7.779  63.597  1.00  0.00    -0.370 OA 
ATOM     27  H   ALA A   1      -8.142   7.097  63.169  1.00  0.00     0.000 HD 
ENDBRANCH  23  25
ENDBRANCH  20  23
ENDBRANCH  15  19
TORSDOF 3
ENDMDL
MODEL       95
REMARK 921   NORMALIZED FREE ENERGY PREDICTED BY IDOCK:   -4.54 KCAL/MOL
REMARK 922        TOTAL FREE ENERGY PREDICTED BY IDOCK:   -5.79 KCAL/MOL
REMARK 923 INTER-LIGAND FREE ENERGY PREDICTED BY IDOCK:   -5.37 KCAL/MOL
REMARK 924 INTRA-LIGAND FREE ENERGY PREDICTED BY IDOCK:   -0.41 KCAL/MOL
REMARK 927      BINDING AFFINITY PREDICTED BY RF-SCORE:    0.00 PKD
ROOT
HETATM    1  C   UNK A   0     -11.595  13.625  66.524  1.00  0.00    -0.366 C  
HETATM    2  C   UNK A   0     -12.270  14.424  67.667  1.00  0.00    -0.200 C  
HETATM    3  C   UNK A   0     -11.211  14.749  68.665  1.00  0.00    -0.288 A  
HETATM    4  C   UNK A   0     -11.126  14.703  70.032  1.00  0.00    -0.164 A  
HETATM    5  N   UNK A   0      -9.892  15.202  70.385  1.00  0.00    -0.377 NA 
HETATM    6  C   UNK A   0      -9.164  15.528  69.257  1.00  0.00    -0.268 A  
HETATM    7  H   UNK A   0      -9.562  15.315  71.343  1.00  0.00     0.000 HD 
HETATM    8  C   UNK A   0      -7.906  16.104  69.069  1.00  0.00    -0.227 A  
HETATM    9  C   UNK A   0      -7.451  16.194  67.740  1.00  0.00    -0.150 A  
HETATM   10  C   UNK A   0      -8.164  15.624  66.666  1.00  0.00    -0.284 A  
HETATM   11  C   UNK A   0      -9.402  15.009  66.890  1.00  0.00    -0.258 A  
HETATM   12  C   UNK A   0      -9.927  15.102  68.190  1.00  0.00    -0.221 A  
HETATM   13  C   UNK A   0     -10.173  14.063  66.054  1.00  0.00    -0.313 C  
HETATM   14  C   UNK A   0      -9.584  13.259  65.153  1.00  0.00     0.185 C  
HETATM   15  C   UNK A   0     -10.279  11.923  64.852  1.00  0.00    -0.310 C  
HETATM   16  C   UNK A   0     -12.726  14.382  64.467  1.00  0.00    -0.039 C  
HETATM   17  C   UNK A   0     -11.827  12.100  64.683  1.00  0.00    -0.328 C  
HETATM   18  N   UNK A   0     -12.451  13.262  65.370  1.00  0.00    -0.479 NA 
ENDROOT
BRANCH  15  19
HETATM   19  C   UNK A   0      -9.947  10.924  66.026  1.00  0.00    -0.240 C  
ATOM     20  N   ALA A   1      -8.883  11.313  66.831  1.00  0.00    -0.159 N  
ATOM     21  H   ALA A   1      -8.229  11.996  66.448  1.00  0.00     0.000 HD 
HETATM   22  O   UNK A   0     -10.547   9.879  66.221  1.00  0.00    -0.140 OA 
BRANCH  20  23
ATOM     23  CA  ALA A   1      -8.625  10.817  68.192  1.00  0.00    -0.129 C  
ATOM     24  CB  ALA A   1      -7.376  11.451  68.801  1.00  0.00    -0.114 C  
BRANCH  23  25
ATOM     25  C   ALA A   1      -9.819  10.919  69.156  1.00  0.00    -0.145 C  
ATOM     26  O   ALA A   1      -9.535  10.211  70.360  1.00  0.00    -0.358 OA 
ATOM     27  H   ALA A   1     -10.272  10.274  70.955  1.00  0.00     0.000 HD 
ENDBRANCH  23  25
ENDBRANCH  20  23
ENDBRANCH  15  19
TORSDOF 3
ENDMDL
MODEL       96
REMARK 921   NORMALIZED FREE ENERGY PREDICTED BY IDOCK:   -4.54 KCAL/MOL
REMARK 922        TOTAL FREE ENERGY PREDICTED BY IDOCK:   -5.78 KCAL/MOL
REMARK 923 INTER-LIGAND FREE ENERGY PREDICTED BY IDOCK:   -5.65 KCAL/MOL
REMARK 924 INTRA-LIGAND FREE ENERGY PREDICTED BY IDOCK:   -0.12 KCAL/MOL
REMARK 927      BINDING AFFINITY PREDICTED BY RF-SCORE:    0.00 PKD
ROOT
HETATM    1  C   UNK A   0     -11.256   7.012  70.440  1.00  0.00    -0.299 C  
HETATM    2  C   UNK A   0     -11.503   6.511  68.996  1.00  0.00    -0.195 C  
HETATM    3  C   UNK A   0     -10.376   5.601  68.644  1.00  0.00    -0.277 A  
HETATM    4  C   UNK A   0      -9.571   5.440  67.546  1.00  0.00    -0.126 A  
HETATM    5  N   UNK A   0      -8.742   4.369  67.797  1.00  0.00    -0.103 NA 
HETATM    6  C   UNK A   0      -8.974   3.867  69.063  1.00  0.00    -0.119 A  
HETATM    7  H   UNK A   0      -8.054   3.999  67.141  1.00  0.00     0.000 HD 
HETATM    8  C   UNK A   0      -8.449   2.781  69.767  1.00  0.00    -0.095 A  
HETATM    9  C   UNK A   0      -8.871   2.640  71.103  1.00  0.00    -0.134 A  
HETATM   10  C   UNK A   0      -9.679   3.604  71.738  1.00  0.00    -0.233 A  
HETATM   11  C   UNK A   0     -10.152   4.709  71.020  1.00  0.00    -0.246 A  
HETATM   12  C   UNK A   0      -9.881   4.730  69.641  1.00  0.00    -0.292 A  
HETATM   13  C   UNK A   0     -10.700   6.000  71.490  1.00  0.00    -0.309 C  
HETATM   14  C   UNK A   0     -10.384   6.520  72.689  1.00  0.00    -0.214 C  
HETATM   15  C   UNK A   0     -10.413   8.049  72.815  1.00  0.00    -0.415 C  
HETATM   16  C   UNK A   0     -13.498   7.142  71.459  1.00  0.00    -0.332 C  
HETATM   17  C   UNK A   0     -11.683   8.664  72.132  1.00  0.00    -0.371 C  
HETATM   18  N   UNK A   0     -12.305   7.875  71.033  1.00  0.00    -0.480 NA 
ENDROOT
BRANCH  15  19
HETATM   19  C   UNK A   0      -9.092   8.619  72.170  1.00  0.00    -0.231 C  
ATOM     20  N   ALA A   1      -9.185   8.891  70.811  1.00  0.00    -0.202 N  
ATOM     21  H   ALA A   1      -9.935   8.435  70.290  1.00  0.00     0.000 HD 
HETATM   22  O   UNK A   0      -8.054   8.796  72.788  1.00  0.00    -0.398 OA 
BRANCH  20  23
ATOM     23  CA  ALA A   1      -8.285   9.783  70.062  1.00  0.00    -0.191 C  
ATOM     24  CB  ALA A   1      -7.110   9.023  69.451  1.00  0.00    -0.056 C  
BRANCH  23  25
ATOM     25  C   ALA A   1      -8.976  10.664  69.009  1.00  0.00    -0.157 C  
ATOM     26  O   ALA A   1     -10.338  10.270  68.861  1.00  0.00    -0.182 OA 
ATOM     27  H   ALA A   1     -10.765  10.814  68.210  1.00  0.00     0.000 HD 
ENDBRANCH  23  25
ENDBRANCH  20  23
ENDBRANCH  15  19
TORSDOF 3
ENDMDL
MODEL       97
REMARK 921   NORMALIZED FREE ENERGY PREDICTED BY IDOCK:   -4.52 KCAL/MOL
REMARK 922        TOTAL FREE ENERGY PREDICTED BY IDOCK:   -5.76 KCAL/MOL
REMARK 923 INTER-LIGAND FREE ENERGY PREDICTED BY IDOCK:   -5.34 KCAL/MOL
REMARK 924 INTRA-LIGAND FREE ENERGY PREDICTED BY IDOCK:   -0.42 KCAL/MOL
REMARK 927      BINDING AFFINITY PREDICTED BY RF-SCORE:    0.00 PKD
ROOT
HETATM    1  C   UNK A   0      -9.009  11.047  67.268  1.00  0.00    -0.138 C  
HETATM    2  C   UNK A   0      -7.652  10.358  67.558  1.00  0.00    -0.094 C  
HETATM    3  C   UNK A   0      -7.568  10.150  69.031  1.00  0.00    -0.096 A  
HETATM    4  C   UNK A   0      -6.594  10.335  69.978  1.00  0.00    -0.127 A  
HETATM    5  N   UNK A   0      -7.099   9.890  71.180  1.00  0.00    -0.280 NA 
HETATM    6  C   UNK A   0      -8.403   9.462  71.026  1.00  0.00     0.034 A  
HETATM    7  H   UNK A   0      -6.583   9.879  72.060  1.00  0.00     0.000 HD 
HETATM    8  C   UNK A   0      -9.326   8.886  71.901  1.00  0.00    -0.275 A  
HETATM    9  C   UNK A   0     -10.620   8.669  71.391  1.00  0.00    -0.334 A  
HETATM   10  C   UNK A   0     -11.005   9.118  70.111  1.00  0.00    -0.267 A  
HETATM   11  C   UNK A   0     -10.069   9.736  69.271  1.00  0.00    -0.207 A  
HETATM   12  C   UNK A   0      -8.739   9.768  69.723  1.00  0.00    -0.228 A  
HETATM   13  C   UNK A   0     -10.262  10.582  68.074  1.00  0.00    -0.195 C  
HETATM   14  C   UNK A   0     -11.381  11.299  67.875  1.00  0.00    -0.367 C  
HETATM   15  C   UNK A   0     -11.246  12.588  67.053  1.00  0.00    -0.353 C  
HETATM   16  C   UNK A   0      -9.773  10.071  65.135  1.00  0.00    -0.311 C  
HETATM   17  C   UNK A   0     -10.351  12.375  65.783  1.00  0.00    -0.263 C  
HETATM   18  N   UNK A   0      -9.346  11.280  65.844  1.00  0.00    -0.214 NA 
ENDROOT
BRANCH  15  19
HETATM   19  C   UNK A   0     -10.644  13.705  67.989  1.00  0.00    -0.249 C  
ATOM     20  N   ALA A   1     -10.093  14.787  67.314  1.00  0.00    -0.235 N  
ATOM     21  H   ALA A   1      -9.838  14.651  66.336  1.00  0.00     0.000 HD 
HETATM   22  O   UNK A   0     -10.632  13.639  69.208  1.00  0.00    -0.113 OA 
BRANCH  20  23
ATOM     23  CA  ALA A   1      -9.846  16.114  67.900  1.00  0.00    -0.235 C  
ATOM     24  CB  ALA A   1      -8.355  16.377  68.106  1.00  0.00    -0.186 C  
BRANCH  23  25
ATOM     25  C   ALA A   1     -10.512  17.284  67.158  1.00  0.00    -0.297 C  
ATOM     26  O   ALA A   1      -9.976  18.522  67.618  1.00  0.00    -0.312 OA 
ATOM     27  H   ALA A   1     -10.387  19.245  67.159  1.00  0.00     0.000 HD 
ENDBRANCH  23  25
ENDBRANCH  20  23
ENDBRANCH  15  19
TORSDOF 3
ENDMDL
MODEL       98
REMARK 921   NORMALIZED FREE ENERGY PREDICTED BY IDOCK:   -4.52 KCAL/MOL
REMARK 922        TOTAL FREE ENERGY PREDICTED BY IDOCK:   -5.76 KCAL/MOL
REMARK 923 INTER-LIGAND FREE ENERGY PREDICTED BY IDOCK:   -5.00 KCAL/MOL
REMARK 924 INTRA-LIGAND FREE ENERGY PREDICTED BY IDOCK:   -0.75 KCAL/MOL
REMARK 927      BINDING AFFINITY PREDICTED BY RF-SCORE:    0.00 PKD
ROOT
HETATM    1  C   UNK A   0      -8.215   8.839  67.523  1.00  0.00    -0.110 C  
HETATM    2  C   UNK A   0      -6.892   8.291  68.114  1.00  0.00    -0.069 C  
HETATM    3  C   UNK A   0      -7.232   7.595  69.388  1.00  0.00    -0.081 A  
HETATM    4  C   UNK A   0      -6.694   7.572  70.648  1.00  0.00    -0.043 A  
HETATM    5  N   UNK A   0      -7.423   6.669  71.390  1.00  0.00    -0.087 NA 
HETATM    6  C   UNK A   0      -8.452   6.144  70.634  1.00  0.00    -0.134 A  
HETATM    7  H   UNK A   0      -7.231   6.424  72.361  1.00  0.00     0.000 HD 
HETATM    8  C   UNK A   0      -9.425   5.175  70.891  1.00  0.00    -0.223 A  
HETATM    9  C   UNK A   0     -10.385   4.971  69.882  1.00  0.00    -0.298 A  
HETATM   10  C   UNK A   0     -10.443   5.779  68.729  1.00  0.00    -0.312 A  
HETATM   11  C   UNK A   0      -9.482   6.776  68.520  1.00  0.00    -0.131 A  
HETATM   12  C   UNK A   0      -8.422   6.835  69.440  1.00  0.00    -0.132 A  
HETATM   13  C   UNK A   0      -9.494   7.952  67.623  1.00  0.00    -0.170 C  
HETATM   14  C   UNK A   0     -10.636   8.529  67.211  1.00  0.00    -0.315 C  
HETATM   15  C   UNK A   0     -10.583  10.029  66.892  1.00  0.00    -0.261 C  
HETATM   16  C   UNK A   0      -7.978   8.574  65.083  1.00  0.00    -0.130 C  
HETATM   17  C   UNK A   0      -9.307  10.401  66.060  1.00  0.00    -0.178 C  
HETATM   18  N   UNK A   0      -8.127   9.506  66.202  1.00  0.00    -0.110 NA 
ENDROOT
BRANCH  15  19
HETATM   19  C   UNK A   0     -10.622  10.821  68.254  1.00  0.00    -0.200 C  
ATOM     20  N   ALA A   1     -11.576  10.368  69.158  1.00  0.00    -0.448 N  
ATOM     21  H   ALA A   1     -12.346   9.812  68.788  1.00  0.00     0.000 HD 
HETATM   22  O   UNK A   0      -9.899  11.770  68.511  1.00  0.00    -0.203 OA 
BRANCH  20  23
ATOM     23  CA  ALA A   1     -11.561  10.628  70.606  1.00  0.00    -0.336 C  
ATOM     24  CB  ALA A   1     -12.432  11.828  70.977  1.00  0.00    -0.411 C  
BRANCH  23  25
ATOM     25  C   ALA A   1     -11.898   9.413  71.486  1.00  0.00    -0.385 C  
ATOM     26  O   ALA A   1     -10.969   8.360  71.238  1.00  0.00    -0.236 OA 
ATOM     27  H   ALA A   1     -11.177   7.610  71.781  1.00  0.00     0.000 HD 
ENDBRANCH  23  25
ENDBRANCH  20  23
ENDBRANCH  15  19
TORSDOF 3
ENDMDL
MODEL       99
REMARK 921   NORMALIZED FREE ENERGY PREDICTED BY IDOCK:   -4.51 KCAL/MOL
REMARK 922        TOTAL FREE ENERGY PREDICTED BY IDOCK:   -5.74 KCAL/MOL
REMARK 923 INTER-LIGAND FREE ENERGY PREDICTED BY IDOCK:   -5.39 KCAL/MOL
REMARK 924 INTRA-LIGAND FREE ENERGY PREDICTED BY IDOCK:   -0.36 KCAL/MOL
REMARK 927      BINDING AFFINITY PREDICTED BY RF-SCORE:    0.00 PKD
ROOT
HETATM    1  C   UNK A   0      -9.824   8.115  68.974  1.00  0.00    -0.176 C  
HETATM    2  C   UNK A   0     -10.819   6.945  69.181  1.00  0.00    -0.262 C  
HETATM    3  C   UNK A   0     -11.515   7.182  70.478  1.00  0.00    -0.334 A  
HETATM    4  C   UNK A   0     -11.845   6.398  71.553  1.00  0.00    -0.298 A  
HETATM    5  N   UNK A   0     -12.556   7.184  72.433  1.00  0.00    -0.503 NA 
HETATM    6  C   UNK A   0     -12.647   8.477  71.957  1.00  0.00    -0.364 A  
HETATM    7  H   UNK A   0     -12.957   6.858  73.312  1.00  0.00     0.000 HD 
HETATM    8  C   UNK A   0     -13.289   9.624  72.431  1.00  0.00    -0.426 A  
HETATM    9  C   UNK A   0     -13.071  10.809  71.703  1.00  0.00    -0.551 A  
HETATM   10  C   UNK A   0     -12.159  10.870  70.630  1.00  0.00    -0.468 A  
HETATM   11  C   UNK A   0     -11.492   9.714  70.206  1.00  0.00    -0.288 A  
HETATM   12  C   UNK A   0     -11.869   8.507  70.818  1.00  0.00    -0.184 A  
HETATM   13  C   UNK A   0     -10.277   9.552  69.379  1.00  0.00    -0.215 C  
HETATM   14  C   UNK A   0      -9.332  10.504  69.298  1.00  0.00    -0.177 C  
HETATM   15  C   UNK A   0      -7.896  10.039  69.020  1.00  0.00    -0.101 C  
HETATM   16  C   UNK A   0      -9.873   8.566  66.550  1.00  0.00    -0.272 C  
HETATM   17  C   UNK A   0      -7.846   8.948  67.895  1.00  0.00    -0.102 C  
HETATM   18  N   UNK A   0      -9.073   8.130  67.696  1.00  0.00    -0.134 NA 
ENDROOT
BRANCH  15  19
HETATM   19  C   UNK A   0      -7.290   9.490  70.368  1.00  0.00    -0.141 C  
ATOM     20  N   ALA A   1      -7.140   8.109  70.412  1.00  0.00    -0.040 N  
ATOM     21  H   ALA A   1      -7.689   7.555  69.755  1.00  0.00     0.000 HD 
HETATM   22  O   UNK A   0      -6.989  10.196  71.317  1.00  0.00    -0.199 OA 
BRANCH  20  23
ATOM     23  CA  ALA A   1      -6.251   7.383  71.334  1.00  0.00    -0.036 C  
ATOM     24  CB  ALA A   1      -6.992   6.913  72.585  1.00  0.00    -0.070 C  
BRANCH  23  25
ATOM     25  C   ALA A   1      -5.462   6.228  70.697  1.00  0.00    -0.018 C  
ATOM     26  O   ALA A   1      -6.338   5.401  69.934  1.00  0.00    -0.028 OA 
ATOM     27  H   ALA A   1      -5.850   4.687  69.541  1.00  0.00     0.000 HD 
ENDBRANCH  23  25
ENDBRANCH  20  23
ENDBRANCH  15  19
TORSDOF 3
ENDMDL
MODEL      100
REMARK 921   NORMALIZED FREE ENERGY PREDICTED BY IDOCK:   -4.46 KCAL/MOL
REMARK 922        TOTAL FREE ENERGY PREDICTED BY IDOCK:   -5.69 KCAL/MOL
REMARK 923 INTER-LIGAND FREE ENERGY PREDICTED BY IDOCK:   -5.08 KCAL/MOL
REMARK 924 INTRA-LIGAND FREE ENERGY PREDICTED BY IDOCK:   -0.61 KCAL/MOL
REMARK 927      BINDING AFFINITY PREDICTED BY RF-SCORE:    0.00 PKD
ROOT
HETATM    1  C   UNK A   0      -8.997  11.436  68.495  1.00  0.00    -0.158 C  
HETATM    2  C   UNK A   0      -7.451  11.423  68.589  1.00  0.00    -0.119 C  
HETATM    3  C   UNK A   0      -7.012  10.005  68.453  1.00  0.00    -0.067 A  
HETATM    4  C   UNK A   0      -6.109   9.207  69.107  1.00  0.00    -0.042 A  
HETATM    5  N   UNK A   0      -6.100   7.987  68.469  1.00  0.00    -0.039 NA 
HETATM    6  C   UNK A   0      -7.020   7.975  67.440  1.00  0.00    -0.075 A  
HETATM    7  H   UNK A   0      -5.499   7.202  68.722  1.00  0.00     0.000 HD 
HETATM    8  C   UNK A   0      -7.360   7.022  66.477  1.00  0.00    -0.083 A  
HETATM    9  C   UNK A   0      -8.441   7.343  65.634  1.00  0.00    -0.137 A  
HETATM   10  C   UNK A   0      -9.220   8.502  65.825  1.00  0.00    -0.210 A  
HETATM   11  C   UNK A   0      -8.885   9.418  66.830  1.00  0.00    -0.141 A  
HETATM   12  C   UNK A   0      -7.691   9.177  67.532  1.00  0.00    -0.092 A  
HETATM   13  C   UNK A   0      -9.684  10.490  67.461  1.00  0.00    -0.190 C  
HETATM   14  C   UNK A   0     -11.027  10.448  67.513  1.00  0.00    -0.358 C  
HETATM   15  C   UNK A   0     -11.701  11.163  68.692  1.00  0.00    -0.389 C  
HETATM   16  C   UNK A   0      -9.541  13.503  67.264  1.00  0.00    -0.235 C  
HETATM   17  C   UNK A   0     -11.063  12.570  68.959  1.00  0.00    -0.234 C  
HETATM   18  N   UNK A   0      -9.654  12.764  68.523  1.00  0.00    -0.379 NA 
ENDROOT
BRANCH  15  19
HETATM   19  C   UNK A   0     -11.579  10.236  69.961  1.00  0.00    -0.276 C  
ATOM     20  N   ALA A   1     -11.309   8.903  69.677  1.00  0.00    -0.431 N  
ATOM     21  H   ALA A   1     -11.515   8.572  68.734  1.00  0.00     0.000 HD 
HETATM   22  O   UNK A   0     -11.726  10.628  71.108  1.00  0.00    -0.305 OA 
BRANCH  20  23
ATOM     23  CA  ALA A   1     -10.750   7.930  70.629  1.00  0.00    -0.228 C  
ATOM     24  CB  ALA A   1      -9.396   8.382  71.174  1.00  0.00    -0.223 C  
BRANCH  23  25
ATOM     25  C   ALA A   1     -11.695   7.527  71.773  1.00  0.00    -0.284 C  
ATOM     26  O   ALA A   1     -11.199   8.024  73.014  1.00  0.00    -0.388 OA 
ATOM     27  H   ALA A   1     -11.783   7.775  73.720  1.00  0.00     0.000 HD 
ENDBRANCH  23  25
ENDBRANCH  20  23
ENDBRANCH  15  19
TORSDOF 3
ENDMDL
MODEL      101
REMARK 921   NORMALIZED FREE ENERGY PREDICTED BY IDOCK:   -4.43 KCAL/MOL
REMARK 922        TOTAL FREE ENERGY PREDICTED BY IDOCK:   -5.65 KCAL/MOL
REMARK 923 INTER-LIGAND FREE ENERGY PREDICTED BY IDOCK:   -4.77 KCAL/MOL
REMARK 924 INTRA-LIGAND FREE ENERGY PREDICTED BY IDOCK:   -0.88 KCAL/MOL
REMARK 927      BINDING AFFINITY PREDICTED BY RF-SCORE:    0.00 PKD
ROOT
HETATM    1  C   UNK A   0      -8.053   9.610  70.200  1.00  0.00    -0.189 C  
HETATM    2  C   UNK A   0      -8.942   8.908  71.257  1.00  0.00    -0.312 C  
HETATM    3  C   UNK A   0      -9.977   8.130  70.517  1.00  0.00    -0.195 A  
HETATM    4  C   UNK A   0     -11.330   7.953  70.651  1.00  0.00    -0.259 A  
HETATM    5  N   UNK A   0     -11.724   7.048  69.690  1.00  0.00    -0.576 NA 
HETATM    6  C   UNK A   0     -10.646   6.675  68.910  1.00  0.00    -0.230 A  
HETATM    7  H   UNK A   0     -12.676   6.703  69.571  1.00  0.00     0.000 HD 
HETATM    8  C   UNK A   0     -10.501   5.768  67.859  1.00  0.00    -0.290 A  
HETATM    9  C   UNK A   0      -9.239   5.730  67.235  1.00  0.00    -0.110 A  
HETATM   10  C   UNK A   0      -8.215   6.641  67.564  1.00  0.00    -0.122 A  
HETATM   11  C   UNK A   0      -8.405   7.573  68.592  1.00  0.00    -0.129 A  
HETATM   12  C   UNK A   0      -9.597   7.465  69.330  1.00  0.00    -0.155 A  
HETATM   13  C   UNK A   0      -7.677   8.821  68.907  1.00  0.00    -0.095 C  
HETATM   14  C   UNK A   0      -7.015   9.521  67.970  1.00  0.00    -0.079 C  
HETATM   15  C   UNK A   0      -6.889  11.035  68.190  1.00  0.00    -0.067 C  
HETATM   16  C   UNK A   0      -5.775   9.544  71.143  1.00  0.00    -0.068 C  
HETATM   17  C   UNK A   0      -6.513  11.377  69.673  1.00  0.00    -0.133 C  
HETATM   18  N   UNK A   0      -6.896  10.382  70.711  1.00  0.00    -0.411 NA 
ENDROOT
BRANCH  15  19
HETATM   19  C   UNK A   0      -8.258  11.703  67.785  1.00  0.00    -0.141 C  
ATOM     20  N   ALA A   1      -8.865  11.142  66.668  1.00  0.00    -0.161 N  
ATOM     21  H   ALA A   1      -8.278  10.595  66.039  1.00  0.00     0.000 HD 
HETATM   22  O   UNK A   0      -8.756  12.649  68.374  1.00  0.00    -0.175 OA 
BRANCH  20  23
ATOM     23  CA  ALA A   1     -10.290  11.275  66.322  1.00  0.00    -0.247 C  
ATOM     24  CB  ALA A   1     -10.532  11.073  64.827  1.00  0.00    -0.384 C  
BRANCH  23  25
ATOM     25  C   ALA A   1     -11.243  10.403  67.155  1.00  0.00    -0.007 C  
ATOM     26  O   ALA A   1     -11.219  10.819  68.518  1.00  0.00    -0.239 OA 
ATOM     27  H   ALA A   1     -11.808  10.280  69.033  1.00  0.00     0.000 HD 
ENDBRANCH  23  25
ENDBRANCH  20  23
ENDBRANCH  15  19
TORSDOF 3
ENDMDL
MODEL      102
REMARK 921   NORMALIZED FREE ENERGY PREDICTED BY IDOCK:   -4.41 KCAL/MOL
REMARK 922        TOTAL FREE ENERGY PREDICTED BY IDOCK:   -5.63 KCAL/MOL
REMARK 923 INTER-LIGAND FREE ENERGY PREDICTED BY IDOCK:   -5.98 KCAL/MOL
REMARK 924 INTRA-LIGAND FREE ENERGY PREDICTED BY IDOCK:    0.35 KCAL/MOL
REMARK 927      BINDING AFFINITY PREDICTED BY RF-SCORE:    0.00 PKD
ROOT
HETATM    1  C   UNK A   0      -9.577  15.684  66.765  1.00  0.00    -0.240 C  
HETATM    2  C   UNK A   0     -10.223  15.037  65.514  1.00  0.00    -0.406 C  
HETATM    3  C   UNK A   0     -10.452  13.598  65.829  1.00  0.00    -0.296 A  
HETATM    4  C   UNK A   0     -10.248  12.419  65.160  1.00  0.00    -0.281 A  
HETATM    5  N   UNK A   0     -10.729  11.405  65.958  1.00  0.00    -0.271 NA 
HETATM    6  C   UNK A   0     -11.199  11.913  67.153  1.00  0.00    -0.319 A  
HETATM    7  H   UNK A   0     -10.737  10.417  65.703  1.00  0.00     0.000 HD 
HETATM    8  C   UNK A   0     -11.820  11.328  68.259  1.00  0.00    -0.299 A  
HETATM    9  C   UNK A   0     -12.073  12.175  69.354  1.00  0.00    -0.247 A  
HETATM   10  C   UNK A   0     -11.617  13.508  69.390  1.00  0.00    -0.369 A  
HETATM   11  C   UNK A   0     -10.955  14.056  68.284  1.00  0.00    -0.272 A  
HETATM   12  C   UNK A   0     -10.884  13.256  67.130  1.00  0.00    -0.268 A  
HETATM   13  C   UNK A   0     -10.096  15.255  68.172  1.00  0.00    -0.229 C  
HETATM   14  C   UNK A   0      -9.415  15.749  69.220  1.00  0.00    -0.270 C  
HETATM   15  C   UNK A   0      -8.109  16.496  68.912  1.00  0.00    -0.240 C  
HETATM   16  C   UNK A   0     -10.544  17.950  66.878  1.00  0.00    -0.265 C  
HETATM   17  C   UNK A   0      -8.272  17.473  67.697  1.00  0.00    -0.215 C  
HETATM   18  N   UNK A   0      -9.333  17.145  66.707  1.00  0.00    -0.245 NA 
ENDROOT
BRANCH  15  19
HETATM   19  C   UNK A   0      -6.988  15.424  68.632  1.00  0.00    -0.111 C  
ATOM     20  N   ALA A   1      -6.790  14.513  69.662  1.00  0.00    -0.195 N  
ATOM     21  H   ALA A   1      -7.125  14.773  70.590  1.00  0.00     0.000 HD 
HETATM   22  O   UNK A   0      -6.320  15.388  67.610  1.00  0.00    -0.146 OA 
BRANCH  20  23
ATOM     23  CA  ALA A   1      -6.134  13.203  69.520  1.00  0.00    -0.114 C  
ATOM     24  CB  ALA A   1      -5.326  13.109  68.227  1.00  0.00    -0.089 C  
BRANCH  23  25
ATOM     25  C   ALA A   1      -5.289  12.768  70.729  1.00  0.00    -0.168 C  
ATOM     26  O   ALA A   1      -5.688  13.493  71.889  1.00  0.00    -0.423 OA 
ATOM     27  H   ALA A   1      -5.166  13.225  72.636  1.00  0.00     0.000 HD 
ENDBRANCH  23  25
ENDBRANCH  20  23
ENDBRANCH  15  19
TORSDOF 3
ENDMDL
MODEL      103
REMARK 921   NORMALIZED FREE ENERGY PREDICTED BY IDOCK:   -4.40 KCAL/MOL
REMARK 922        TOTAL FREE ENERGY PREDICTED BY IDOCK:   -5.61 KCAL/MOL
REMARK 923 INTER-LIGAND FREE ENERGY PREDICTED BY IDOCK:   -5.15 KCAL/MOL
REMARK 924 INTRA-LIGAND FREE ENERGY PREDICTED BY IDOCK:   -0.46 KCAL/MOL
REMARK 927      BINDING AFFINITY PREDICTED BY RF-SCORE:    0.00 PKD
ROOT
HETATM    1  C   UNK A   0      -9.519   9.264  67.355  1.00  0.00    -0.132 C  
HETATM    2  C   UNK A   0     -10.521   9.981  66.416  1.00  0.00    -0.199 C  
HETATM    3  C   UNK A   0     -10.524  11.424  66.791  1.00  0.00    -0.284 A  
HETATM    4  C   UNK A   0     -11.498  12.368  66.987  1.00  0.00    -0.358 A  
HETATM    5  N   UNK A   0     -10.865  13.562  67.256  1.00  0.00    -0.274 NA 
HETATM    6  C   UNK A   0      -9.495  13.386  67.279  1.00  0.00    -0.234 A  
HETATM    7  H   UNK A   0     -11.341  14.450  67.416  1.00  0.00     0.000 HD 
HETATM    8  C   UNK A   0      -8.425  14.267  67.452  1.00  0.00    -0.216 A  
HETATM    9  C   UNK A   0      -7.143  13.688  67.511  1.00  0.00    -0.166 A  
HETATM   10  C   UNK A   0      -6.952  12.292  67.520  1.00  0.00    -0.142 A  
HETATM   11  C   UNK A   0      -8.049  11.430  67.394  1.00  0.00    -0.142 A  
HETATM   12  C   UNK A   0      -9.296  12.029  67.141  1.00  0.00    -0.187 A  
HETATM   13  C   UNK A   0      -8.186   9.992  67.708  1.00  0.00    -0.113 C  
HETATM   14  C   UNK A   0      -7.415   9.383  68.626  1.00  0.00    -0.079 C  
HETATM   15  C   UNK A   0      -8.021   8.174  69.353  1.00  0.00    -0.114 C  
HETATM   16  C   UNK A   0      -8.443   7.551  65.945  1.00  0.00    -0.147 C  
HETATM   17  C   UNK A   0      -8.769   7.216  68.362  1.00  0.00    -0.125 C  
HETATM   18  N   UNK A   0      -9.292   7.820  67.107  1.00  0.00    -0.143 NA 
ENDROOT
BRANCH  15  19
HETATM   19  C   UNK A   0      -8.999   8.713  70.466  1.00  0.00    -0.164 C  
ATOM     20  N   ALA A   1     -10.343   8.460  70.224  1.00  0.00    -0.201 N  
ATOM     21  H   ALA A   1     -10.617   8.250  69.264  1.00  0.00     0.000 HD 
HETATM   22  O   UNK A   0      -8.631   9.322  71.459  1.00  0.00    -0.320 OA 
BRANCH  20  23
ATOM     23  CA  ALA A   1     -11.404   8.472  71.244  1.00  0.00    -0.271 C  
ATOM     24  CB  ALA A   1     -12.262   9.733  71.158  1.00  0.00    -0.453 C  
BRANCH  23  25
ATOM     25  C   ALA A   1     -12.284   7.212  71.279  1.00  0.00    -0.365 C  
ATOM     26  O   ALA A   1     -11.618   6.134  70.625  1.00  0.00    -0.321 OA 
ATOM     27  H   ALA A   1     -12.161   5.356  70.646  1.00  0.00     0.000 HD 
ENDBRANCH  23  25
ENDBRANCH  20  23
ENDBRANCH  15  19
TORSDOF 3
ENDMDL
MODEL      104
REMARK 921   NORMALIZED FREE ENERGY PREDICTED BY IDOCK:   -4.36 KCAL/MOL
REMARK 922        TOTAL FREE ENERGY PREDICTED BY IDOCK:   -5.58 KCAL/MOL
REMARK 923 INTER-LIGAND FREE ENERGY PREDICTED BY IDOCK:   -4.71 KCAL/MOL
REMARK 924 INTRA-LIGAND FREE ENERGY PREDICTED BY IDOCK:   -0.87 KCAL/MOL
REMARK 927      BINDING AFFINITY PREDICTED BY RF-SCORE:    0.00 PKD
ROOT
HETATM    1  C   UNK A   0      -9.563   9.097  67.348  1.00  0.00    -0.151 C  
HETATM    2  C   UNK A   0     -10.399   7.821  67.079  1.00  0.00    -0.405 C  
HETATM    3  C   UNK A   0     -10.701   7.204  68.403  1.00  0.00    -0.192 A  
HETATM    4  C   UNK A   0     -10.670   5.928  68.902  1.00  0.00    -0.300 A  
HETATM    5  N   UNK A   0     -11.133   5.982  70.198  1.00  0.00    -0.361 NA 
HETATM    6  C   UNK A   0     -11.419   7.286  70.553  1.00  0.00    -0.279 A  
HETATM    7  H   UNK A   0     -11.248   5.174  70.810  1.00  0.00     0.000 HD 
HETATM    8  C   UNK A   0     -11.950   7.864  71.708  1.00  0.00    -0.337 A  
HETATM    9  C   UNK A   0     -12.007   9.270  71.735  1.00  0.00    -0.455 A  
HETATM   10  C   UNK A   0     -11.447  10.061  70.711  1.00  0.00    -0.438 A  
HETATM   11  C   UNK A   0     -10.877   9.453  69.585  1.00  0.00    -0.245 A  
HETATM   12  C   UNK A   0     -11.005   8.057  69.487  1.00  0.00    -0.062 A  
HETATM   13  C   UNK A   0      -9.946   9.990  68.569  1.00  0.00    -0.177 C  
HETATM   14  C   UNK A   0      -9.111  11.011  68.829  1.00  0.00    -0.161 C  
HETATM   15  C   UNK A   0      -7.796  11.053  68.039  1.00  0.00    -0.112 C  
HETATM   16  C   UNK A   0     -10.329  10.725  65.662  1.00  0.00    -0.230 C  
HETATM   17  C   UNK A   0      -8.021  10.743  66.519  1.00  0.00    -0.144 C  
HETATM   18  N   UNK A   0      -9.213   9.924  66.169  1.00  0.00    -0.160 NA 
ENDROOT
BRANCH  15  19
HETATM   19  C   UNK A   0      -6.802  10.015  68.687  1.00  0.00    -0.054 C  
ATOM     20  N   ALA A   1      -7.122   9.644  69.987  1.00  0.00    -0.087 N  
ATOM     21  H   ALA A   1      -7.741  10.262  70.513  1.00  0.00     0.000 HD 
HETATM   22  O   UNK A   0      -5.814   9.573  68.122  1.00  0.00    -0.041 OA 
BRANCH  20  23
ATOM     23  CA  ALA A   1      -6.640   8.430  70.665  1.00  0.00    -0.037 C  
ATOM     24  CB  ALA A   1      -6.689   8.571  72.186  1.00  0.00    -0.089 C  
BRANCH  23  25
ATOM     25  C   ALA A   1      -7.313   7.124  70.213  1.00  0.00    -0.083 C  
ATOM     26  O   ALA A   1      -8.132   6.610  71.260  1.00  0.00    -0.110 OA 
ATOM     27  H   ALA A   1      -8.548   5.803  70.980  1.00  0.00     0.000 HD 
ENDBRANCH  23  25
ENDBRANCH  20  23
ENDBRANCH  15  19
TORSDOF 3
ENDMDL
MODEL      105
REMARK 921   NORMALIZED FREE ENERGY PREDICTED BY IDOCK:   -4.35 KCAL/MOL
REMARK 922        TOTAL FREE ENERGY PREDICTED BY IDOCK:   -5.56 KCAL/MOL
REMARK 923 INTER-LIGAND FREE ENERGY PREDICTED BY IDOCK:   -4.70 KCAL/MOL
REMARK 924 INTRA-LIGAND FREE ENERGY PREDICTED BY IDOCK:   -0.86 KCAL/MOL
REMARK 927      BINDING AFFINITY PREDICTED BY RF-SCORE:    0.00 PKD
ROOT
HETATM    1  C   UNK A   0      -9.551   7.463  69.289  1.00  0.00    -0.154 C  
HETATM    2  C   UNK A   0      -8.905   8.348  70.383  1.00  0.00    -0.149 C  
HETATM    3  C   UNK A   0      -8.491   9.624  69.732  1.00  0.00    -0.200 A  
HETATM    4  C   UNK A   0      -7.369  10.411  69.775  1.00  0.00    -0.154 A  
HETATM    5  N   UNK A   0      -7.613  11.519  68.993  1.00  0.00    -0.272 NA 
HETATM    6  C   UNK A   0      -8.863  11.432  68.413  1.00  0.00    -0.167 A  
HETATM    7  H   UNK A   0      -6.963  12.293  68.863  1.00  0.00     0.000 HD 
HETATM    8  C   UNK A   0      -9.595  12.296  67.594  1.00  0.00    -0.191 A  
HETATM    9  C   UNK A   0     -10.824  11.808  67.111  1.00  0.00    -0.303 A  
HETATM   10  C   UNK A   0     -11.242  10.481  67.335  1.00  0.00    -0.249 A  
HETATM   11  C   UNK A   0     -10.464   9.621  68.121  1.00  0.00    -0.266 A  
HETATM   12  C   UNK A   0      -9.342  10.184  68.752  1.00  0.00    -0.168 A  
HETATM   13  C   UNK A   0     -10.473   8.146  68.232  1.00  0.00    -0.210 C  
HETATM   14  C   UNK A   0     -10.901   7.355  67.233  1.00  0.00    -0.326 C  
HETATM   15  C   UNK A   0     -10.280   5.954  67.140  1.00  0.00    -0.247 C  
HETATM   16  C   UNK A   0     -11.395   6.288  70.430  1.00  0.00    -0.372 C  
HETATM   17  C   UNK A   0     -10.183   5.267  68.546  1.00  0.00    -0.144 C  
HETATM   18  N   UNK A   0     -10.115   6.165  69.730  1.00  0.00    -0.172 NA 
ENDROOT
BRANCH  15  19
HETATM   19  C   UNK A   0      -8.856   6.093  66.478  1.00  0.00    -0.133 C  
ATOM     20  N   ALA A   1      -8.793   7.005  65.431  1.00  0.00    -0.367 N  
ATOM     21  H   ALA A   1      -9.671   7.263  64.979  1.00  0.00     0.000 HD 
HETATM   22  O   UNK A   0      -7.877   5.451  66.825  1.00  0.00    -0.099 OA 
BRANCH  20  23
ATOM     23  CA  ALA A   1      -7.560   7.627  64.922  1.00  0.00    -0.099 C  
ATOM     24  CB  ALA A   1      -7.376   7.381  63.426  1.00  0.00    -0.087 C  
BRANCH  23  25
ATOM     25  C   ALA A   1      -7.402   9.119  65.257  1.00  0.00    -0.092 C  
ATOM     26  O   ALA A   1      -6.839   9.270  66.558  1.00  0.00    -0.078 OA 
ATOM     27  H   ALA A   1      -6.742  10.191  66.765  1.00  0.00     0.000 HD 
ENDBRANCH  23  25
ENDBRANCH  20  23
ENDBRANCH  15  19
TORSDOF 3
ENDMDL
MODEL      106
REMARK 921   NORMALIZED FREE ENERGY PREDICTED BY IDOCK:   -4.33 KCAL/MOL
REMARK 922        TOTAL FREE ENERGY PREDICTED BY IDOCK:   -5.54 KCAL/MOL
REMARK 923 INTER-LIGAND FREE ENERGY PREDICTED BY IDOCK:   -5.35 KCAL/MOL
REMARK 924 INTRA-LIGAND FREE ENERGY PREDICTED BY IDOCK:   -0.19 KCAL/MOL
REMARK 927      BINDING AFFINITY PREDICTED BY RF-SCORE:    0.00 PKD
ROOT
HETATM    1  C   UNK A   0     -10.407  13.593  68.606  1.00  0.00    -0.219 C  
HETATM    2  C   UNK A   0     -11.172  14.658  69.431  1.00  0.00    -0.307 C  
HETATM    3  C   UNK A   0     -10.822  15.992  68.865  1.00  0.00    -0.286 A  
HETATM    4  C   UNK A   0     -10.476  17.206  69.398  1.00  0.00    -0.203 A  
HETATM    5  N   UNK A   0     -10.335  18.090  68.351  1.00  0.00    -0.380 NA 
HETATM    6  C   UNK A   0     -10.542  17.447  67.146  1.00  0.00    -0.264 A  
HETATM    7  H   UNK A   0     -10.109  19.079  68.451  1.00  0.00     0.000 HD 
HETATM    8  C   UNK A   0     -10.565  17.890  65.822  1.00  0.00    -0.175 A  
HETATM    9  C   UNK A   0     -10.717  16.899  64.834  1.00  0.00     0.045 A  
HETATM   10  C   UNK A   0     -10.720  15.524  65.148  1.00  0.00    -0.460 A  
HETATM   11  C   UNK A   0     -10.648  15.107  66.483  1.00  0.00    -0.304 A  
HETATM   12  C   UNK A   0     -10.693  16.113  67.463  1.00  0.00    -0.304 A  
HETATM   13  C   UNK A   0     -10.295  13.793  67.062  1.00  0.00    -0.260 C  
HETATM   14  C   UNK A   0      -9.513  12.911  66.417  1.00  0.00    -0.228 C  
HETATM   15  C   UNK A   0      -8.677  11.957  67.282  1.00  0.00    -0.171 C  
HETATM   16  C   UNK A   0     -11.955  11.680  68.447  1.00  0.00    -0.196 C  
HETATM   17  C   UNK A   0      -9.513  11.367  68.470  1.00  0.00    -0.183 C  
HETATM   18  N   UNK A   0     -10.670  12.174  68.944  1.00  0.00    -0.325 NA 
ENDROOT
BRANCH  15  19
HETATM   19  C   UNK A   0      -7.422  12.749  67.811  1.00  0.00    -0.135 C  
ATOM     20  N   ALA A   1      -7.447  13.028  69.172  1.00  0.00    -0.317 N  
ATOM     21  H   ALA A   1      -8.352  12.994  69.642  1.00  0.00     0.000 HD 
HETATM   22  O   UNK A   0      -6.499  13.117  67.101  1.00  0.00    -0.227 OA 
BRANCH  20  23
ATOM     23  CA  ALA A   1      -6.272  13.369  69.989  1.00  0.00    -0.089 C  
ATOM     24  CB  ALA A   1      -5.225  12.256  69.972  1.00  0.00    -0.089 C  
BRANCH  23  25
ATOM     25  C   ALA A   1      -5.632  14.729  69.667  1.00  0.00    -0.096 C  
ATOM     26  O   ALA A   1      -6.613  15.761  69.748  1.00  0.00    -0.182 OA 
ATOM     27  H   ALA A   1      -6.218  16.601  69.549  1.00  0.00     0.000 HD 
ENDBRANCH  23  25
ENDBRANCH  20  23
ENDBRANCH  15  19
TORSDOF 3
ENDMDL
MODEL      107
REMARK 921   NORMALIZED FREE ENERGY PREDICTED BY IDOCK:   -4.25 KCAL/MOL
REMARK 922        TOTAL FREE ENERGY PREDICTED BY IDOCK:   -5.44 KCAL/MOL
REMARK 923 INTER-LIGAND FREE ENERGY PREDICTED BY IDOCK:   -4.93 KCAL/MOL
REMARK 924 INTRA-LIGAND FREE ENERGY PREDICTED BY IDOCK:   -0.51 KCAL/MOL
REMARK 927      BINDING AFFINITY PREDICTED BY RF-SCORE:    0.00 PKD
ROOT
HETATM    1  C   UNK A   0     -10.420  12.404  67.049  1.00  0.00    -0.220 C  
HETATM    2  C   UNK A   0     -11.430  12.115  65.911  1.00  0.00    -0.418 C  
HETATM    3  C   UNK A   0     -10.640  11.833  64.679  1.00  0.00    -0.359 A  
HETATM    4  C   UNK A   0     -10.727  12.220  63.367  1.00  0.00    -0.391 A  
HETATM    5  N   UNK A   0      -9.732  11.563  62.677  1.00  0.00    -0.526 NA 
HETATM    6  C   UNK A   0      -8.978  10.791  63.539  1.00  0.00    -0.185 A  
HETATM    7  H   UNK A   0      -9.574  11.636  61.672  1.00  0.00     0.000 HD 
HETATM    8  C   UNK A   0      -7.910   9.912  63.344  1.00  0.00    -0.152 A  
HETATM    9  C   UNK A   0      -7.326   9.370  64.504  1.00  0.00    -0.105 A  
HETATM   10  C   UNK A   0      -7.710   9.782  65.797  1.00  0.00    -0.110 A  
HETATM   11  C   UNK A   0      -8.753  10.702  65.962  1.00  0.00    -0.186 A  
HETATM   12  C   UNK A   0      -9.450  11.081  64.802  1.00  0.00    -0.267 A  
HETATM   13  C   UNK A   0      -9.121  11.542  67.122  1.00  0.00    -0.167 C  
HETATM   14  C   UNK A   0      -8.222  11.920  68.047  1.00  0.00    -0.157 C  
HETATM   15  C   UNK A   0      -8.483  13.250  68.768  1.00  0.00     0.123 C  
HETATM   16  C   UNK A   0     -11.433  11.408  69.065  1.00  0.00    -0.300 C  
HETATM   17  C   UNK A   0      -9.985  13.396  69.193  1.00  0.00     0.309 C  
HETATM   18  N   UNK A   0     -10.986  12.633  68.399  1.00  0.00    -0.244 NA 
ENDROOT
BRANCH  15  19
HETATM   19  C   UNK A   0      -8.050  14.421  67.806  1.00  0.00    -0.168 C  
ATOM     20  N   ALA A   1      -8.953  15.475  67.739  1.00  0.00    -0.172 N  
ATOM     21  H   ALA A   1      -9.911  15.293  68.036  1.00  0.00     0.000 HD 
HETATM   22  O   UNK A   0      -7.022  14.417  67.148  1.00  0.00    -0.173 OA 
BRANCH  20  23
ATOM     23  CA  ALA A   1      -8.635  16.834  67.271  1.00  0.00    -0.192 C  
ATOM     24  CB  ALA A   1      -9.643  17.328  66.234  1.00  0.00    -0.268 C  
BRANCH  23  25
ATOM     25  C   ALA A   1      -8.440  17.874  68.386  1.00  0.00    -0.297 C  
ATOM     26  O   ALA A   1      -9.208  19.041  68.104  1.00  0.00    -0.301 OA 
ATOM     27  H   ALA A   1      -9.087  19.684  68.792  1.00  0.00     0.000 HD 
ENDBRANCH  23  25
ENDBRANCH  20  23
ENDBRANCH  15  19
TORSDOF 3
ENDMDL
MODEL      108
REMARK 921   NORMALIZED FREE ENERGY PREDICTED BY IDOCK:   -4.22 KCAL/MOL
REMARK 922        TOTAL FREE ENERGY PREDICTED BY IDOCK:   -5.40 KCAL/MOL
REMARK 923 INTER-LIGAND FREE ENERGY PREDICTED BY IDOCK:   -4.64 KCAL/MOL
REMARK 924 INTRA-LIGAND FREE ENERGY PREDICTED BY IDOCK:   -0.77 KCAL/MOL
REMARK 927      BINDING AFFINITY PREDICTED BY RF-SCORE:    0.00 PKD
ROOT
HETATM    1  C   UNK A   0     -10.204   5.122  69.364  1.00  0.00    -0.223 C  
HETATM    2  C   UNK A   0     -11.367   6.142  69.449  1.00  0.00    -0.401 C  
HETATM    3  C   UNK A   0     -11.355   6.712  70.826  1.00  0.00    -0.389 A  
HETATM    4  C   UNK A   0     -12.315   6.980  71.768  1.00  0.00    -0.354 A  
HETATM    5  N   UNK A   0     -11.686   7.578  72.838  1.00  0.00    -0.598 NA 
HETATM    6  C   UNK A   0     -10.325   7.657  72.613  1.00  0.00    -0.275 A  
HETATM    7  H   UNK A   0     -12.158   7.914  73.677  1.00  0.00     0.000 HD 
HETATM    8  C   UNK A   0      -9.270   8.208  73.344  1.00  0.00    -0.291 A  
HETATM    9  C   UNK A   0      -7.978   8.005  72.825  1.00  0.00    -0.198 A  
HETATM   10  C   UNK A   0      -7.743   7.188  71.701  1.00  0.00    -0.088 A  
HETATM   11  C   UNK A   0      -8.817   6.609  71.015  1.00  0.00    -0.142 A  
HETATM   12  C   UNK A   0     -10.107   6.981  71.431  1.00  0.00    -0.197 A  
HETATM   13  C   UNK A   0      -8.854   5.478  70.062  1.00  0.00    -0.139 C  
HETATM   14  C   UNK A   0      -7.927   4.506  70.067  1.00  0.00    -0.063 C  
HETATM   15  C   UNK A   0      -8.368   3.119  69.577  1.00  0.00    -0.088 C  
HETATM   16  C   UNK A   0      -9.314   5.363  67.077  1.00  0.00    -0.121 C  
HETATM   17  C   UNK A   0      -9.235   3.213  68.274  1.00  0.00    -0.192 C  
HETATM   18  N   UNK A   0      -9.972   4.485  68.046  1.00  0.00    -0.086 NA 
ENDROOT
BRANCH  15  19
HETATM   19  C   UNK A   0      -9.170   2.422  70.742  1.00  0.00    -0.129 C  
ATOM     20  N   ALA A   1      -8.850   2.877  72.015  1.00  0.00    -0.080 N  
ATOM     21  H   ALA A   1      -7.959   3.359  72.132  1.00  0.00     0.000 HD 
HETATM   22  O   UNK A   0      -9.994   1.538  70.568  1.00  0.00    -0.004 OA 
BRANCH  20  23
ATOM     23  CA  ALA A   1      -9.697   2.718  73.209  1.00  0.00    -0.099 C  
ATOM     24  CB  ALA A   1      -9.015   1.868  74.280  1.00  0.00    -0.070 C  
BRANCH  23  25
ATOM     25  C   ALA A   1     -10.227   4.032  73.806  1.00  0.00    -0.151 C  
ATOM     26  O   ALA A   1     -11.580   4.237  73.407  1.00  0.00    -0.257 OA 
ATOM     27  H   ALA A   1     -11.908   5.049  73.775  1.00  0.00     0.000 HD 
ENDBRANCH  23  25
ENDBRANCH  20  23
ENDBRANCH  15  19
TORSDOF 3
ENDMDL
MODEL      109
REMARK 921   NORMALIZED FREE ENERGY PREDICTED BY IDOCK:   -4.19 KCAL/MOL
REMARK 922        TOTAL FREE ENERGY PREDICTED BY IDOCK:   -5.37 KCAL/MOL
REMARK 923 INTER-LIGAND FREE ENERGY PREDICTED BY IDOCK:   -5.09 KCAL/MOL
REMARK 924 INTRA-LIGAND FREE ENERGY PREDICTED BY IDOCK:   -0.28 KCAL/MOL
REMARK 927      BINDING AFFINITY PREDICTED BY RF-SCORE:    0.00 PKD
ROOT
HETATM    1  C   UNK A   0      -9.053   9.304  69.937  1.00  0.00    -0.191 C  
HETATM    2  C   UNK A   0     -10.361   9.779  70.618  1.00  0.00    -0.330 C  
HETATM    3  C   UNK A   0     -10.738   8.742  71.621  1.00  0.00    -0.397 A  
HETATM    4  C   UNK A   0     -11.906   8.116  71.970  1.00  0.00    -0.338 A  
HETATM    5  N   UNK A   0     -11.628   7.289  73.035  1.00  0.00    -0.577 NA 
HETATM    6  C   UNK A   0     -10.284   7.342  73.348  1.00  0.00    -0.351 A  
HETATM    7  H   UNK A   0     -12.317   6.718  73.524  1.00  0.00     0.000 HD 
HETATM    8  C   UNK A   0      -9.515   6.748  74.351  1.00  0.00    -0.279 A  
HETATM    9  C   UNK A   0      -8.126   6.969  74.288  1.00  0.00    -0.154 A  
HETATM   10  C   UNK A   0      -7.525   7.645  73.208  1.00  0.00    -0.125 A  
HETATM   11  C   UNK A   0      -8.317   8.190  72.189  1.00  0.00    -0.209 A  
HETATM   12  C   UNK A   0      -9.709   8.128  72.371  1.00  0.00    -0.338 A  
HETATM   13  C   UNK A   0      -7.962   8.625  70.821  1.00  0.00    -0.127 C  
HETATM   14  C   UNK A   0      -6.908   8.118  70.159  1.00  0.00    -0.040 C  
HETATM   15  C   UNK A   0      -6.998   8.086  68.627  1.00  0.00    -0.071 C  
HETATM   16  C   UNK A   0      -7.750  11.364  69.559  1.00  0.00     0.280 C  
HETATM   17  C   UNK A   0      -7.570   9.427  68.050  1.00  0.00    -0.083 C  
HETATM   18  N   UNK A   0      -8.444  10.227  68.950  1.00  0.00    -0.129 NA 
ENDROOT
BRANCH  15  19
HETATM   19  C   UNK A   0      -7.901   6.861  68.216  1.00  0.00    -0.118 C  
ATOM     20  N   ALA A   1      -8.639   7.053  67.054  1.00  0.00    -0.120 N  
ATOM     21  H   ALA A   1      -8.789   8.014  66.746  1.00  0.00     0.000 HD 
HETATM   22  O   UNK A   0      -7.979   5.826  68.858  1.00  0.00    -0.095 OA 
BRANCH  20  23
ATOM     23  CA  ALA A   1      -9.222   5.979  66.234  1.00  0.00    -0.154 C  
ATOM     24  CB  ALA A   1      -8.227   4.846  65.991  1.00  0.00    -0.112 C  
BRANCH  23  25
ATOM     25  C   ALA A   1     -10.565   5.431  66.744  1.00  0.00    -0.271 C  
ATOM     26  O   ALA A   1     -11.507   6.492  66.874  1.00  0.00    -0.762 OA 
ATOM     27  H   ALA A   1     -12.337   6.154  67.189  1.00  0.00     0.000 HD 
ENDBRANCH  23  25
ENDBRANCH  20  23
ENDBRANCH  15  19
TORSDOF 3
ENDMDL
MODEL      110
REMARK 921   NORMALIZED FREE ENERGY PREDICTED BY IDOCK:   -4.19 KCAL/MOL
REMARK 922        TOTAL FREE ENERGY PREDICTED BY IDOCK:   -5.37 KCAL/MOL
REMARK 923 INTER-LIGAND FREE ENERGY PREDICTED BY IDOCK:   -4.87 KCAL/MOL
REMARK 924 INTRA-LIGAND FREE ENERGY PREDICTED BY IDOCK:   -0.50 KCAL/MOL
REMARK 927      BINDING AFFINITY PREDICTED BY RF-SCORE:    0.00 PKD
ROOT
HETATM    1  C   UNK A   0     -10.031   9.418  68.011  1.00  0.00    -0.176 C  
HETATM    2  C   UNK A   0     -11.270  10.272  68.378  1.00  0.00    -0.284 C  
HETATM    3  C   UNK A   0     -11.178  11.541  67.602  1.00  0.00    -0.343 A  
HETATM    4  C   UNK A   0     -11.362  12.867  67.895  1.00  0.00    -0.294 A  
HETATM    5  N   UNK A   0     -11.197  13.574  66.724  1.00  0.00    -0.303 NA 
HETATM    6  C   UNK A   0     -10.865  12.721  65.690  1.00  0.00    -0.273 A  
HETATM    7  H   UNK A   0     -11.304  14.584  66.634  1.00  0.00     0.000 HD 
HETATM    8  C   UNK A   0     -10.645  12.920  64.325  1.00  0.00    -0.430 A  
HETATM    9  C   UNK A   0     -10.222  11.797  63.590  1.00  0.00    -0.461 A  
HETATM   10  C   UNK A   0      -9.914  10.569  64.210  1.00  0.00    -0.398 A  
HETATM   11  C   UNK A   0     -10.098  10.412  65.590  1.00  0.00    -0.337 A  
HETATM   12  C   UNK A   0     -10.705  11.481  66.272  1.00  0.00    -0.321 A  
HETATM   13  C   UNK A   0      -9.556   9.403  66.525  1.00  0.00    -0.267 C  
HETATM   14  C   UNK A   0      -8.405   8.751  66.288  1.00  0.00    -0.120 C  
HETATM   15  C   UNK A   0      -7.605   8.284  67.512  1.00  0.00    -0.098 C  
HETATM   16  C   UNK A   0     -10.851   7.092  67.981  1.00  0.00    -0.163 C  
HETATM   17  C   UNK A   0      -8.530   7.636  68.598  1.00  0.00    -0.129 C  
HETATM   18  N   UNK A   0      -9.955   8.064  68.610  1.00  0.00    -0.183 NA 
ENDROOT
BRANCH  15  19
HETATM   19  C   UNK A   0      -6.832   9.528  68.095  1.00  0.00    -0.070 C  
ATOM     20  N   ALA A   1      -6.737   9.550  69.481  1.00  0.00    -0.047 N  
ATOM     21  H   ALA A   1      -7.401   8.981  70.007  1.00  0.00     0.000 HD 
HETATM   22  O   UNK A   0      -6.363  10.422  67.409  1.00  0.00    -0.057 OA 
BRANCH  20  23
ATOM     23  CA  ALA A   1      -5.756  10.331  70.251  1.00  0.00    -0.065 C  
ATOM     24  CB  ALA A   1      -6.285  11.720  70.604  1.00  0.00     0.300 C  
BRANCH  23  25
ATOM     25  C   ALA A   1      -5.199   9.623  71.497  1.00  0.00    -0.069 C  
ATOM     26  O   ALA A   1      -6.179   9.617  72.533  1.00  0.00    -0.277 OA 
ATOM     27  H   ALA A   1      -5.835   9.180  73.303  1.00  0.00     0.000 HD 
ENDBRANCH  23  25
ENDBRANCH  20  23
ENDBRANCH  15  19
TORSDOF 3
ENDMDL
MODEL      111
REMARK 921   NORMALIZED FREE ENERGY PREDICTED BY IDOCK:   -4.17 KCAL/MOL
REMARK 922        TOTAL FREE ENERGY PREDICTED BY IDOCK:   -5.35 KCAL/MOL
REMARK 923 INTER-LIGAND FREE ENERGY PREDICTED BY IDOCK:   -5.06 KCAL/MOL
REMARK 924 INTRA-LIGAND FREE ENERGY PREDICTED BY IDOCK:   -0.28 KCAL/MOL
REMARK 927      BINDING AFFINITY PREDICTED BY RF-SCORE:    0.00 PKD
ROOT
HETATM    1  C   UNK A   0      -9.304   7.927  71.096  1.00  0.00    -0.151 C  
HETATM    2  C   UNK A   0      -8.131   8.936  71.161  1.00  0.00    -0.201 C  
HETATM    3  C   UNK A   0      -8.253   9.832  69.974  1.00  0.00    -0.207 A  
HETATM    4  C   UNK A   0      -7.376  10.326  69.044  1.00  0.00    -0.092 A  
HETATM    5  N   UNK A   0      -8.084  11.171  68.219  1.00  0.00    -0.124 NA 
HETATM    6  C   UNK A   0      -9.417  11.191  68.581  1.00  0.00    -0.193 A  
HETATM    7  H   UNK A   0      -7.682  11.706  67.450  1.00  0.00     0.000 HD 
HETATM    8  C   UNK A   0     -10.521  11.906  68.110  1.00  0.00    -0.225 A  
HETATM    9  C   UNK A   0     -11.766  11.579  68.679  1.00  0.00    -0.389 A  
HETATM   10  C   UNK A   0     -11.918  10.508  69.582  1.00  0.00    -0.279 A  
HETATM   11  C   UNK A   0     -10.799   9.777  70.001  1.00  0.00    -0.319 A  
HETATM   12  C   UNK A   0      -9.544  10.242  69.573  1.00  0.00    -0.225 A  
HETATM   13  C   UNK A   0     -10.702   8.445  70.636  1.00  0.00    -0.245 C  
HETATM   14  C   UNK A   0     -11.648   7.503  70.475  1.00  0.00    -0.224 C  
HETATM   15  C   UNK A   0     -11.195   6.039  70.563  1.00  0.00    -0.363 C  
HETATM   16  C   UNK A   0      -9.981   7.589  73.444  1.00  0.00    -0.323 C  
HETATM   17  C   UNK A   0     -10.214   5.806  71.763  1.00  0.00    -0.197 C  
HETATM   18  N   UNK A   0      -9.431   6.981  72.231  1.00  0.00    -0.140 NA 
ENDROOT
BRANCH  15  19
HETATM   19  C   UNK A   0     -10.516   5.654  69.193  1.00  0.00    -0.269 C  
ATOM     20  N   ALA A   1      -9.272   5.048  69.316  1.00  0.00    -0.103 N  
ATOM     21  H   ALA A   1      -8.772   5.177  70.196  1.00  0.00     0.000 HD 
HETATM   22  O   UNK A   0     -11.013   5.877  68.100  1.00  0.00    -0.274 OA 
BRANCH  20  23
ATOM     23  CA  ALA A   1      -8.619   4.236  68.278  1.00  0.00    -0.095 C  
ATOM     24  CB  ALA A   1      -9.383   2.942  68.004  1.00  0.00    -0.258 C  
BRANCH  23  25
ATOM     25  C   ALA A   1      -8.314   4.981  66.968  1.00  0.00    -0.107 C  
ATOM     26  O   ALA A   1      -6.960   4.757  66.583  1.00  0.00    -0.064 OA 
ATOM     27  H   ALA A   1      -6.772   5.218  65.774  1.00  0.00     0.000 HD 
ENDBRANCH  23  25
ENDBRANCH  20  23
ENDBRANCH  15  19
TORSDOF 3
ENDMDL
MODEL      112
REMARK 921   NORMALIZED FREE ENERGY PREDICTED BY IDOCK:   -4.16 KCAL/MOL
REMARK 922        TOTAL FREE ENERGY PREDICTED BY IDOCK:   -5.34 KCAL/MOL
REMARK 923 INTER-LIGAND FREE ENERGY PREDICTED BY IDOCK:   -4.93 KCAL/MOL
REMARK 924 INTRA-LIGAND FREE ENERGY PREDICTED BY IDOCK:   -0.41 KCAL/MOL
REMARK 927      BINDING AFFINITY PREDICTED BY RF-SCORE:    0.00 PKD
ROOT
HETATM    1  C   UNK A   0      -8.621  16.487  67.537  1.00  0.00    -0.177 C  
HETATM    2  C   UNK A   0      -9.778  17.502  67.364  1.00  0.00    -0.274 C  
HETATM    3  C   UNK A   0      -9.162  18.847  67.178  1.00  0.00    -0.313 A  
HETATM    4  C   UNK A   0      -9.408  20.099  67.679  1.00  0.00    -0.365 A  
HETATM    5  N   UNK A   0      -8.529  20.966  67.069  1.00  0.00    -0.563 NA 
HETATM    6  C   UNK A   0      -7.690  20.279  66.214  1.00  0.00    -0.199 A  
HETATM    7  H   UNK A   0      -8.502  21.973  67.227  1.00  0.00     0.000 HD 
HETATM    8  C   UNK A   0      -6.680  20.686  65.339  1.00  0.00    -0.206 A  
HETATM    9  C   UNK A   0      -5.965  19.662  64.690  1.00  0.00    -0.310 A  
HETATM   10  C   UNK A   0      -6.167  18.301  64.993  1.00  0.00    -0.011 A  
HETATM   11  C   UNK A   0      -7.155  17.923  65.911  1.00  0.00    -0.298 A  
HETATM   12  C   UNK A   0      -7.987  18.945  66.400  1.00  0.00    -0.300 A  
HETATM   13  C   UNK A   0      -7.347  16.658  66.653  1.00  0.00    -0.290 C  
HETATM   14  C   UNK A   0      -6.326  15.830  66.936  1.00  0.00     0.346 C  
HETATM   15  C   UNK A   0      -6.456  14.972  68.201  1.00  0.00    -0.138 C  
HETATM   16  C   UNK A   0      -9.390  14.446  66.386  1.00  0.00    -0.258 C  
HETATM   17  C   UNK A   0      -7.886  14.342  68.332  1.00  0.00    -0.138 C  
HETATM   18  N   UNK A   0      -9.001  15.059  67.657  1.00  0.00    -0.174 NA 
ENDROOT
BRANCH  15  19
HETATM   19  C   UNK A   0      -6.121  15.881  69.445  1.00  0.00    -0.143 C  
ATOM     20  N   ALA A   1      -5.298  16.964  69.163  1.00  0.00    -0.131 N  
ATOM     21  H   ALA A   1      -4.742  16.921  68.309  1.00  0.00     0.000 HD 
HETATM   22  O   UNK A   0      -6.523  15.662  70.577  1.00  0.00     0.073 OA 
BRANCH  20  23
ATOM     23  CA  ALA A   1      -5.165  18.167  69.999  1.00  0.00    -0.220 C  
ATOM     24  CB  ALA A   1      -6.218  19.219  69.655  1.00  0.00    -0.304 C  
BRANCH  23  25
ATOM     25  C   ALA A   1      -5.128  17.903  71.513  1.00  0.00     0.011 C  
ATOM     26  O   ALA A   1      -5.527  19.073  72.223  1.00  0.00    -0.548 OA 
ATOM     27  H   ALA A   1      -5.504  18.910  73.158  1.00  0.00     0.000 HD 
ENDBRANCH  23  25
ENDBRANCH  20  23
ENDBRANCH  15  19
TORSDOF 3
ENDMDL
MODEL      113
REMARK 921   NORMALIZED FREE ENERGY PREDICTED BY IDOCK:   -4.15 KCAL/MOL
REMARK 922        TOTAL FREE ENERGY PREDICTED BY IDOCK:   -5.32 KCAL/MOL
REMARK 923 INTER-LIGAND FREE ENERGY PREDICTED BY IDOCK:   -5.40 KCAL/MOL
REMARK 924 INTRA-LIGAND FREE ENERGY PREDICTED BY IDOCK:    0.08 KCAL/MOL
REMARK 927      BINDING AFFINITY PREDICTED BY RF-SCORE:    0.00 PKD
ROOT
HETATM    1  C   UNK A   0     -11.173  13.971  69.642  1.00  0.00    -0.164 C  
HETATM    2  C   UNK A   0     -10.599  15.346  70.068  1.00  0.00    -0.319 C  
HETATM    3  C   UNK A   0      -9.850  15.893  68.901  1.00  0.00    -0.226 A  
HETATM    4  C   UNK A   0      -8.636  16.506  68.734  1.00  0.00    -0.262 A  
HETATM    5  N   UNK A   0      -8.527  16.850  67.405  1.00  0.00    -0.188 NA 
HETATM    6  C   UNK A   0      -9.639  16.425  66.705  1.00  0.00    -0.248 A  
HETATM    7  H   UNK A   0      -7.737  17.347  66.996  1.00  0.00     0.000 HD 
HETATM    8  C   UNK A   0     -10.038  16.565  65.374  1.00  0.00    -0.098 A  
HETATM    9  C   UNK A   0     -11.220  15.897  65.002  1.00  0.00    -0.296 A  
HETATM   10  C   UNK A   0     -11.901  15.034  65.884  1.00  0.00    -0.021 A  
HETATM   11  C   UNK A   0     -11.451  14.876  67.201  1.00  0.00    -0.344 A  
HETATM   12  C   UNK A   0     -10.387  15.698  67.608  1.00  0.00    -0.275 A  
HETATM   13  C   UNK A   0     -11.742  13.822  68.197  1.00  0.00    -0.392 C  
HETATM   14  C   UNK A   0     -12.106  12.578  67.840  1.00  0.00    -0.120 C  
HETATM   15  C   UNK A   0     -11.737  11.441  68.803  1.00  0.00    -0.404 C  
HETATM   16  C   UNK A   0     -13.378  13.837  70.738  1.00  0.00     0.072 C  
HETATM   17  C   UNK A   0     -12.032  11.824  70.294  1.00  0.00    -0.343 C  
HETATM   18  N   UNK A   0     -12.031  13.274  70.629  1.00  0.00    -0.532 NA 
ENDROOT
BRANCH  15  19
HETATM   19  C   UNK A   0     -10.212  11.101  68.596  1.00  0.00    -0.205 C  
ATOM     20  N   ALA A   1      -9.965   9.811  68.144  1.00  0.00    -0.149 N  
ATOM     21  H   ALA A   1     -10.701   9.117  68.277  1.00  0.00     0.000 HD 
HETATM   22  O   UNK A   0      -9.302  11.882  68.826  1.00  0.00    -0.111 OA 
BRANCH  20  23
ATOM     23  CA  ALA A   1      -8.724   9.365  67.489  1.00  0.00    -0.122 C  
ATOM     24  CB  ALA A   1      -7.658   8.963  68.506  1.00  0.00    -0.097 C  
BRANCH  23  25
ATOM     25  C   ALA A   1      -8.910   8.270  66.427  1.00  0.00    -0.152 C  
ATOM     26  O   ALA A   1      -9.181   8.861  65.158  1.00  0.00    -0.401 OA 
ATOM     27  H   ALA A   1      -9.296   8.185  64.502  1.00  0.00     0.000 HD 
ENDBRANCH  23  25
ENDBRANCH  20  23
ENDBRANCH  15  19
TORSDOF 3
ENDMDL
MODEL      114
REMARK 921   NORMALIZED FREE ENERGY PREDICTED BY IDOCK:   -4.14 KCAL/MOL
REMARK 922        TOTAL FREE ENERGY PREDICTED BY IDOCK:   -5.31 KCAL/MOL
REMARK 923 INTER-LIGAND FREE ENERGY PREDICTED BY IDOCK:   -4.59 KCAL/MOL
REMARK 924 INTRA-LIGAND FREE ENERGY PREDICTED BY IDOCK:   -0.72 KCAL/MOL
REMARK 927      BINDING AFFINITY PREDICTED BY RF-SCORE:    0.00 PKD
ROOT
HETATM    1  C   UNK A   0     -10.522   6.318  70.792  1.00  0.00    -0.222 C  
HETATM    2  C   UNK A   0     -11.606   6.661  69.740  1.00  0.00    -0.354 C  
HETATM    3  C   UNK A   0     -11.052   6.304  68.402  1.00  0.00    -0.371 A  
HETATM    4  C   UNK A   0     -11.023   6.915  67.175  1.00  0.00    -0.357 A  
HETATM    5  N   UNK A   0     -10.416   6.045  66.297  1.00  0.00    -0.466 NA 
HETATM    6  C   UNK A   0     -10.015   4.899  66.955  1.00  0.00    -0.217 A  
HETATM    7  H   UNK A   0     -10.282   6.222  65.302  1.00  0.00     0.000 HD 
HETATM    8  C   UNK A   0      -9.413   3.714  66.523  1.00  0.00    -0.188 A  
HETATM    9  C   UNK A   0      -9.060   2.792  67.526  1.00  0.00    -0.213 A  
HETATM   10  C   UNK A   0      -9.188   3.091  68.897  1.00  0.00    -0.227 A  
HETATM   11  C   UNK A   0      -9.751   4.308  69.302  1.00  0.00    -0.240 A  
HETATM   12  C   UNK A   0     -10.274   5.130  68.289  1.00  0.00    -0.179 A  
HETATM   13  C   UNK A   0      -9.693   5.010  70.602  1.00  0.00    -0.266 C  
HETATM   14  C   UNK A   0      -8.683   4.830  71.471  1.00  0.00    -0.135 C  
HETATM   15  C   UNK A   0      -8.343   6.006  72.397  1.00  0.00    -0.116 C  
HETATM   16  C   UNK A   0     -11.776   5.478  72.743  1.00  0.00    -0.175 C  
HETATM   17  C   UNK A   0      -9.633   6.665  72.997  1.00  0.00    -0.146 C  
HETATM   18  N   UNK A   0     -10.890   6.517  72.214  1.00  0.00    -0.223 NA 
ENDROOT
BRANCH  15  19
HETATM   19  C   UNK A   0      -7.504   7.053  71.570  1.00  0.00    -0.084 C  
ATOM     20  N   ALA A   1      -7.012   6.574  70.362  1.00  0.00    -0.062 N  
ATOM     21  H   ALA A   1      -6.951   5.562  70.248  1.00  0.00     0.000 HD 
HETATM   22  O   UNK A   0      -7.274   8.192  71.947  1.00  0.00    -0.073 OA 
BRANCH  20  23
ATOM     23  CA  ALA A   1      -6.571   7.410  69.235  1.00  0.00    -0.037 C  
ATOM     24  CB  ALA A   1      -5.495   6.718  68.400  1.00  0.00    -0.016 C  
BRANCH  23  25
ATOM     25  C   ALA A   1      -7.703   7.940  68.340  1.00  0.00    -0.114 C  
ATOM     26  O   ALA A   1      -7.707   7.245  67.096  1.00  0.00    -0.107 OA 
ATOM     27  H   ALA A   1      -8.406   7.573  66.542  1.00  0.00     0.000 HD 
ENDBRANCH  23  25
ENDBRANCH  20  23
ENDBRANCH  15  19
TORSDOF 3
ENDMDL
MODEL      115
REMARK 921   NORMALIZED FREE ENERGY PREDICTED BY IDOCK:   -4.11 KCAL/MOL
REMARK 922        TOTAL FREE ENERGY PREDICTED BY IDOCK:   -5.28 KCAL/MOL
REMARK 923 INTER-LIGAND FREE ENERGY PREDICTED BY IDOCK:   -4.64 KCAL/MOL
REMARK 924 INTRA-LIGAND FREE ENERGY PREDICTED BY IDOCK:   -0.65 KCAL/MOL
REMARK 927      BINDING AFFINITY PREDICTED BY RF-SCORE:    0.00 PKD
ROOT
HETATM    1  C   UNK A   0     -10.326   8.012  71.125  1.00  0.00    -0.197 C  
HETATM    2  C   UNK A   0      -9.676   9.409  71.281  1.00  0.00    -0.210 C  
HETATM    3  C   UNK A   0      -8.724   9.583  70.147  1.00  0.00    -0.258 A  
HETATM    4  C   UNK A   0      -7.441  10.050  70.026  1.00  0.00    -0.173 A  
HETATM    5  N   UNK A   0      -7.118  10.027  68.687  1.00  0.00    -0.076 NA 
HETATM    6  C   UNK A   0      -8.164   9.508  67.949  1.00  0.00    -0.114 A  
HETATM    7  H   UNK A   0      -6.233  10.348  68.297  1.00  0.00     0.000 HD 
HETATM    8  C   UNK A   0      -8.363   9.322  66.580  1.00  0.00    -0.126 A  
HETATM    9  C   UNK A   0      -9.546   8.659  66.204  1.00  0.00    -0.305 A  
HETATM   10  C   UNK A   0     -10.426   8.102  67.155  1.00  0.00    -0.396 A  
HETATM   11  C   UNK A   0     -10.177   8.264  68.523  1.00  0.00    -0.234 A  
HETATM   12  C   UNK A   0      -9.098   9.093  68.876  1.00  0.00    -0.139 A  
HETATM   13  C   UNK A   0     -10.707   7.528  69.692  1.00  0.00    -0.236 C  
HETATM   14  C   UNK A   0     -11.147   6.261  69.602  1.00  0.00    -0.479 C  
HETATM   15  C   UNK A   0     -11.031   5.393  70.863  1.00  0.00    -0.119 C  
HETATM   16  C   UNK A   0     -12.661   8.313  71.861  1.00  0.00    -0.344 C  
HETATM   17  C   UNK A   0     -11.482   6.170  72.147  1.00  0.00    -0.311 C  
HETATM   18  N   UNK A   0     -11.377   7.654  72.108  1.00  0.00    -0.277 NA 
ENDROOT
BRANCH  15  19
HETATM   19  C   UNK A   0      -9.535   4.912  70.989  1.00  0.00    -0.164 C  
ATOM     20  N   ALA A   1      -9.002   5.012  72.268  1.00  0.00    -0.130 N  
ATOM     21  H   ALA A   1      -9.465   5.645  72.921  1.00  0.00     0.000 HD 
HETATM   22  O   UNK A   0      -8.871   4.499  70.051  1.00  0.00    -0.079 OA 
BRANCH  20  23
ATOM     23  CA  ALA A   1      -7.822   4.280  72.755  1.00  0.00    -0.082 C  
ATOM     24  CB  ALA A   1      -7.203   4.950  73.981  1.00  0.00    -0.082 C  
BRANCH  23  25
ATOM     25  C   ALA A   1      -8.049   2.780  73.005  1.00  0.00    -0.066 C  
ATOM     26  O   ALA A   1      -7.621   2.027  71.873  1.00  0.00    -0.039 OA 
ATOM     27  H   ALA A   1      -7.761   1.100  72.027  1.00  0.00     0.000 HD 
ENDBRANCH  23  25
ENDBRANCH  20  23
ENDBRANCH  15  19
TORSDOF 3
ENDMDL
MODEL      116
REMARK 921   NORMALIZED FREE ENERGY PREDICTED BY IDOCK:   -4.05 KCAL/MOL
REMARK 922        TOTAL FREE ENERGY PREDICTED BY IDOCK:   -5.21 KCAL/MOL
REMARK 923 INTER-LIGAND FREE ENERGY PREDICTED BY IDOCK:   -4.65 KCAL/MOL
REMARK 924 INTRA-LIGAND FREE ENERGY PREDICTED BY IDOCK:   -0.56 KCAL/MOL
REMARK 927      BINDING AFFINITY PREDICTED BY RF-SCORE:    0.00 PKD
ROOT
HETATM    1  C   UNK A   0     -10.232   6.625  71.164  1.00  0.00    -0.194 C  
HETATM    2  C   UNK A   0     -10.467   5.621  70.008  1.00  0.00    -0.367 C  
HETATM    3  C   UNK A   0      -9.924   4.304  70.449  1.00  0.00    -0.213 A  
HETATM    4  C   UNK A   0      -9.152   3.333  69.865  1.00  0.00    -0.128 A  
HETATM    5  N   UNK A   0      -9.040   2.299  70.768  1.00  0.00    -0.090 NA 
HETATM    6  C   UNK A   0      -9.694   2.612  71.943  1.00  0.00    -0.151 A  
HETATM    7  H   UNK A   0      -8.544   1.426  70.593  1.00  0.00     0.000 HD 
HETATM    8  C   UNK A   0      -9.919   1.904  73.126  1.00  0.00    -0.158 A  
HETATM    9  C   UNK A   0     -10.560   2.608  74.163  1.00  0.00    -0.236 A  
HETATM   10  C   UNK A   0     -10.850   3.983  74.066  1.00  0.00    -0.284 A  
HETATM   11  C   UNK A   0     -10.570   4.680  72.884  1.00  0.00    -0.277 A  
HETATM   12  C   UNK A   0     -10.110   3.919  71.796  1.00  0.00    -0.186 A  
HETATM   13  C   UNK A   0     -10.447   6.132  72.628  1.00  0.00    -0.233 C  
HETATM   14  C   UNK A   0     -10.105   7.004  73.592  1.00  0.00    -0.376 C  
HETATM   15  C   UNK A   0      -9.368   8.276  73.152  1.00  0.00    -0.281 C  
HETATM   16  C   UNK A   0     -12.221   8.083  71.151  1.00  0.00    -0.245 C  
HETATM   17  C   UNK A   0     -10.017   8.910  71.874  1.00  0.00    -0.314 C  
HETATM   18  N   UNK A   0     -10.770   7.993  70.976  1.00  0.00    -0.218 NA 
ENDROOT
BRANCH  15  19
HETATM   19  C   UNK A   0      -7.858   7.902  72.894  1.00  0.00    -0.128 C  
ATOM     20  N   ALA A   1      -7.364   8.316  71.664  1.00  0.00    -0.083 N  
ATOM     21  H   ALA A   1      -8.042   8.529  70.932  1.00  0.00     0.000 HD 
HETATM   22  O   UNK A   0      -7.165   7.282  73.685  1.00  0.00    -0.081 OA 
BRANCH  20  23
ATOM     23  CA  ALA A   1      -5.938   8.472  71.332  1.00  0.00    -0.043 C  
ATOM     24  CB  ALA A   1      -5.679   8.293  69.837  1.00  0.00    -0.025 C  
BRANCH  23  25
ATOM     25  C   ALA A   1      -5.290   9.766  71.851  1.00  0.00    -0.052 C  
ATOM     26  O   ALA A   1      -5.408   9.836  73.270  1.00  0.00    -0.286 OA 
ATOM     27  H   ALA A   1      -5.008  10.635  73.590  1.00  0.00     0.000 HD 
ENDBRANCH  23  25
ENDBRANCH  20  23
ENDBRANCH  15  19
TORSDOF 3
ENDMDL
MODEL      117
REMARK 921   NORMALIZED FREE ENERGY PREDICTED BY IDOCK:   -4.04 KCAL/MOL
REMARK 922        TOTAL FREE ENERGY PREDICTED BY IDOCK:   -5.20 KCAL/MOL
REMARK 923 INTER-LIGAND FREE ENERGY PREDICTED BY IDOCK:   -4.49 KCAL/MOL
REMARK 924 INTRA-LIGAND FREE ENERGY PREDICTED BY IDOCK:   -0.71 KCAL/MOL
REMARK 927      BINDING AFFINITY PREDICTED BY RF-SCORE:    0.00 PKD
ROOT
HETATM    1  C   UNK A   0      -9.396   8.348  69.141  1.00  0.00    -0.151 C  
HETATM    2  C   UNK A   0     -10.809   8.818  69.566  1.00  0.00    -0.151 C  
HETATM    3  C   UNK A   0     -11.196   8.026  70.768  1.00  0.00    -0.275 A  
HETATM    4  C   UNK A   0     -12.332   7.372  71.169  1.00  0.00    -0.314 A  
HETATM    5  N   UNK A   0     -12.096   6.873  72.431  1.00  0.00    -0.500 NA 
HETATM    6  C   UNK A   0     -10.805   7.161  72.829  1.00  0.00    -0.300 A  
HETATM    7  H   UNK A   0     -12.778   6.363  72.991  1.00  0.00     0.000 HD 
HETATM    8  C   UNK A   0     -10.100   6.929  74.012  1.00  0.00    -0.383 A  
HETATM    9  C   UNK A   0      -8.739   7.290  74.009  1.00  0.00    -0.246 A  
HETATM   10  C   UNK A   0      -8.088   7.744  72.844  1.00  0.00    -0.169 A  
HETATM   11  C   UNK A   0      -8.811   7.922  71.657  1.00  0.00    -0.163 A  
HETATM   12  C   UNK A   0     -10.203   7.742  71.733  1.00  0.00    -0.235 A  
HETATM   13  C   UNK A   0      -8.350   8.043  70.258  1.00  0.00    -0.125 C  
HETATM   14  C   UNK A   0      -7.186   7.517  69.838  1.00  0.00    -0.080 C  
HETATM   15  C   UNK A   0      -7.103   7.096  68.364  1.00  0.00    -0.085 C  
HETATM   16  C   UNK A   0      -8.258  10.389  68.354  1.00  0.00    -0.114 C  
HETATM   17  C   UNK A   0      -7.732   8.174  67.416  1.00  0.00    -0.102 C  
HETATM   18  N   UNK A   0      -8.770   9.064  68.003  1.00  0.00    -0.129 NA 
ENDROOT
BRANCH  15  19
HETATM   19  C   UNK A   0      -7.837   5.709  68.210  1.00  0.00    -0.096 C  
ATOM     20  N   ALA A   1      -7.400   4.725  69.088  1.00  0.00    -0.053 N  
ATOM     21  H   ALA A   1      -6.484   4.851  69.517  1.00  0.00     0.000 HD 
HETATM   22  O   UNK A   0      -8.707   5.487  67.383  1.00  0.00    -0.109 OA 
BRANCH  20  23
ATOM     23  CA  ALA A   1      -8.155   3.513  69.445  1.00  0.00    -0.053 C  
ATOM     24  CB  ALA A   1      -9.571   3.843  69.912  1.00  0.00    -0.270 C  
BRANCH  23  25
ATOM     25  C   ALA A   1      -8.174   2.419  68.365  1.00  0.00    -0.057 C  
ATOM     26  O   ALA A   1      -9.434   2.414  67.699  1.00  0.00    -0.330 OA 
ATOM     27  H   ALA A   1      -9.446   1.738  67.032  1.00  0.00     0.000 HD 
ENDBRANCH  23  25
ENDBRANCH  20  23
ENDBRANCH  15  19
TORSDOF 3
ENDMDL
MODEL      118
REMARK 921   NORMALIZED FREE ENERGY PREDICTED BY IDOCK:   -4.02 KCAL/MOL
REMARK 922        TOTAL FREE ENERGY PREDICTED BY IDOCK:   -5.18 KCAL/MOL
REMARK 923 INTER-LIGAND FREE ENERGY PREDICTED BY IDOCK:   -4.37 KCAL/MOL
REMARK 924 INTRA-LIGAND FREE ENERGY PREDICTED BY IDOCK:   -0.81 KCAL/MOL
REMARK 927      BINDING AFFINITY PREDICTED BY RF-SCORE:    0.00 PKD
ROOT
HETATM    1  C   UNK A   0      -9.904   6.544  67.950  1.00  0.00    -0.123 C  
HETATM    2  C   UNK A   0     -10.657   7.539  67.032  1.00  0.00    -0.409 C  
HETATM    3  C   UNK A   0     -10.316   8.914  67.496  1.00  0.00    -0.328 A  
HETATM    4  C   UNK A   0     -11.031  10.060  67.726  1.00  0.00    -0.249 A  
HETATM    5  N   UNK A   0     -10.133  11.041  68.085  1.00  0.00    -0.174 NA 
HETATM    6  C   UNK A   0      -8.852  10.526  68.133  1.00  0.00    -0.134 A  
HETATM    7  H   UNK A   0     -10.379  12.009  68.288  1.00  0.00     0.000 HD 
HETATM    8  C   UNK A   0      -7.604  11.100  68.388  1.00  0.00    -0.110 A  
HETATM    9  C   UNK A   0      -6.510  10.216  68.444  1.00  0.00    -0.053 A  
HETATM   10  C   UNK A   0      -6.673   8.818  68.372  1.00  0.00    -0.064 A  
HETATM   11  C   UNK A   0      -7.944   8.267  68.163  1.00  0.00    -0.123 A  
HETATM   12  C   UNK A   0      -8.991   9.172  67.916  1.00  0.00    -0.131 A  
HETATM   13  C   UNK A   0      -8.447   6.894  68.383  1.00  0.00    -0.123 C  
HETATM   14  C   UNK A   0      -7.890   6.062  69.281  1.00  0.00    -0.103 C  
HETATM   15  C   UNK A   0      -8.807   5.007  69.914  1.00  0.00    -0.130 C  
HETATM   16  C   UNK A   0      -9.231   4.694  66.464  1.00  0.00    -0.132 C  
HETATM   17  C   UNK A   0      -9.729   4.322  68.847  1.00  0.00    -0.125 C  
HETATM   18  N   UNK A   0     -10.033   5.105  67.619  1.00  0.00    -0.161 NA 
ENDROOT
BRANCH  15  19
HETATM   19  C   UNK A   0      -9.664   5.712  71.034  1.00  0.00    -0.173 C  
ATOM     20  N   ALA A   1      -8.939   6.546  71.876  1.00  0.00    -0.138 N  
ATOM     21  H   ALA A   1      -7.929   6.406  71.920  1.00  0.00     0.000 HD 
HETATM   22  O   UNK A   0     -10.864   5.542  71.182  1.00  0.00    -0.239 OA 
BRANCH  20  23
ATOM     23  CA  ALA A   1      -9.512   7.614  72.711  1.00  0.00    -0.188 C  
ATOM     24  CB  ALA A   1      -8.560   8.035  73.829  1.00  0.00    -0.328 C  
BRANCH  23  25
ATOM     25  C   ALA A   1     -10.023   8.838  71.935  1.00  0.00    -0.331 C  
ATOM     26  O   ALA A   1      -8.923   9.570  71.400  1.00  0.00    -0.302 OA 
ATOM     27  H   ALA A   1      -9.239  10.327  70.920  1.00  0.00     0.000 HD 
ENDBRANCH  23  25
ENDBRANCH  20  23
ENDBRANCH  15  19
TORSDOF 3
ENDMDL
MODEL      119
REMARK 921   NORMALIZED FREE ENERGY PREDICTED BY IDOCK:   -3.97 KCAL/MOL
REMARK 922        TOTAL FREE ENERGY PREDICTED BY IDOCK:   -5.11 KCAL/MOL
REMARK 923 INTER-LIGAND FREE ENERGY PREDICTED BY IDOCK:   -5.58 KCAL/MOL
REMARK 924 INTRA-LIGAND FREE ENERGY PREDICTED BY IDOCK:    0.47 KCAL/MOL
REMARK 927      BINDING AFFINITY PREDICTED BY RF-SCORE:    0.00 PKD
ROOT
HETATM    1  C   UNK A   0     -10.231  14.916  66.464  1.00  0.00    -0.275 C  
HETATM    2  C   UNK A   0     -11.146  13.890  65.751  1.00  0.00    -0.294 C  
HETATM    3  C   UNK A   0     -11.389  12.773  66.708  1.00  0.00    -0.362 A  
HETATM    4  C   UNK A   0     -11.388  11.406  66.617  1.00  0.00    -0.157 A  
HETATM    5  N   UNK A   0     -11.758  10.911  67.848  1.00  0.00    -0.682 NA 
HETATM    6  C   UNK A   0     -11.954  11.944  68.743  1.00  0.00    -0.249 A  
HETATM    7  H   UNK A   0     -11.871   9.921  68.067  1.00  0.00     0.000 HD 
HETATM    8  C   UNK A   0     -12.376  11.983  70.074  1.00  0.00    -0.179 A  
HETATM    9  C   UNK A   0     -12.361  13.245  70.697  1.00  0.00    -0.416 A  
HETATM   10  C   UNK A   0     -11.833  14.387  70.061  1.00  0.00    -0.377 A  
HETATM   11  C   UNK A   0     -11.372  14.308  68.741  1.00  0.00    -0.303 A  
HETATM   12  C   UNK A   0     -11.575  13.088  68.073  1.00  0.00    -0.383 A  
HETATM   13  C   UNK A   0     -10.486  15.211  67.975  1.00  0.00    -0.247 C  
HETATM   14  C   UNK A   0      -9.585  16.009  68.572  1.00  0.00    -0.215 C  
HETATM   15  C   UNK A   0      -8.326  16.363  67.769  1.00  0.00    -0.172 C  
HETATM   16  C   UNK A   0     -11.028  17.120  65.694  1.00  0.00     0.080 C  
HETATM   17  C   UNK A   0      -8.670  16.733  66.285  1.00  0.00    -0.307 C  
HETATM   18  N   UNK A   0      -9.922  16.161  65.721  1.00  0.00    -0.393 NA 
ENDROOT
BRANCH  15  19
HETATM   19  C   UNK A   0      -7.344  15.132  67.832  1.00  0.00    -0.139 C  
ATOM     20  N   ALA A   1      -7.972  13.893  67.855  1.00  0.00    -0.144 N  
ATOM     21  H   ALA A   1      -8.952  13.868  68.138  1.00  0.00     0.000 HD 
HETATM   22  O   UNK A   0      -6.128  15.232  67.878  1.00  0.00    -0.132 OA 
BRANCH  20  23
ATOM     23  CA  ALA A   1      -7.336  12.613  67.505  1.00  0.00    -0.151 C  
ATOM     24  CB  ALA A   1      -7.241  11.677  68.709  1.00  0.00    -0.116 C  
BRANCH  23  25
ATOM     25  C   ALA A   1      -7.954  11.891  66.296  1.00  0.00     0.235 C  
ATOM     26  O   ALA A   1      -7.107  10.823  65.880  1.00  0.00    -0.199 OA 
ATOM     27  H   ALA A   1      -7.488  10.377  65.134  1.00  0.00     0.000 HD 
ENDBRANCH  23  25
ENDBRANCH  20  23
ENDBRANCH  15  19
TORSDOF 3
ENDMDL
MODEL      120
REMARK 921   NORMALIZED FREE ENERGY PREDICTED BY IDOCK:   -3.86 KCAL/MOL
REMARK 922        TOTAL FREE ENERGY PREDICTED BY IDOCK:   -4.98 KCAL/MOL
REMARK 923 INTER-LIGAND FREE ENERGY PREDICTED BY IDOCK:   -4.80 KCAL/MOL
REMARK 924 INTRA-LIGAND FREE ENERGY PREDICTED BY IDOCK:   -0.18 KCAL/MOL
REMARK 927      BINDING AFFINITY PREDICTED BY RF-SCORE:    0.00 PKD
ROOT
HETATM    1  C   UNK A   0      -9.361  12.652  68.446  1.00  0.00    -0.148 C  
HETATM    2  C   UNK A   0      -8.650  13.947  68.912  1.00  0.00     0.098 C  
HETATM    3  C   UNK A   0      -9.709  14.960  69.185  1.00  0.00    -0.184 A  
HETATM    4  C   UNK A   0      -9.872  16.289  68.892  1.00  0.00    -0.246 A  
HETATM    5  N   UNK A   0     -11.048  16.699  69.481  1.00  0.00    -0.335 NA 
HETATM    6  C   UNK A   0     -11.666  15.637  70.113  1.00  0.00    -0.360 A  
HETATM    7  H   UNK A   0     -11.411  17.652  69.454  1.00  0.00     0.000 HD 
HETATM    8  C   UNK A   0     -12.826  15.532  70.883  1.00  0.00    -0.535 A  
HETATM    9  C   UNK A   0     -13.193  14.234  71.285  1.00  0.00    -0.412 A  
HETATM   10  C   UNK A   0     -12.505  13.089  70.837  1.00  0.00    -0.396 A  
HETATM   11  C   UNK A   0     -11.371  13.222  70.025  1.00  0.00     0.010 A  
HETATM   12  C   UNK A   0     -10.908  14.529  69.796  1.00  0.00    -0.132 A  
HETATM   13  C   UNK A   0     -10.687  12.239  69.158  1.00  0.00    -0.089 C  
HETATM   14  C   UNK A   0     -11.327  11.182  68.629  1.00  0.00    -0.342 C  
HETATM   15  C   UNK A   0     -10.797  10.645  67.292  1.00  0.00    -0.345 C  
HETATM   16  C   UNK A   0      -8.033  10.814  69.416  1.00  0.00    -0.067 C  
HETATM   17  C   UNK A   0      -9.232  10.555  67.281  1.00  0.00    -0.143 C  
HETATM   18  N   UNK A   0      -8.499  11.473  68.194  1.00  0.00    -0.147 NA 
ENDROOT
BRANCH  15  19
HETATM   19  C   UNK A   0     -11.318  11.591  66.144  1.00  0.00    -0.131 C  
ATOM     20  N   ALA A   1     -10.398  11.829  65.131  1.00  0.00    -0.267 N  
ATOM     21  H   ALA A   1      -9.414  11.657  65.339  1.00  0.00     0.000 HD 
HETATM   22  O   UNK A   0     -12.427  12.101  66.132  1.00  0.00    -0.384 OA 
BRANCH  20  23
ATOM     23  CA  ALA A   1     -10.730  12.310  63.780  1.00  0.00    -0.449 C  
ATOM     24  CB  ALA A   1     -12.064  11.750  63.289  1.00  0.00    -0.375 C  
BRANCH  23  25
ATOM     25  C   ALA A   1     -10.678  13.837  63.605  1.00  0.00     1.084 C  
ATOM     26  O   ALA A   1     -10.025  14.434  64.723  1.00  0.00    -0.501 OA 
ATOM     27  H   ALA A   1      -9.994  15.377  64.615  1.00  0.00     0.000 HD 
ENDBRANCH  23  25
ENDBRANCH  20  23
ENDBRANCH  15  19
TORSDOF 3
ENDMDL
MODEL      121
REMARK 921   NORMALIZED FREE ENERGY PREDICTED BY IDOCK:   -3.85 KCAL/MOL
REMARK 922        TOTAL FREE ENERGY PREDICTED BY IDOCK:   -4.97 KCAL/MOL
REMARK 923 INTER-LIGAND FREE ENERGY PREDICTED BY IDOCK:   -4.31 KCAL/MOL
REMARK 924 INTRA-LIGAND FREE ENERGY PREDICTED BY IDOCK:   -0.66 KCAL/MOL
REMARK 927      BINDING AFFINITY PREDICTED BY RF-SCORE:    0.00 PKD
ROOT
HETATM    1  C   UNK A   0      -9.342   7.772  68.737  1.00  0.00    -0.146 C  
HETATM    2  C   UNK A   0      -7.999   8.043  68.015  1.00  0.00    -0.128 C  
HETATM    3  C   UNK A   0      -7.488   6.731  67.524  1.00  0.00    -0.097 A  
HETATM    4  C   UNK A   0      -6.267   6.108  67.528  1.00  0.00    -0.032 A  
HETATM    5  N   UNK A   0      -6.412   4.915  66.854  1.00  0.00    -0.044 NA 
HETATM    6  C   UNK A   0      -7.723   4.744  66.455  1.00  0.00    -0.091 A  
HETATM    7  H   UNK A   0      -5.658   4.253  66.676  1.00  0.00     0.000 HD 
HETATM    8  C   UNK A   0      -8.371   3.753  65.714  1.00  0.00    -0.105 A  
HETATM    9  C   UNK A   0      -9.768   3.877  65.591  1.00  0.00    -0.170 A  
HETATM   10  C   UNK A   0     -10.494   4.871  66.278  1.00  0.00    -0.349 A  
HETATM   11  C   UNK A   0      -9.821   5.824  67.054  1.00  0.00    -0.171 A  
HETATM   12  C   UNK A   0      -8.417   5.800  67.007  1.00  0.00    -0.107 A  
HETATM   13  C   UNK A   0     -10.319   6.725  68.116  1.00  0.00    -0.219 C  
HETATM   14  C   UNK A   0     -11.407   6.436  68.851  1.00  0.00    -0.292 C  
HETATM   15  C   UNK A   0     -11.456   7.004  70.276  1.00  0.00    -0.333 C  
HETATM   16  C   UNK A   0     -10.760   9.714  68.190  1.00  0.00    -0.217 C  
HETATM   17  C   UNK A   0     -10.995   8.502  70.320  1.00  0.00    -0.235 C  
HETATM   18  N   UNK A   0     -10.078   8.956  69.241  1.00  0.00    -0.197 NA 
ENDROOT
BRANCH  15  19
HETATM   19  C   UNK A   0     -10.543   6.103  71.193  1.00  0.00    -0.246 C  
ATOM     20  N   ALA A   1      -9.871   6.794  72.194  1.00  0.00    -0.150 N  
ATOM     21  H   ALA A   1      -9.763   7.802  72.078  1.00  0.00     0.000 HD 
HETATM   22  O   UNK A   0     -10.405   4.899  71.045  1.00  0.00    -0.208 OA 
BRANCH  20  23
ATOM     23  CA  ALA A   1      -9.304   6.187  73.408  1.00  0.00    -0.134 C  
ATOM     24  CB  ALA A   1      -8.505   7.198  74.230  1.00  0.00    -0.214 C  
BRANCH  23  25
ATOM     25  C   ALA A   1     -10.315   5.439  74.292  1.00  0.00    -0.276 C  
ATOM     26  O   ALA A   1     -10.289   4.046  73.991  1.00  0.00    -0.152 OA 
ATOM     27  H   ALA A   1     -10.914   3.583  74.536  1.00  0.00     0.000 HD 
ENDBRANCH  23  25
ENDBRANCH  20  23
ENDBRANCH  15  19
TORSDOF 3
ENDMDL
MODEL      122
REMARK 921   NORMALIZED FREE ENERGY PREDICTED BY IDOCK:   -3.83 KCAL/MOL
REMARK 922        TOTAL FREE ENERGY PREDICTED BY IDOCK:   -4.95 KCAL/MOL
REMARK 923 INTER-LIGAND FREE ENERGY PREDICTED BY IDOCK:   -4.53 KCAL/MOL
REMARK 924 INTRA-LIGAND FREE ENERGY PREDICTED BY IDOCK:   -0.42 KCAL/MOL
REMARK 927      BINDING AFFINITY PREDICTED BY RF-SCORE:    0.00 PKD
ROOT
HETATM    1  C   UNK A   0     -10.039  16.379  67.494  1.00  0.00    -0.261 C  
HETATM    2  C   UNK A   0     -10.967  17.570  67.842  1.00  0.00    -0.133 C  
HETATM    3  C   UNK A   0     -10.092  18.735  68.158  1.00  0.00    -0.427 A  
HETATM    4  C   UNK A   0     -10.077  19.693  69.138  1.00  0.00    -0.304 A  
HETATM    5  N   UNK A   0      -9.042  20.557  68.852  1.00  0.00     0.637 NA 
HETATM    6  C   UNK A   0      -8.364  20.139  67.724  1.00  0.00    -0.256 A  
HETATM    7  H   UNK A   0      -8.810  21.387  69.397  1.00  0.00     0.000 HD 
HETATM    8  C   UNK A   0      -7.296  20.676  67.002  1.00  0.00    -0.370 A  
HETATM    9  C   UNK A   0      -6.806  19.896  65.937  1.00  0.00    -0.289 A  
HETATM   10  C   UNK A   0      -7.279  18.592  65.686  1.00  0.00    -0.156 A  
HETATM   11  C   UNK A   0      -8.319  18.060  66.458  1.00  0.00    -0.293 A  
HETATM   12  C   UNK A   0      -8.924  18.925  67.386  1.00  0.00    -0.297 A  
HETATM   13  C   UNK A   0      -8.761  16.661  66.645  1.00  0.00    -0.280 C  
HETATM   14  C   UNK A   0      -7.928  15.618  66.483  1.00  0.00    -0.097 C  
HETATM   15  C   UNK A   0      -8.224  14.356  67.305  1.00  0.00    -0.223 C  
HETATM   16  C   UNK A   0     -11.211  15.168  65.693  1.00  0.00    -0.296 C  
HETATM   17  C   UNK A   0      -9.751  14.002  67.296  1.00  0.00    -0.237 C  
HETATM   18  N   UNK A   0     -10.701  15.124  67.064  1.00  0.00    -0.302 NA 
ENDROOT
BRANCH  15  19
HETATM   19  C   UNK A   0      -7.707  14.597  68.774  1.00  0.00    -0.137 C  
ATOM     20  N   ALA A   1      -6.326  14.711  68.888  1.00  0.00    -0.085 N  
ATOM     21  H   ALA A   1      -5.760  14.335  68.128  1.00  0.00     0.000 HD 
HETATM   22  O   UNK A   0      -8.436  14.663  69.751  1.00  0.00     0.163 OA 
BRANCH  20  23
ATOM     23  CA  ALA A   1      -5.618  15.329  70.020  1.00  0.00    -0.126 C  
ATOM     24  CB  ALA A   1      -5.835  16.841  70.069  1.00  0.00    -0.210 C  
BRANCH  23  25
ATOM     25  C   ALA A   1      -5.901  14.690  71.389  1.00  0.00     0.009 C  
ATOM     26  O   ALA A   1      -6.068  13.282  71.245  1.00  0.00    -0.557 OA 
ATOM     27  H   ALA A   1      -6.243  12.886  72.090  1.00  0.00     0.000 HD 
ENDBRANCH  23  25
ENDBRANCH  20  23
ENDBRANCH  15  19
TORSDOF 3
ENDMDL
MODEL      123
REMARK 921   NORMALIZED FREE ENERGY PREDICTED BY IDOCK:   -3.82 KCAL/MOL
REMARK 922        TOTAL FREE ENERGY PREDICTED BY IDOCK:   -4.94 KCAL/MOL
REMARK 923 INTER-LIGAND FREE ENERGY PREDICTED BY IDOCK:   -4.37 KCAL/MOL
REMARK 924 INTRA-LIGAND FREE ENERGY PREDICTED BY IDOCK:   -0.57 KCAL/MOL
REMARK 927      BINDING AFFINITY PREDICTED BY RF-SCORE:    0.00 PKD
ROOT
HETATM    1  C   UNK A   0      -9.557   7.485  69.262  1.00  0.00    -0.158 C  
HETATM    2  C   UNK A   0      -8.903   8.276  70.423  1.00  0.00    -0.141 C  
HETATM    3  C   UNK A   0      -8.445   9.581  69.866  1.00  0.00    -0.198 A  
HETATM    4  C   UNK A   0      -7.303  10.330  69.977  1.00  0.00    -0.149 A  
HETATM    5  N   UNK A   0      -7.504  11.495  69.270  1.00  0.00    -0.321 NA 
HETATM    6  C   UNK A   0      -8.748  11.484  68.669  1.00  0.00    -0.103 A  
HETATM    7  H   UNK A   0      -6.831  12.258  69.201  1.00  0.00     0.000 HD 
HETATM    8  C   UNK A   0      -9.443  12.422  67.902  1.00  0.00    -0.198 A  
HETATM    9  C   UNK A   0     -10.678  12.004  67.372  1.00  0.00    -0.266 A  
HETATM   10  C   UNK A   0     -11.135  10.677  67.498  1.00  0.00    -0.367 A  
HETATM   11  C   UNK A   0     -10.393   9.743  68.233  1.00  0.00    -0.231 A  
HETATM   12  C   UNK A   0      -9.265  10.230  68.916  1.00  0.00    -0.176 A  
HETATM   13  C   UNK A   0     -10.444   8.265  68.243  1.00  0.00    -0.211 C  
HETATM   14  C   UNK A   0     -10.879   7.556  67.187  1.00  0.00    -0.298 C  
HETATM   15  C   UNK A   0     -10.295   6.148  67.006  1.00  0.00    -0.295 C  
HETATM   16  C   UNK A   0     -11.449   6.289  70.297  1.00  0.00    -0.358 C  
HETATM   17  C   UNK A   0     -10.238   5.364  68.363  1.00  0.00    -0.163 C  
HETATM   18  N   UNK A   0     -10.163   6.177  69.607  1.00  0.00    -0.187 NA 
ENDROOT
BRANCH  15  19
HETATM   19  C   UNK A   0      -8.859   6.291  66.374  1.00  0.00    -0.143 C  
ATOM     20  N   ALA A   1      -7.902   5.444  66.918  1.00  0.00    -0.100 N  
ATOM     21  H   ALA A   1      -8.094   5.048  67.839  1.00  0.00     0.000 HD 
HETATM   22  O   UNK A   0      -8.579   7.088  65.491  1.00  0.00    -0.146 OA 
BRANCH  20  23
ATOM     23  CA  ALA A   1      -6.632   5.073  66.272  1.00  0.00    -0.049 C  
ATOM     24  CB  ALA A   1      -5.508   4.892  67.291  1.00  0.00    -0.013 C  
BRANCH  23  25
ATOM     25  C   ALA A   1      -6.716   3.864  65.326  1.00  0.00    -0.048 C  
ATOM     26  O   ALA A   1      -7.163   4.282  64.039  1.00  0.00    -0.049 OA 
ATOM     27  H   ALA A   1      -7.215   3.536  63.455  1.00  0.00     0.000 HD 
ENDBRANCH  23  25
ENDBRANCH  20  23
ENDBRANCH  15  19
TORSDOF 3
ENDMDL
MODEL      124
REMARK 921   NORMALIZED FREE ENERGY PREDICTED BY IDOCK:   -3.82 KCAL/MOL
REMARK 922        TOTAL FREE ENERGY PREDICTED BY IDOCK:   -4.94 KCAL/MOL
REMARK 923 INTER-LIGAND FREE ENERGY PREDICTED BY IDOCK:   -4.14 KCAL/MOL
REMARK 924 INTRA-LIGAND FREE ENERGY PREDICTED BY IDOCK:   -0.80 KCAL/MOL
REMARK 927      BINDING AFFINITY PREDICTED BY RF-SCORE:    0.00 PKD
ROOT
HETATM    1  C   UNK A   0      -9.761  10.665  69.146  1.00  0.00    -0.189 C  
HETATM    2  C   UNK A   0      -9.067  12.000  68.777  1.00  0.00     0.074 C  
HETATM    3  C   UNK A   0      -8.024  11.689  67.757  1.00  0.00    -0.131 A  
HETATM    4  C   UNK A   0      -6.717  12.057  67.569  1.00  0.00    -0.120 A  
HETATM    5  N   UNK A   0      -6.295  11.488  66.389  1.00  0.00    -0.347 NA 
HETATM    6  C   UNK A   0      -7.302  10.720  65.837  1.00  0.00    -0.094 A  
HETATM    7  H   UNK A   0      -5.369  11.615  65.980  1.00  0.00     0.000 HD 
HETATM    8  C   UNK A   0      -7.402   9.992  64.650  1.00  0.00    -0.143 A  
HETATM    9  C   UNK A   0      -8.580   9.241  64.474  1.00  0.00    -0.217 A  
HETATM   10  C   UNK A   0      -9.552   9.127  65.489  1.00  0.00    -0.239 A  
HETATM   11  C   UNK A   0      -9.402   9.832  66.690  1.00  0.00    -0.200 A  
HETATM   12  C   UNK A   0      -8.320  10.725  66.767  1.00  0.00    -0.136 A  
HETATM   13  C   UNK A   0     -10.050   9.641  68.005  1.00  0.00    -0.213 C  
HETATM   14  C   UNK A   0     -10.535   8.451  68.400  1.00  0.00    -0.208 C  
HETATM   15  C   UNK A   0     -10.552   8.172  69.910  1.00  0.00    -0.239 C  
HETATM   16  C   UNK A   0     -12.130  11.256  69.490  1.00  0.00    -0.317 C  
HETATM   17  C   UNK A   0     -11.067   9.409  70.723  1.00  0.00    -0.300 C  
HETATM   18  N   UNK A   0     -10.898  10.746  70.093  1.00  0.00    -0.468 NA 
ENDROOT
BRANCH  15  19
HETATM   19  C   UNK A   0      -9.091   7.774  70.350  1.00  0.00    -0.155 C  
ATOM     20  N   ALA A   1      -8.569   6.670  69.686  1.00  0.00    -0.132 N  
ATOM     21  H   ALA A   1      -9.230   6.041  69.230  1.00  0.00     0.000 HD 
HETATM   22  O   UNK A   0      -8.457   8.358  71.214  1.00  0.00    -0.122 OA 
BRANCH  20  23
ATOM     23  CA  ALA A   1      -7.139   6.338  69.590  1.00  0.00    -0.073 C  
ATOM     24  CB  ALA A   1      -6.917   4.844  69.362  1.00  0.00    -0.054 C  
BRANCH  23  25
ATOM     25  C   ALA A   1      -6.347   7.172  68.570  1.00  0.00    -0.036 C  
ATOM     26  O   ALA A   1      -7.110   7.335  67.376  1.00  0.00    -0.082 OA 
ATOM     27  H   ALA A   1      -6.621   7.850  66.746  1.00  0.00     0.000 HD 
ENDBRANCH  23  25
ENDBRANCH  20  23
ENDBRANCH  15  19
TORSDOF 3
ENDMDL
MODEL      125
REMARK 921   NORMALIZED FREE ENERGY PREDICTED BY IDOCK:   -3.80 KCAL/MOL
REMARK 922        TOTAL FREE ENERGY PREDICTED BY IDOCK:   -4.92 KCAL/MOL
REMARK 923 INTER-LIGAND FREE ENERGY PREDICTED BY IDOCK:   -4.68 KCAL/MOL
REMARK 924 INTRA-LIGAND FREE ENERGY PREDICTED BY IDOCK:   -0.23 KCAL/MOL
REMARK 927      BINDING AFFINITY PREDICTED BY RF-SCORE:    0.00 PKD
ROOT
HETATM    1  C   UNK A   0      -9.372  10.246  67.458  1.00  0.00    -0.148 C  
HETATM    2  C   UNK A   0     -10.696   9.768  68.105  1.00  0.00    -0.280 C  
HETATM    3  C   UNK A   0     -11.194  10.879  68.966  1.00  0.00    -0.327 A  
HETATM    4  C   UNK A   0     -11.714  10.961  70.231  1.00  0.00    -0.347 A  
HETATM    5  N   UNK A   0     -12.059  12.276  70.450  1.00  0.00    -0.434 NA 
HETATM    6  C   UNK A   0     -11.726  13.049  69.355  1.00  0.00    -0.326 A  
HETATM    7  H   UNK A   0     -12.498  12.629  71.300  1.00  0.00     0.000 HD 
HETATM    8  C   UNK A   0     -11.906  14.401  69.054  1.00  0.00    -0.358 A  
HETATM    9  C   UNK A   0     -11.333  14.855  67.851  1.00  0.00    -0.340 A  
HETATM   10  C   UNK A   0     -10.517  14.029  67.052  1.00  0.00    -0.275 A  
HETATM   11  C   UNK A   0     -10.314  12.688  67.404  1.00  0.00    -0.224 A  
HETATM   12  C   UNK A   0     -11.050  12.205  68.499  1.00  0.00    -0.295 A  
HETATM   13  C   UNK A   0      -9.278  11.726  66.972  1.00  0.00    -0.187 C  
HETATM   14  C   UNK A   0      -8.069  12.121  66.538  1.00  0.00     0.102 C  
HETATM   15  C   UNK A   0      -6.899  11.151  66.759  1.00  0.00    -0.134 C  
HETATM   16  C   UNK A   0      -9.397   9.292  65.184  1.00  0.00    -0.171 C  
HETATM   17  C   UNK A   0      -7.291   9.677  66.400  1.00  0.00    -0.094 C  
HETATM   18  N   UNK A   0      -8.734   9.324  66.488  1.00  0.00    -0.129 NA 
ENDROOT
BRANCH  15  19
HETATM   19  C   UNK A   0      -6.446  11.267  68.264  1.00  0.00    -0.056 C  
ATOM     20  N   ALA A   1      -6.365  12.568  68.745  1.00  0.00    -0.073 N  
ATOM     21  H   ALA A   1      -6.293  13.319  68.058  1.00  0.00     0.000 HD 
HETATM   22  O   UNK A   0      -6.163  10.308  68.966  1.00  0.00    -0.040 OA 
BRANCH  20  23
ATOM     23  CA  ALA A   1      -6.376  12.949  70.166  1.00  0.00     0.061 C  
ATOM     24  CB  ALA A   1      -5.209  12.326  70.930  1.00  0.00    -0.153 C  
BRANCH  23  25
ATOM     25  C   ALA A   1      -6.461  14.460  70.431  1.00  0.00    -0.100 C  
ATOM     26  O   ALA A   1      -7.663  14.987  69.873  1.00  0.00    -0.355 OA 
ATOM     27  H   ALA A   1      -7.715  15.921  70.036  1.00  0.00     0.000 HD 
ENDBRANCH  23  25
ENDBRANCH  20  23
ENDBRANCH  15  19
TORSDOF 3
ENDMDL
MODEL      126
REMARK 921   NORMALIZED FREE ENERGY PREDICTED BY IDOCK:   -3.76 KCAL/MOL
REMARK 922        TOTAL FREE ENERGY PREDICTED BY IDOCK:   -4.87 KCAL/MOL
REMARK 923 INTER-LIGAND FREE ENERGY PREDICTED BY IDOCK:   -4.24 KCAL/MOL
REMARK 924 INTRA-LIGAND FREE ENERGY PREDICTED BY IDOCK:   -0.63 KCAL/MOL
REMARK 927      BINDING AFFINITY PREDICTED BY RF-SCORE:    0.00 PKD
ROOT
HETATM    1  C   UNK A   0     -10.366   6.039  72.123  1.00  0.00    -0.197 C  
HETATM    2  C   UNK A   0     -11.421   7.143  71.863  1.00  0.00    -0.305 C  
HETATM    3  C   UNK A   0     -11.120   7.736  70.529  1.00  0.00    -0.265 A  
HETATM    4  C   UNK A   0     -11.054   9.012  70.033  1.00  0.00    -0.182 A  
HETATM    5  N   UNK A   0     -10.793   8.916  68.684  1.00  0.00    -0.431 NA 
HETATM    6  C   UNK A   0     -10.646   7.593  68.315  1.00  0.00    -0.124 A  
HETATM    7  H   UNK A   0     -10.719   9.709  68.047  1.00  0.00     0.000 HD 
HETATM    8  C   UNK A   0     -10.429   6.966  67.086  1.00  0.00    -0.373 A  
HETATM    9  C   UNK A   0     -10.233   5.572  67.122  1.00  0.00    -0.260 A  
HETATM   10  C   UNK A   0     -10.137   4.861  68.336  1.00  0.00    -0.148 A  
HETATM   11  C   UNK A   0     -10.313   5.525  69.556  1.00  0.00    -0.357 A  
HETATM   12  C   UNK A   0     -10.699   6.875  69.491  1.00  0.00    -0.276 A  
HETATM   13  C   UNK A   0      -9.938   5.128  70.931  1.00  0.00    -0.280 C  
HETATM   14  C   UNK A   0      -8.930   4.276  71.182  1.00  0.00    -0.166 C  
HETATM   15  C   UNK A   0      -8.197   4.439  72.521  1.00  0.00    -0.105 C  
HETATM   16  C   UNK A   0     -11.593   4.256  73.306  1.00  0.00    -0.076 C  
HETATM   17  C   UNK A   0      -9.197   4.661  73.707  1.00  0.00    -0.111 C  
HETATM   18  N   UNK A   0     -10.521   5.251  73.369  1.00  0.00    -0.211 NA 
ENDROOT
BRANCH  15  19
HETATM   19  C   UNK A   0      -7.198   5.651  72.387  1.00  0.00    -0.090 C  
ATOM     20  N   ALA A   1      -6.596   5.767  71.141  1.00  0.00    -0.044 N  
ATOM     21  H   ALA A   1      -6.587   4.940  70.544  1.00  0.00     0.000 HD 
HETATM   22  O   UNK A   0      -6.942   6.426  73.295  1.00  0.00    -0.077 OA 
BRANCH  20  23
ATOM     23  CA  ALA A   1      -5.968   6.990  70.614  1.00  0.00    -0.027 C  
ATOM     24  CB  ALA A   1      -5.437   6.790  69.195  1.00  0.00    -0.014 C  
BRANCH  23  25
ATOM     25  C   ALA A   1      -6.839   8.254  70.700  1.00  0.00    -0.038 C  
ATOM     26  O   ALA A   1      -7.451   8.512  69.439  1.00  0.00    -0.083 OA 
ATOM     27  H   ALA A   1      -7.988   9.293  69.492  1.00  0.00     0.000 HD 
ENDBRANCH  23  25
ENDBRANCH  20  23
ENDBRANCH  15  19
TORSDOF 3
ENDMDL
MODEL      127
REMARK 921   NORMALIZED FREE ENERGY PREDICTED BY IDOCK:   -3.71 KCAL/MOL
REMARK 922        TOTAL FREE ENERGY PREDICTED BY IDOCK:   -4.80 KCAL/MOL
REMARK 923 INTER-LIGAND FREE ENERGY PREDICTED BY IDOCK:   -4.46 KCAL/MOL
REMARK 924 INTRA-LIGAND FREE ENERGY PREDICTED BY IDOCK:   -0.34 KCAL/MOL
REMARK 927      BINDING AFFINITY PREDICTED BY RF-SCORE:    0.00 PKD
ROOT
HETATM    1  C   UNK A   0     -10.224   7.780  70.706  1.00  0.00    -0.197 C  
HETATM    2  C   UNK A   0      -9.791   9.242  70.977  1.00  0.00    -0.355 C  
HETATM    3  C   UNK A   0      -8.845   9.632  69.892  1.00  0.00    -0.240 A  
HETATM    4  C   UNK A   0      -7.642  10.287  69.850  1.00  0.00    -0.143 A  
HETATM    5  N   UNK A   0      -7.284  10.406  68.525  1.00  0.00    -0.081 NA 
HETATM    6  C   UNK A   0      -8.223   9.795  67.717  1.00  0.00    -0.114 A  
HETATM    7  H   UNK A   0      -6.446  10.878  68.189  1.00  0.00     0.000 HD 
HETATM    8  C   UNK A   0      -8.355   9.679  66.331  1.00  0.00    -0.120 A  
HETATM    9  C   UNK A   0      -9.418   8.880  65.870  1.00  0.00    -0.303 A  
HETATM   10  C   UNK A   0     -10.231   8.136  66.749  1.00  0.00    -0.372 A  
HETATM   11  C   UNK A   0     -10.045   8.235  68.133  1.00  0.00    -0.238 A  
HETATM   12  C   UNK A   0      -9.109   9.184  68.579  1.00  0.00    -0.132 A  
HETATM   13  C   UNK A   0     -10.492   7.349  69.230  1.00  0.00    -0.222 C  
HETATM   14  C   UNK A   0     -10.738   6.041  69.041  1.00  0.00    -0.393 C  
HETATM   15  C   UNK A   0     -10.529   5.112  70.245  1.00  0.00    -0.296 C  
HETATM   16  C   UNK A   0     -12.596   7.687  71.374  1.00  0.00    -0.333 C  
HETATM   17  C   UNK A   0     -11.123   5.723  71.560  1.00  0.00    -0.214 C  
HETATM   18  N   UNK A   0     -11.236   7.205  71.623  1.00  0.00    -0.240 NA 
ENDROOT
BRANCH  15  19
HETATM   19  C   UNK A   0      -8.982   4.845  70.393  1.00  0.00    -0.112 C  
ATOM     20  N   ALA A   1      -8.231   5.162  69.268  1.00  0.00    -0.083 N  
ATOM     21  H   ALA A   1      -8.725   5.233  68.378  1.00  0.00     0.000 HD 
HETATM   22  O   UNK A   0      -8.464   4.379  71.396  1.00  0.00    -0.096 OA 
BRANCH  20  23
ATOM     23  CA  ALA A   1      -6.780   5.404  69.259  1.00  0.00    -0.052 C  
ATOM     24  CB  ALA A   1      -6.375   6.392  68.166  1.00  0.00    -0.040 C  
BRANCH  23  25
ATOM     25  C   ALA A   1      -6.182   5.811  70.615  1.00  0.00    -0.031 C  
ATOM     26  O   ALA A   1      -6.754   7.042  71.051  1.00  0.00    -0.051 OA 
ATOM     27  H   ALA A   1      -6.385   7.294  71.888  1.00  0.00     0.000 HD 
ENDBRANCH  23  25
ENDBRANCH  20  23
ENDBRANCH  15  19
TORSDOF 3
ENDMDL
MODEL      128
REMARK 921   NORMALIZED FREE ENERGY PREDICTED BY IDOCK:   -3.70 KCAL/MOL
REMARK 922        TOTAL FREE ENERGY PREDICTED BY IDOCK:   -4.79 KCAL/MOL
REMARK 923 INTER-LIGAND FREE ENERGY PREDICTED BY IDOCK:   -4.10 KCAL/MOL
REMARK 924 INTRA-LIGAND FREE ENERGY PREDICTED BY IDOCK:   -0.70 KCAL/MOL
REMARK 927      BINDING AFFINITY PREDICTED BY RF-SCORE:    0.00 PKD
ROOT
HETATM    1  C   UNK A   0     -10.661  12.229  66.789  1.00  0.00    -0.224 C  
HETATM    2  C   UNK A   0     -10.799  11.740  68.253  1.00  0.00    -0.259 C  
HETATM    3  C   UNK A   0      -9.435  11.365  68.723  1.00  0.00    -0.128 A  
HETATM    4  C   UNK A   0      -8.911  10.308  69.423  1.00  0.00    -0.176 A  
HETATM    5  N   UNK A   0      -7.571  10.564  69.613  1.00  0.00    -0.251 NA 
HETATM    6  C   UNK A   0      -7.217  11.752  69.006  1.00  0.00    -0.080 A  
HETATM    7  H   UNK A   0      -6.932   9.961  70.130  1.00  0.00     0.000 HD 
HETATM    8  C   UNK A   0      -6.022  12.472  68.947  1.00  0.00    -0.070 A  
HETATM    9  C   UNK A   0      -6.023  13.620  68.132  1.00  0.00    -0.118 A  
HETATM   10  C   UNK A   0      -7.124  13.960  67.321  1.00  0.00     0.061 A  
HETATM   11  C   UNK A   0      -8.295  13.192  67.364  1.00  0.00    -0.188 A  
HETATM   12  C   UNK A   0      -8.343  12.168  68.325  1.00  0.00    -0.172 A  
HETATM   13  C   UNK A   0      -9.426  13.106  66.415  1.00  0.00    -0.226 C  
HETATM   14  C   UNK A   0      -9.290  13.393  65.109  1.00  0.00     0.615 C  
HETATM   15  C   UNK A   0     -10.230  12.670  64.135  1.00  0.00    -0.366 C  
HETATM   16  C   UNK A   0     -12.285  14.074  66.582  1.00  0.00    -0.428 C  
HETATM   17  C   UNK A   0     -11.705  12.641  64.665  1.00  0.00    -0.357 C  
HETATM   18  N   UNK A   0     -11.893  12.735  66.138  1.00  0.00    -0.409 NA 
ENDROOT
BRANCH  15  19
HETATM   19  C   UNK A   0      -9.678  11.209  63.917  1.00  0.00    -0.286 C  
ATOM     20  N   ALA A   1      -8.333  11.146  63.575  1.00  0.00    -0.357 N  
ATOM     21  H   ALA A   1      -7.904  11.991  63.198  1.00  0.00     0.000 HD 
HETATM   22  O   UNK A   0     -10.361  10.201  64.014  1.00  0.00     0.064 OA 
BRANCH  20  23
ATOM     23  CA  ALA A   1      -7.478   9.956  63.715  1.00  0.00    -0.136 C  
ATOM     24  CB  ALA A   1      -7.120   9.350  62.359  1.00  0.00    -0.101 C  
BRANCH  23  25
ATOM     25  C   ALA A   1      -6.220  10.159  64.575  1.00  0.00    -0.133 C  
ATOM     26  O   ALA A   1      -6.439  11.201  65.522  1.00  0.00    -0.373 OA 
ATOM     27  H   ALA A   1      -5.662  11.328  66.053  1.00  0.00     0.000 HD 
ENDBRANCH  23  25
ENDBRANCH  20  23
ENDBRANCH  15  19
TORSDOF 3
ENDMDL
MODEL      129
REMARK 921   NORMALIZED FREE ENERGY PREDICTED BY IDOCK:   -3.65 KCAL/MOL
REMARK 922        TOTAL FREE ENERGY PREDICTED BY IDOCK:   -4.74 KCAL/MOL
REMARK 923 INTER-LIGAND FREE ENERGY PREDICTED BY IDOCK:   -4.51 KCAL/MOL
REMARK 924 INTRA-LIGAND FREE ENERGY PREDICTED BY IDOCK:   -0.23 KCAL/MOL
REMARK 927      BINDING AFFINITY PREDICTED BY RF-SCORE:    0.00 PKD
ROOT
HETATM    1  C   UNK A   0      -8.947  10.397  68.363  1.00  0.00    -0.137 C  
HETATM    2  C   UNK A   0     -10.485  10.391  68.178  1.00  0.00    -0.221 C  
HETATM    3  C   UNK A   0     -10.776  11.067  66.881  1.00  0.00    -0.325 A  
HETATM    4  C   UNK A   0     -11.684  12.005  66.464  1.00  0.00    -0.256 A  
HETATM    5  N   UNK A   0     -11.502  12.181  65.110  1.00  0.00    -0.332 NA 
HETATM    6  C   UNK A   0     -10.457  11.399  64.659  1.00  0.00    -0.315 A  
HETATM    7  H   UNK A   0     -12.060  12.801  64.524  1.00  0.00     0.000 HD 
HETATM    8  C   UNK A   0      -9.911  11.176  63.393  1.00  0.00    -0.397 A  
HETATM    9  C   UNK A   0      -8.761  10.366  63.342  1.00  0.00    -0.201 A  
HETATM   10  C   UNK A   0      -8.118   9.905  64.508  1.00  0.00    -0.149 A  
HETATM   11  C   UNK A   0      -8.662  10.184  65.769  1.00  0.00    -0.166 A  
HETATM   12  C   UNK A   0      -9.912  10.826  65.789  1.00  0.00    -0.306 A  
HETATM   13  C   UNK A   0      -8.050  10.133  67.114  1.00  0.00    -0.120 C  
HETATM   14  C   UNK A   0      -6.727  10.277  67.306  1.00  0.00    -0.073 C  
HETATM   15  C   UNK A   0      -6.279  10.872  68.648  1.00  0.00    -0.043 C  
HETATM   16  C   UNK A   0      -8.429   8.240  69.439  1.00  0.00    -0.123 C  
HETATM   17  C   UNK A   0      -7.067  10.249  69.851  1.00  0.00    -0.152 C  
HETATM   18  N   UNK A   0      -8.418   9.699  69.558  1.00  0.00    -0.144 NA 
ENDROOT
BRANCH  15  19
HETATM   19  C   UNK A   0      -6.485  12.434  68.584  1.00  0.00    -0.077 C  
ATOM     20  N   ALA A   1      -6.858  12.916  67.335  1.00  0.00    -0.258 N  
ATOM     21  H   ALA A   1      -6.672  12.321  66.527  1.00  0.00     0.000 HD 
HETATM   22  O   UNK A   0      -6.317  13.183  69.533  1.00  0.00    -0.110 OA 
BRANCH  20  23
ATOM     23  CA  ALA A   1      -7.501  14.216  67.086  1.00  0.00     0.110 C  
ATOM     24  CB  ALA A   1      -8.997  14.179  67.396  1.00  0.00    -0.205 C  
BRANCH  23  25
ATOM     25  C   ALA A   1      -6.828  15.414  67.776  1.00  0.00    -0.167 C  
ATOM     26  O   ALA A   1      -5.481  15.541  67.326  1.00  0.00    -0.341 OA 
ATOM     27  H   ALA A   1      -5.064  16.281  67.752  1.00  0.00     0.000 HD 
ENDBRANCH  23  25
ENDBRANCH  20  23
ENDBRANCH  15  19
TORSDOF 3
ENDMDL
MODEL      130
REMARK 921   NORMALIZED FREE ENERGY PREDICTED BY IDOCK:   -3.64 KCAL/MOL
REMARK 922        TOTAL FREE ENERGY PREDICTED BY IDOCK:   -4.72 KCAL/MOL
REMARK 923 INTER-LIGAND FREE ENERGY PREDICTED BY IDOCK:   -3.99 KCAL/MOL
REMARK 924 INTRA-LIGAND FREE ENERGY PREDICTED BY IDOCK:   -0.73 KCAL/MOL
REMARK 927      BINDING AFFINITY PREDICTED BY RF-SCORE:    0.00 PKD
ROOT
HETATM    1  C   UNK A   0      -9.123   7.717  67.907  1.00  0.00    -0.134 C  
HETATM    2  C   UNK A   0      -7.885   7.990  67.018  1.00  0.00    -0.104 C  
HETATM    3  C   UNK A   0      -7.398   6.671  66.520  1.00  0.00    -0.074 A  
HETATM    4  C   UNK A   0      -6.168   6.079  66.401  1.00  0.00    -0.037 A  
HETATM    5  N   UNK A   0      -6.357   4.856  65.796  1.00  0.00    -0.034 NA 
HETATM    6  C   UNK A   0      -7.701   4.636  65.565  1.00  0.00    -0.090 A  
HETATM    7  H   UNK A   0      -5.610   4.205  65.553  1.00  0.00     0.000 HD 
HETATM    8  C   UNK A   0      -8.404   3.600  64.947  1.00  0.00    -0.097 A  
HETATM    9  C   UNK A   0      -9.808   3.684  64.989  1.00  0.00    -0.146 A  
HETATM   10  C   UNK A   0     -10.475   4.688  65.720  1.00  0.00    -0.290 A  
HETATM   11  C   UNK A   0      -9.743   5.689  66.371  1.00  0.00    -0.180 A  
HETATM   12  C   UNK A   0      -8.354   5.698  66.155  1.00  0.00    -0.120 A  
HETATM   13  C   UNK A   0     -10.136   6.621  67.450  1.00  0.00    -0.211 C  
HETATM   14  C   UNK A   0     -11.119   6.337  68.321  1.00  0.00    -0.364 C  
HETATM   15  C   UNK A   0     -11.014   6.963  69.719  1.00  0.00    -0.310 C  
HETATM   16  C   UNK A   0     -10.652   9.600  67.461  1.00  0.00    -0.277 C  
HETATM   17  C   UNK A   0     -10.595   8.472  69.649  1.00  0.00    -0.220 C  
HETATM   18  N   UNK A   0      -9.827   8.903  68.450  1.00  0.00    -0.168 NA 
ENDROOT
BRANCH  15  19
HETATM   19  C   UNK A   0      -9.972   6.124  70.553  1.00  0.00    -0.181 C  
ATOM     20  N   ALA A   1     -10.336   4.800  70.767  1.00  0.00    -0.168 N  
ATOM     21  H   ALA A   1     -11.323   4.562  70.663  1.00  0.00     0.000 HD 
HETATM   22  O   UNK A   0      -8.933   6.581  71.002  1.00  0.00    -0.145 OA 
BRANCH  20  23
ATOM     23  CA  ALA A   1      -9.412   3.716  71.134  1.00  0.00    -0.164 C  
ATOM     24  CB  ALA A   1      -9.811   3.048  72.449  1.00  0.00    -0.228 C  
BRANCH  23  25
ATOM     25  C   ALA A   1      -9.176   2.666  70.035  1.00  0.00    -0.132 C  
ATOM     26  O   ALA A   1      -9.056   3.307  68.767  1.00  0.00    -0.119 OA 
ATOM     27  H   ALA A   1      -8.911   2.659  68.088  1.00  0.00     0.000 HD 
ENDBRANCH  23  25
ENDBRANCH  20  23
ENDBRANCH  15  19
TORSDOF 3
ENDMDL
MODEL      131
REMARK 921   NORMALIZED FREE ENERGY PREDICTED BY IDOCK:   -3.63 KCAL/MOL
REMARK 922        TOTAL FREE ENERGY PREDICTED BY IDOCK:   -4.72 KCAL/MOL
REMARK 923 INTER-LIGAND FREE ENERGY PREDICTED BY IDOCK:   -4.16 KCAL/MOL
REMARK 924 INTRA-LIGAND FREE ENERGY PREDICTED BY IDOCK:   -0.56 KCAL/MOL
REMARK 927      BINDING AFFINITY PREDICTED BY RF-SCORE:    0.00 PKD
ROOT
HETATM    1  C   UNK A   0     -10.311   6.523  68.833  1.00  0.00    -0.196 C  
HETATM    2  C   UNK A   0     -11.628   6.820  69.592  1.00  0.00    -0.234 C  
HETATM    3  C   UNK A   0     -11.334   6.705  71.049  1.00  0.00    -0.366 A  
HETATM    4  C   UNK A   0     -11.965   6.122  72.118  1.00  0.00    -0.260 A  
HETATM    5  N   UNK A   0     -11.226   6.419  73.243  1.00  0.00    -0.472 NA 
HETATM    6  C   UNK A   0     -10.104   7.148  72.903  1.00  0.00    -0.210 A  
HETATM    7  H   UNK A   0     -11.474   6.139  74.191  1.00  0.00     0.000 HD 
HETATM    8  C   UNK A   0      -9.081   7.728  73.657  1.00  0.00    -0.345 A  
HETATM    9  C   UNK A   0      -8.032   8.325  72.933  1.00  0.00    -0.199 A  
HETATM   10  C   UNK A   0      -7.949   8.238  71.528  1.00  0.00    -0.148 A  
HETATM   11  C   UNK A   0      -8.966   7.608  70.800  1.00  0.00    -0.149 A  
HETATM   12  C   UNK A   0     -10.096   7.192  71.525  1.00  0.00    -0.197 A  
HETATM   13  C   UNK A   0      -8.977   7.083  69.418  1.00  0.00    -0.139 C  
HETATM   14  C   UNK A   0      -7.855   6.687  68.792  1.00  0.00    -0.111 C  
HETATM   15  C   UNK A   0      -8.001   5.592  67.727  1.00  0.00    -0.098 C  
HETATM   16  C   UNK A   0     -10.336   8.050  66.897  1.00  0.00    -0.338 C  
HETATM   17  C   UNK A   0      -9.234   5.850  66.793  1.00  0.00    -0.133 C  
HETATM   18  N   UNK A   0     -10.347   6.660  67.358  1.00  0.00    -0.189 NA 
ENDROOT
BRANCH  15  19
HETATM   19  C   UNK A   0      -8.131   4.206  68.465  1.00  0.00    -0.076 C  
ATOM     20  N   ALA A   1      -7.252   4.034  69.528  1.00  0.00    -0.049 N  
ATOM     21  H   ALA A   1      -6.426   4.631  69.556  1.00  0.00     0.000 HD 
HETATM   22  O   UNK A   0      -8.916   3.330  68.138  1.00  0.00    -0.112 OA 
BRANCH  20  23
ATOM     23  CA  ALA A   1      -7.420   3.058  70.617  1.00  0.00    -0.040 C  
ATOM     24  CB  ALA A   1      -6.628   1.777  70.360  1.00  0.00    -0.025 C  
BRANCH  23  25
ATOM     25  C   ALA A   1      -7.137   3.605  72.026  1.00  0.00    -0.048 C  
ATOM     26  O   ALA A   1      -6.840   2.531  72.915  1.00  0.00    -0.025 OA 
ATOM     27  H   ALA A   1      -6.665   2.868  73.785  1.00  0.00     0.000 HD 
ENDBRANCH  23  25
ENDBRANCH  20  23
ENDBRANCH  15  19
TORSDOF 3
ENDMDL
MODEL      132
REMARK 921   NORMALIZED FREE ENERGY PREDICTED BY IDOCK:   -3.61 KCAL/MOL
REMARK 922        TOTAL FREE ENERGY PREDICTED BY IDOCK:   -4.69 KCAL/MOL
REMARK 923 INTER-LIGAND FREE ENERGY PREDICTED BY IDOCK:   -4.18 KCAL/MOL
REMARK 924 INTRA-LIGAND FREE ENERGY PREDICTED BY IDOCK:   -0.51 KCAL/MOL
REMARK 927      BINDING AFFINITY PREDICTED BY RF-SCORE:    0.00 PKD
ROOT
HETATM    1  C   UNK A   0      -7.668   6.140  69.012  1.00  0.00    -0.096 C  
HETATM    2  C   UNK A   0      -7.503   4.629  69.310  1.00  0.00    -0.056 C  
HETATM    3  C   UNK A   0      -8.345   3.891  68.325  1.00  0.00    -0.101 A  
HETATM    4  C   UNK A   0      -9.220   2.839  68.400  1.00  0.00    -0.191 A  
HETATM    5  N   UNK A   0      -9.642   2.561  67.118  1.00  0.00    -0.405 NA 
HETATM    6  C   UNK A   0      -9.081   3.452  66.224  1.00  0.00    -0.155 A  
HETATM    7  H   UNK A   0     -10.278   1.805  66.866  1.00  0.00     0.000 HD 
HETATM    8  C   UNK A   0      -9.142   3.571  64.834  1.00  0.00    -0.137 A  
HETATM    9  C   UNK A   0      -8.499   4.692  64.274  1.00  0.00    -0.131 A  
HETATM   10  C   UNK A   0      -7.932   5.705  65.072  1.00  0.00    -0.115 A  
HETATM   11  C   UNK A   0      -7.927   5.583  66.467  1.00  0.00    -0.101 A  
HETATM   12  C   UNK A   0      -8.398   4.369  66.996  1.00  0.00    -0.101 A  
HETATM   13  C   UNK A   0      -7.728   6.599  67.522  1.00  0.00    -0.110 C  
HETATM   14  C   UNK A   0      -8.001   7.901  67.325  1.00  0.00    -0.118 C  
HETATM   15  C   UNK A   0      -8.413   8.721  68.555  1.00  0.00    -0.130 C  
HETATM   16  C   UNK A   0      -5.441   7.115  69.430  1.00  0.00    -0.015 C  
HETATM   17  C   UNK A   0      -7.505   8.406  69.794  1.00  0.00    -0.072 C  
HETATM   18  N   UNK A   0      -6.850   7.071  69.826  1.00  0.00    -0.049 NA 
ENDROOT
BRANCH  15  19
HETATM   19  C   UNK A   0      -9.926   8.406  68.867  1.00  0.00    -0.187 C  
ATOM     20  N   ALA A   1     -10.162   7.926  70.150  1.00  0.00    -0.199 N  
ATOM     21  H   ALA A   1      -9.371   7.529  70.656  1.00  0.00     0.000 HD 
HETATM   22  O   UNK A   0     -10.832   8.546  68.061  1.00  0.00    -0.108 OA 
BRANCH  20  23
ATOM     23  CA  ALA A   1     -11.465   7.943  70.834  1.00  0.00    -0.281 C  
ATOM     24  CB  ALA A   1     -12.027   6.535  71.023  1.00  0.00    -0.358 C  
BRANCH  23  25
ATOM     25  C   ALA A   1     -11.491   8.726  72.157  1.00  0.00    -0.351 C  
ATOM     26  O   ALA A   1     -11.488   7.822  73.259  1.00  0.00    -0.615 OA 
ATOM     27  H   ALA A   1     -11.504   8.306  74.076  1.00  0.00     0.000 HD 
ENDBRANCH  23  25
ENDBRANCH  20  23
ENDBRANCH  15  19
TORSDOF 3
ENDMDL
MODEL      133
REMARK 921   NORMALIZED FREE ENERGY PREDICTED BY IDOCK:   -3.61 KCAL/MOL
REMARK 922        TOTAL FREE ENERGY PREDICTED BY IDOCK:   -4.69 KCAL/MOL
REMARK 923 INTER-LIGAND FREE ENERGY PREDICTED BY IDOCK:   -4.30 KCAL/MOL
REMARK 924 INTRA-LIGAND FREE ENERGY PREDICTED BY IDOCK:   -0.39 KCAL/MOL
REMARK 927      BINDING AFFINITY PREDICTED BY RF-SCORE:    0.00 PKD
ROOT
HETATM    1  C   UNK A   0      -7.271  11.272  68.014  1.00  0.00    -0.079 C  
HETATM    2  C   UNK A   0      -6.715  12.677  68.353  1.00  0.00    -0.082 C  
HETATM    3  C   UNK A   0      -7.609  13.676  67.701  1.00  0.00    -0.186 A  
HETATM    4  C   UNK A   0      -7.410  14.818  66.970  1.00  0.00     0.207 A  
HETATM    5  N   UNK A   0      -8.650  15.353  66.696  1.00  0.00    -0.275 NA 
HETATM    6  C   UNK A   0      -9.646  14.543  67.205  1.00  0.00    -0.231 A  
HETATM    7  H   UNK A   0      -8.809  16.223  66.189  1.00  0.00     0.000 HD 
HETATM    8  C   UNK A   0     -11.038  14.656  67.242  1.00  0.00    -0.331 A  
HETATM    9  C   UNK A   0     -11.739  13.557  67.774  1.00  0.00    -0.394 A  
HETATM   10  C   UNK A   0     -11.091  12.359  68.134  1.00  0.00    -0.288 A  
HETATM   11  C   UNK A   0      -9.697  12.257  68.040  1.00  0.00    -0.205 A  
HETATM   12  C   UNK A   0      -9.000  13.427  67.693  1.00  0.00    -0.202 A  
HETATM   13  C   UNK A   0      -8.818  11.068  68.015  1.00  0.00    -0.138 C  
HETATM   14  C   UNK A   0      -9.247   9.867  67.589  1.00  0.00    -0.146 C  
HETATM   15  C   UNK A   0      -8.199   8.932  66.972  1.00  0.00    -0.106 C  
HETATM   16  C   UNK A   0      -6.893   9.932  70.049  1.00  0.00    -0.110 C  
HETATM   17  C   UNK A   0      -6.874   8.912  67.809  1.00  0.00    -0.070 C  
HETATM   18  N   UNK A   0      -6.579  10.116  68.631  1.00  0.00    -0.052 NA 
ENDROOT
BRANCH  15  19
HETATM   19  C   UNK A   0      -7.928   9.408  65.494  1.00  0.00    -0.111 C  
ATOM     20  N   ALA A   1      -8.877   8.989  64.569  1.00  0.00    -0.376 N  
ATOM     21  H   ALA A   1      -9.462   8.193  64.824  1.00  0.00     0.000 HD 
HETATM   22  O   UNK A   0      -6.961  10.074  65.159  1.00  0.00    -0.122 OA 
BRANCH  20  23
ATOM     23  CA  ALA A   1      -9.105   9.603  63.251  1.00  0.00    -0.191 C  
ATOM     24  CB  ALA A   1      -9.757  10.979  63.370  1.00  0.00    -0.383 C  
BRANCH  23  25
ATOM     25  C   ALA A   1      -7.868   9.658  62.340  1.00  0.00    -0.115 C  
ATOM     26  O   ALA A   1      -7.273  10.952  62.404  1.00  0.00    -0.313 OA 
ATOM     27  H   ALA A   1      -6.509  10.987  61.842  1.00  0.00     0.000 HD 
ENDBRANCH  23  25
ENDBRANCH  20  23
ENDBRANCH  15  19
TORSDOF 3
ENDMDL
MODEL      134
REMARK 921   NORMALIZED FREE ENERGY PREDICTED BY IDOCK:   -3.57 KCAL/MOL
REMARK 922        TOTAL FREE ENERGY PREDICTED BY IDOCK:   -4.64 KCAL/MOL
REMARK 923 INTER-LIGAND FREE ENERGY PREDICTED BY IDOCK:   -4.15 KCAL/MOL
REMARK 924 INTRA-LIGAND FREE ENERGY PREDICTED BY IDOCK:   -0.49 KCAL/MOL
REMARK 927      BINDING AFFINITY PREDICTED BY RF-SCORE:    0.00 PKD
ROOT
HETATM    1  C   UNK A   0      -7.713   7.327  68.557  1.00  0.00    -0.120 C  
HETATM    2  C   UNK A   0      -7.765   5.855  69.039  1.00  0.00    -0.091 C  
HETATM    3  C   UNK A   0      -8.619   5.105  68.075  1.00  0.00    -0.103 A  
HETATM    4  C   UNK A   0      -9.625   4.181  68.192  1.00  0.00    -0.134 A  
HETATM    5  N   UNK A   0      -9.983   3.798  66.918  1.00  0.00    -0.321 NA 
HETATM    6  C   UNK A   0      -9.249   4.498  65.981  1.00  0.00    -0.141 A  
HETATM    7  H   UNK A   0     -10.690   3.096  66.699  1.00  0.00     0.000 HD 
HETATM    8  C   UNK A   0      -9.192   4.450  64.586  1.00  0.00    -0.156 A  
HETATM    9  C   UNK A   0      -8.373   5.408  63.961  1.00  0.00    -0.116 A  
HETATM   10  C   UNK A   0      -7.741   6.440  64.685  1.00  0.00    -0.107 A  
HETATM   11  C   UNK A   0      -7.854   6.492  66.080  1.00  0.00    -0.103 A  
HETATM   12  C   UNK A   0      -8.514   5.417  66.700  1.00  0.00    -0.108 A  
HETATM   13  C   UNK A   0      -7.605   7.601  67.025  1.00  0.00    -0.103 C  
HETATM   14  C   UNK A   0      -7.694   8.891  66.657  1.00  0.00    -0.100 C  
HETATM   15  C   UNK A   0      -8.088   9.900  67.744  1.00  0.00    -0.109 C  
HETATM   16  C   UNK A   0      -5.417   8.076  69.056  1.00  0.00    -0.030 C  
HETATM   17  C   UNK A   0      -7.321   9.637  69.086  1.00  0.00    -0.077 C  
HETATM   18  N   UNK A   0      -6.845   8.248  69.328  1.00  0.00    -0.050 NA 
ENDROOT
BRANCH  15  19
HETATM   19  C   UNK A   0      -9.647   9.807  67.956  1.00  0.00    -0.142 C  
ATOM     20  N   ALA A   1     -10.070  10.068  69.254  1.00  0.00    -0.200 N  
ATOM     21  H   ALA A   1      -9.377   9.987  69.999  1.00  0.00     0.000 HD 
HETATM   22  O   UNK A   0     -10.439   9.513  67.074  1.00  0.00    -0.249 OA 
BRANCH  20  23
ATOM     23  CA  ALA A   1     -11.438  10.451  69.639  1.00  0.00    -0.262 C  
ATOM     24  CB  ALA A   1     -11.744  10.082  71.089  1.00  0.00    -0.472 C  
BRANCH  23  25
ATOM     25  C   ALA A   1     -11.803  11.917  69.357  1.00  0.00    -0.327 C  
ATOM     26  O   ALA A   1     -11.786  12.666  70.569  1.00  0.00    -0.529 OA 
ATOM     27  H   ALA A   1     -12.012  13.572  70.395  1.00  0.00     0.000 HD 
ENDBRANCH  23  25
ENDBRANCH  20  23
ENDBRANCH  15  19
TORSDOF 3
ENDMDL
MODEL      135
REMARK 921   NORMALIZED FREE ENERGY PREDICTED BY IDOCK:   -3.53 KCAL/MOL
REMARK 922        TOTAL FREE ENERGY PREDICTED BY IDOCK:   -4.60 KCAL/MOL
REMARK 923 INTER-LIGAND FREE ENERGY PREDICTED BY IDOCK:   -4.17 KCAL/MOL
REMARK 924 INTRA-LIGAND FREE ENERGY PREDICTED BY IDOCK:   -0.43 KCAL/MOL
REMARK 927      BINDING AFFINITY PREDICTED BY RF-SCORE:    0.00 PKD
ROOT
HETATM    1  C   UNK A   0     -11.055   7.852  70.832  1.00  0.00    -0.255 C  
HETATM    2  C   UNK A   0     -11.877   6.811  71.632  1.00  0.00    -0.370 C  
HETATM    3  C   UNK A   0     -10.906   5.958  72.377  1.00  0.00    -0.288 A  
HETATM    4  C   UNK A   0     -10.774   4.612  72.596  1.00  0.00    -0.181 A  
HETATM    5  N   UNK A   0      -9.696   4.435  73.435  1.00  0.00    -0.123 NA 
HETATM    6  C   UNK A   0      -9.106   5.651  73.723  1.00  0.00    -0.127 A  
HETATM    7  H   UNK A   0      -9.379   3.535  73.793  1.00  0.00     0.000 HD 
HETATM    8  C   UNK A   0      -8.040   6.020  74.545  1.00  0.00    -0.111 A  
HETATM    9  C   UNK A   0      -7.660   7.375  74.506  1.00  0.00    -0.164 A  
HETATM   10  C   UNK A   0      -8.236   8.287  73.598  1.00  0.00    -0.257 A  
HETATM   11  C   UNK A   0      -9.273   7.877  72.750  1.00  0.00    -0.282 A  
HETATM   12  C   UNK A   0      -9.767   6.575  72.942  1.00  0.00    -0.164 A  
HETATM   13  C   UNK A   0      -9.803   8.488  71.513  1.00  0.00    -0.309 C  
HETATM   14  C   UNK A   0      -9.056   9.284  70.729  1.00  0.00    -0.306 C  
HETATM   15  C   UNK A   0      -9.400   9.311  69.233  1.00  0.00    -0.160 C  
HETATM   16  C   UNK A   0     -12.398   9.919  70.914  1.00  0.00    -0.310 C  
HETATM   17  C   UNK A   0     -10.947   9.395  68.994  1.00  0.00    -0.067 C  
HETATM   18  N   UNK A   0     -11.825   8.866  70.073  1.00  0.00    -0.373 NA 
ENDROOT
BRANCH  15  19
HETATM   19  C   UNK A   0      -8.794   8.015  68.569  1.00  0.00    -0.134 C  
ATOM     20  N   ALA A   1      -9.740   7.096  68.131  1.00  0.00    -0.138 N  
ATOM     21  H   ALA A   1     -10.677   7.161  68.528  1.00  0.00     0.000 HD 
HETATM   22  O   UNK A   0      -7.597   7.804  68.456  1.00  0.00    -0.101 OA 
BRANCH  20  23
ATOM     23  CA  ALA A   1      -9.495   6.036  67.140  1.00  0.00    -0.118 C  
ATOM     24  CB  ALA A   1     -10.272   4.762  67.466  1.00  0.00    -0.115 C  
BRANCH  23  25
ATOM     25  C   ALA A   1      -9.716   6.455  65.677  1.00  0.00     0.535 C  
ATOM     26  O   ALA A   1      -8.486   6.388  64.959  1.00  0.00    -0.256 OA 
ATOM     27  H   ALA A   1      -8.622   6.646  64.056  1.00  0.00     0.000 HD 
ENDBRANCH  23  25
ENDBRANCH  20  23
ENDBRANCH  15  19
TORSDOF 3
ENDMDL
MODEL      136
REMARK 921   NORMALIZED FREE ENERGY PREDICTED BY IDOCK:   -3.46 KCAL/MOL
REMARK 922        TOTAL FREE ENERGY PREDICTED BY IDOCK:   -4.51 KCAL/MOL
REMARK 923 INTER-LIGAND FREE ENERGY PREDICTED BY IDOCK:   -4.95 KCAL/MOL
REMARK 924 INTRA-LIGAND FREE ENERGY PREDICTED BY IDOCK:    0.44 KCAL/MOL
REMARK 927      BINDING AFFINITY PREDICTED BY RF-SCORE:    0.00 PKD
ROOT
HETATM    1  C   UNK A   0      -9.974  11.906  68.127  1.00  0.00    -0.197 C  
HETATM    2  C   UNK A   0      -8.824  10.871  68.211  1.00  0.00    -0.140 C  
HETATM    3  C   UNK A   0      -7.612  11.509  67.623  1.00  0.00    -0.115 A  
HETATM    4  C   UNK A   0      -6.635  11.105  66.751  1.00  0.00    -0.133 A  
HETATM    5  N   UNK A   0      -5.727  12.136  66.644  1.00  0.00    -0.492 NA 
HETATM    6  C   UNK A   0      -6.132  13.215  67.404  1.00  0.00    -0.018 A  
HETATM    7  H   UNK A   0      -4.876  12.105  66.083  1.00  0.00     0.000 HD 
HETATM    8  C   UNK A   0      -5.557  14.459  67.675  1.00  0.00     0.039 A  
HETATM    9  C   UNK A   0      -6.332  15.354  68.436  1.00  0.00    -0.110 A  
HETATM   10  C   UNK A   0      -7.663  15.066  68.802  1.00  0.00    -0.141 A  
HETATM   11  C   UNK A   0      -8.231  13.828  68.476  1.00  0.00    -0.124 A  
HETATM   12  C   UNK A   0      -7.379  12.878  67.888  1.00  0.00    -0.127 A  
HETATM   13  C   UNK A   0      -9.646  13.402  68.423  1.00  0.00    -0.188 C  
HETATM   14  C   UNK A   0     -10.649  14.271  68.210  1.00  0.00    -0.247 C  
HETATM   15  C   UNK A   0     -11.908  13.727  67.521  1.00  0.00    -0.422 C  
HETATM   16  C   UNK A   0     -11.276  11.575  70.195  1.00  0.00     0.080 C  
HETATM   17  C   UNK A   0     -12.337  12.338  68.109  1.00  0.00     0.548 C  
HETATM   18  N   UNK A   0     -11.269  11.512  68.733  1.00  0.00    -0.226 NA 
ENDROOT
BRANCH  15  19
HETATM   19  C   UNK A   0     -11.613  13.622  65.976  1.00  0.00    -0.337 C  
ATOM     20  N   ALA A   1     -11.452  12.324  65.507  1.00  0.00    -0.350 N  
ATOM     21  H   ALA A   1     -11.228  11.601  66.191  1.00  0.00     0.000 HD 
HETATM   22  O   UNK A   0     -11.509  14.586  65.235  1.00  0.00    -0.334 OA 
BRANCH  20  23
ATOM     23  CA  ALA A   1     -11.580  11.909  64.100  1.00  0.00    -0.351 C  
ATOM     24  CB  ALA A   1     -12.078  13.050  63.215  1.00  0.00    -0.499 C  
BRANCH  23  25
ATOM     25  C   ALA A   1     -10.323  11.257  63.501  1.00  0.00    -0.408 C  
ATOM     26  O   ALA A   1      -9.290  12.229  63.360  1.00  0.00    -0.657 OA 
ATOM     27  H   ALA A   1      -8.514  11.827  62.989  1.00  0.00     0.000 HD 
ENDBRANCH  23  25
ENDBRANCH  20  23
ENDBRANCH  15  19
TORSDOF 3
ENDMDL
MODEL      137
REMARK 921   NORMALIZED FREE ENERGY PREDICTED BY IDOCK:   -3.41 KCAL/MOL
REMARK 922        TOTAL FREE ENERGY PREDICTED BY IDOCK:   -4.45 KCAL/MOL
REMARK 923 INTER-LIGAND FREE ENERGY PREDICTED BY IDOCK:   -4.12 KCAL/MOL
REMARK 924 INTRA-LIGAND FREE ENERGY PREDICTED BY IDOCK:   -0.34 KCAL/MOL
REMARK 927      BINDING AFFINITY PREDICTED BY RF-SCORE:    0.00 PKD
ROOT
HETATM    1  C   UNK A   0      -9.073   8.343  66.548  1.00  0.00    -0.176 C  
HETATM    2  C   UNK A   0     -10.154   9.249  65.908  1.00  0.00    -0.188 C  
HETATM    3  C   UNK A   0     -10.314  10.438  66.793  1.00  0.00    -0.294 A  
HETATM    4  C   UNK A   0     -11.385  11.133  67.292  1.00  0.00    -0.226 A  
HETATM    5  N   UNK A   0     -10.886  12.199  68.008  1.00  0.00    -0.213 NA 
HETATM    6  C   UNK A   0      -9.505  12.172  68.012  1.00  0.00    -0.201 A  
HETATM    7  H   UNK A   0     -11.456  12.907  68.470  1.00  0.00     0.000 HD 
HETATM    8  C   UNK A   0      -8.538  13.031  68.538  1.00  0.00    -0.049 A  
HETATM    9  C   UNK A   0      -7.200  12.611  68.423  1.00  0.00    -0.111 A  
HETATM   10  C   UNK A   0      -6.855  11.340  67.919  1.00  0.00    -0.068 A  
HETATM   11  C   UNK A   0      -7.851  10.479  67.442  1.00  0.00    -0.106 A  
HETATM   12  C   UNK A   0      -9.158  10.993  67.386  1.00  0.00    -0.143 A  
HETATM   13  C   UNK A   0      -7.825   9.021  67.194  1.00  0.00    -0.099 C  
HETATM   14  C   UNK A   0      -6.986   8.197  67.845  1.00  0.00    -0.078 C  
HETATM   15  C   UNK A   0      -7.450   6.749  68.048  1.00  0.00    -0.099 C  
HETATM   16  C   UNK A   0      -7.823   7.404  64.640  1.00  0.00    -0.123 C  
HETATM   17  C   UNK A   0      -8.094   6.157  66.746  1.00  0.00    -0.109 C  
HETATM   18  N   UNK A   0      -8.688   7.129  65.788  1.00  0.00    -0.262 NA 
ENDROOT
BRANCH  15  19
HETATM   19  C   UNK A   0      -8.474   6.726  69.246  1.00  0.00    -0.129 C  
ATOM     20  N   ALA A   1      -9.644   6.020  68.992  1.00  0.00    -0.129 N  
ATOM     21  H   ALA A   1      -9.889   5.853  68.017  1.00  0.00     0.000 HD 
HETATM   22  O   UNK A   0      -8.287   7.290  70.313  1.00  0.00    -0.131 OA 
BRANCH  20  23
ATOM     23  CA  ALA A   1     -10.557   5.496  70.021  1.00  0.00    -0.314 C  
ATOM     24  CB  ALA A   1      -9.984   4.260  70.712  1.00  0.00    -0.224 C  
BRANCH  23  25
ATOM     25  C   ALA A   1     -11.033   6.531  71.053  1.00  0.00    -0.265 C  
ATOM     26  O   ALA A   1     -11.440   7.727  70.392  1.00  0.00    -0.383 OA 
ATOM     27  H   ALA A   1     -11.734   8.367  71.029  1.00  0.00     0.000 HD 
ENDBRANCH  23  25
ENDBRANCH  20  23
ENDBRANCH  15  19
TORSDOF 3
ENDMDL
MODEL      138
REMARK 921   NORMALIZED FREE ENERGY PREDICTED BY IDOCK:   -3.39 KCAL/MOL
REMARK 922        TOTAL FREE ENERGY PREDICTED BY IDOCK:   -4.43 KCAL/MOL
REMARK 923 INTER-LIGAND FREE ENERGY PREDICTED BY IDOCK:   -3.94 KCAL/MOL
REMARK 924 INTRA-LIGAND FREE ENERGY PREDICTED BY IDOCK:   -0.49 KCAL/MOL
REMARK 927      BINDING AFFINITY PREDICTED BY RF-SCORE:    0.00 PKD
ROOT
HETATM    1  C   UNK A   0      -9.286   8.441  68.015  1.00  0.00    -0.136 C  
HETATM    2  C   UNK A   0     -10.590   8.658  68.822  1.00  0.00    -0.169 C  
HETATM    3  C   UNK A   0     -10.713   7.519  69.777  1.00  0.00    -0.249 A  
HETATM    4  C   UNK A   0     -11.735   6.693  70.167  1.00  0.00    -0.351 A  
HETATM    5  N   UNK A   0     -11.241   5.863  71.149  1.00  0.00    -0.252 NA 
HETATM    6  C   UNK A   0      -9.901   6.116  71.364  1.00  0.00    -0.175 A  
HETATM    7  H   UNK A   0     -11.788   5.161  71.647  1.00  0.00     0.000 HD 
HETATM    8  C   UNK A   0      -8.966   5.600  72.264  1.00  0.00    -0.141 A  
HETATM    9  C   UNK A   0      -7.640   6.046  72.114  1.00  0.00    -0.097 A  
HETATM   10  C   UNK A   0      -7.246   6.871  71.041  1.00  0.00    -0.076 A  
HETATM   11  C   UNK A   0      -8.197   7.337  70.124  1.00  0.00    -0.134 A  
HETATM   12  C   UNK A   0      -9.542   7.039  70.404  1.00  0.00    -0.169 A  
HETATM   13  C   UNK A   0      -8.031   7.900  68.767  1.00  0.00    -0.124 C  
HETATM   14  C   UNK A   0      -6.969   7.609  67.995  1.00  0.00    -0.079 C  
HETATM   15  C   UNK A   0      -7.182   7.649  66.475  1.00  0.00    -0.082 C  
HETATM   16  C   UNK A   0      -8.360  10.703  67.686  1.00  0.00    -0.114 C  
HETATM   17  C   UNK A   0      -8.005   8.909  66.037  1.00  0.00    -0.106 C  
HETATM   18  N   UNK A   0      -8.915   9.505  67.052  1.00  0.00    -0.133 NA 
ENDROOT
BRANCH  15  19
HETATM   19  C   UNK A   0      -7.912   6.319  66.049  1.00  0.00    -0.114 C  
ATOM     20  N   ALA A   1      -8.182   5.448  67.097  1.00  0.00    -0.105 N  
ATOM     21  H   ALA A   1      -7.644   5.564  67.955  1.00  0.00     0.000 HD 
HETATM   22  O   UNK A   0      -8.209   6.044  64.897  1.00  0.00    -0.133 OA 
BRANCH  20  23
ATOM     23  CA  ALA A   1      -9.183   4.369  67.065  1.00  0.00    -0.141 C  
ATOM     24  CB  ALA A   1      -8.973   3.366  68.198  1.00  0.00    -0.182 C  
BRANCH  23  25
ATOM     25  C   ALA A   1     -10.645   4.843  67.016  1.00  0.00    -0.011 C  
ATOM     26  O   ALA A   1     -10.973   5.273  65.697  1.00  0.00    -0.668 OA 
ATOM     27  H   ALA A   1     -11.876   5.567  65.666  1.00  0.00     0.000 HD 
ENDBRANCH  23  25
ENDBRANCH  20  23
ENDBRANCH  15  19
TORSDOF 3
ENDMDL
MODEL      139
REMARK 921   NORMALIZED FREE ENERGY PREDICTED BY IDOCK:   -3.34 KCAL/MOL
REMARK 922        TOTAL FREE ENERGY PREDICTED BY IDOCK:   -4.37 KCAL/MOL
REMARK 923 INTER-LIGAND FREE ENERGY PREDICTED BY IDOCK:   -3.56 KCAL/MOL
REMARK 924 INTRA-LIGAND FREE ENERGY PREDICTED BY IDOCK:   -0.81 KCAL/MOL
REMARK 927      BINDING AFFINITY PREDICTED BY RF-SCORE:    0.00 PKD
ROOT
HETATM    1  C   UNK A   0      -8.786   4.541  70.974  1.00  0.00    -0.115 C  
HETATM    2  C   UNK A   0     -10.200   5.083  71.303  1.00  0.00    -0.273 C  
HETATM    3  C   UNK A   0     -10.617   5.951  70.165  1.00  0.00    -0.362 A  
HETATM    4  C   UNK A   0     -11.209   7.182  70.056  1.00  0.00    -0.238 A  
HETATM    5  N   UNK A   0     -11.405   7.428  68.715  1.00  0.00    -0.293 NA 
HETATM    6  C   UNK A   0     -10.905   6.387  67.957  1.00  0.00    -0.316 A  
HETATM    7  H   UNK A   0     -11.856   8.260  68.336  1.00  0.00     0.000 HD 
HETATM    8  C   UNK A   0     -10.898   6.127  66.585  1.00  0.00    -0.279 A  
HETATM    9  C   UNK A   0     -10.192   4.982  66.170  1.00  0.00    -0.288 A  
HETATM   10  C   UNK A   0      -9.430   4.207  67.068  1.00  0.00    -0.215 A  
HETATM   11  C   UNK A   0      -9.417   4.520  68.433  1.00  0.00    -0.209 A  
HETATM   12  C   UNK A   0     -10.281   5.546  68.853  1.00  0.00    -0.284 A  
HETATM   13  C   UNK A   0      -8.479   4.120  69.503  1.00  0.00    -0.093 C  
HETATM   14  C   UNK A   0      -7.203   3.780  69.249  1.00  0.00    -0.049 C  
HETATM   15  C   UNK A   0      -6.179   4.039  70.363  1.00  0.00    -0.019 C  
HETATM   16  C   UNK A   0      -8.771   2.236  71.849  1.00  0.00    -0.068 C  
HETATM   17  C   UNK A   0      -6.723   3.600  71.766  1.00  0.00    -0.023 C  
HETATM   18  N   UNK A   0      -8.200   3.581  71.939  1.00  0.00    -0.063 NA 
ENDROOT
BRANCH  15  19
HETATM   19  C   UNK A   0      -5.820   5.574  70.350  1.00  0.00    -0.021 C  
ATOM     20  N   ALA A   1      -6.129   6.229  69.163  1.00  0.00    -0.028 N  
ATOM     21  H   ALA A   1      -6.255   5.655  68.329  1.00  0.00     0.000 HD 
HETATM   22  O   UNK A   0      -5.295   6.159  71.284  1.00  0.00    -0.017 OA 
BRANCH  20  23
ATOM     23  CA  ALA A   1      -6.288   7.684  69.016  1.00  0.00    -0.036 C  
ATOM     24  CB  ALA A   1      -6.135   8.128  67.562  1.00  0.00    -0.051 C  
BRANCH  23  25
ATOM     25  C   ALA A   1      -7.572   8.261  69.633  1.00  0.00    -0.094 C  
ATOM     26  O   ALA A   1      -8.503   8.590  68.604  1.00  0.00    -0.128 OA 
ATOM     27  H   ALA A   1      -9.296   8.947  68.985  1.00  0.00     0.000 HD 
ENDBRANCH  23  25
ENDBRANCH  20  23
ENDBRANCH  15  19
TORSDOF 3
ENDMDL
MODEL      140
REMARK 921   NORMALIZED FREE ENERGY PREDICTED BY IDOCK:   -3.21 KCAL/MOL
REMARK 922        TOTAL FREE ENERGY PREDICTED BY IDOCK:   -4.22 KCAL/MOL
REMARK 923 INTER-LIGAND FREE ENERGY PREDICTED BY IDOCK:   -3.44 KCAL/MOL
REMARK 924 INTRA-LIGAND FREE ENERGY PREDICTED BY IDOCK:   -0.78 KCAL/MOL
REMARK 927      BINDING AFFINITY PREDICTED BY RF-SCORE:    0.00 PKD
ROOT
HETATM    1  C   UNK A   0      -9.120   8.421  69.103  1.00  0.00    -0.147 C  
HETATM    2  C   UNK A   0     -10.560   7.861  68.989  1.00  0.00    -0.177 C  
HETATM    3  C   UNK A   0     -10.544   6.813  67.928  1.00  0.00    -0.296 A  
HETATM    4  C   UNK A   0     -11.357   6.498  66.871  1.00  0.00     0.083 A  
HETATM    5  N   UNK A   0     -10.847   5.360  66.285  1.00  0.00    -0.697 NA 
HETATM    6  C   UNK A   0      -9.689   4.966  66.926  1.00  0.00    -0.179 A  
HETATM    7  H   UNK A   0     -11.265   4.878  65.490  1.00  0.00     0.000 HD 
HETATM    8  C   UNK A   0      -8.833   3.875  66.761  1.00  0.00    -0.130 A  
HETATM    9  C   UNK A   0      -7.674   3.863  67.559  1.00  0.00    -0.075 A  
HETATM   10  C   UNK A   0      -7.326   4.948  68.390  1.00  0.00    -0.066 A  
HETATM   11  C   UNK A   0      -8.181   6.052  68.500  1.00  0.00    -0.110 A  
HETATM   12  C   UNK A   0      -9.423   5.957  67.847  1.00  0.00    -0.112 A  
HETATM   13  C   UNK A   0      -7.926   7.421  68.996  1.00  0.00    -0.122 C  
HETATM   14  C   UNK A   0      -6.702   7.976  68.973  1.00  0.00    -0.052 C  
HETATM   15  C   UNK A   0      -6.633   9.505  68.850  1.00  0.00    -0.047 C  
HETATM   16  C   UNK A   0      -8.798   8.858  71.509  1.00  0.00    -0.183 C  
HETATM   17  C   UNK A   0      -7.671  10.211  69.788  1.00  0.00    -0.168 C  
HETATM   18  N   UNK A   0      -8.880   9.429  70.163  1.00  0.00    -0.204 NA 
ENDROOT
BRANCH  15  19
HETATM   19  C   UNK A   0      -6.883   9.885  67.340  1.00  0.00    -0.082 C  
ATOM     20  N   ALA A   1      -6.433   8.941  66.425  1.00  0.00    -0.065 N  
ATOM     21  H   ALA A   1      -5.734   8.271  66.747  1.00  0.00     0.000 HD 
HETATM   22  O   UNK A   0      -7.408  10.926  66.978  1.00  0.00    -0.105 OA 
BRANCH  20  23
ATOM     23  CA  ALA A   1      -6.885   8.833  65.029  1.00  0.00    -0.072 C  
ATOM     24  CB  ALA A   1      -5.974   7.923  64.206  1.00  0.00    -0.053 C  
BRANCH  23  25
ATOM     25  C   ALA A   1      -8.360   8.436  64.854  1.00  0.00    -0.149 C  
ATOM     26  O   ALA A   1      -9.165   9.603  64.712  1.00  0.00    -0.234 OA 
ATOM     27  H   ALA A   1     -10.077   9.359  64.605  1.00  0.00     0.000 HD 
ENDBRANCH  23  25
ENDBRANCH  20  23
ENDBRANCH  15  19
TORSDOF 3
ENDMDL
MODEL      141
REMARK 921   NORMALIZED FREE ENERGY PREDICTED BY IDOCK:   -3.20 KCAL/MOL
REMARK 922        TOTAL FREE ENERGY PREDICTED BY IDOCK:   -4.20 KCAL/MOL
REMARK 923 INTER-LIGAND FREE ENERGY PREDICTED BY IDOCK:   -3.77 KCAL/MOL
REMARK 924 INTRA-LIGAND FREE ENERGY PREDICTED BY IDOCK:   -0.44 KCAL/MOL
REMARK 927      BINDING AFFINITY PREDICTED BY RF-SCORE:    0.00 PKD
ROOT
HETATM    1  C   UNK A   0      -8.534   6.989  69.697  1.00  0.00    -0.134 C  
HETATM    2  C   UNK A   0      -7.322   7.946  69.576  1.00  0.00    -0.087 C  
HETATM    3  C   UNK A   0      -7.477   8.696  68.296  1.00  0.00    -0.095 A  
HETATM    4  C   UNK A   0      -6.637   9.035  67.268  1.00  0.00    -0.061 A  
HETATM    5  N   UNK A   0      -7.359   9.805  66.383  1.00  0.00    -0.094 NA 
HETATM    6  C   UNK A   0      -8.667   9.928  66.809  1.00  0.00    -0.128 A  
HETATM    7  H   UNK A   0      -6.981  10.224  65.534  1.00  0.00     0.000 HD 
HETATM    8  C   UNK A   0      -9.768  10.630  66.312  1.00  0.00    -0.245 A  
HETATM    9  C   UNK A   0     -10.990  10.430  66.982  1.00  0.00    -0.222 A  
HETATM   10  C   UNK A   0     -11.130   9.483  68.016  1.00  0.00    -0.056 A  
HETATM   11  C   UNK A   0     -10.018   8.759  68.463  1.00  0.00    -0.200 A  
HETATM   12  C   UNK A   0      -8.772   9.112  67.916  1.00  0.00    -0.128 A  
HETATM   13  C   UNK A   0      -9.935   7.510  69.251  1.00  0.00    -0.179 C  
HETATM   14  C   UNK A   0     -10.924   6.599  69.257  1.00  0.00    -0.346 C  
HETATM   15  C   UNK A   0     -10.523   5.138  69.500  1.00  0.00    -0.233 C  
HETATM   16  C   UNK A   0      -9.086   6.968  72.101  1.00  0.00    -0.130 C  
HETATM   17  C   UNK A   0      -9.484   5.007  70.667  1.00  0.00    -0.169 C  
HETATM   18  N   UNK A   0      -8.631   6.194  70.945  1.00  0.00    -0.131 NA 
ENDROOT
BRANCH  15  19
HETATM   19  C   UNK A   0      -9.939   4.560  68.155  1.00  0.00    -0.031 C  
ATOM     20  N   ALA A   1     -10.472   5.128  67.004  1.00  0.00    -0.223 N  
ATOM     21  H   ALA A   1     -11.368   5.609  67.089  1.00  0.00     0.000 HD 
HETATM   22  O   UNK A   0      -9.102   3.673  68.100  1.00  0.00    -0.122 OA 
BRANCH  20  23
ATOM     23  CA  ALA A   1      -9.846   5.090  65.672  1.00  0.00    -0.085 C  
ATOM     24  CB  ALA A   1      -8.324   5.192  65.756  1.00  0.00    -0.120 C  
BRANCH  23  25
ATOM     25  C   ALA A   1     -10.269   3.903  64.792  1.00  0.00    -0.188 C  
ATOM     26  O   ALA A   1      -9.841   2.679  65.384  1.00  0.00    -0.358 OA 
ATOM     27  H   ALA A   1     -10.102   1.946  64.840  1.00  0.00     0.000 HD 
ENDBRANCH  23  25
ENDBRANCH  20  23
ENDBRANCH  15  19
TORSDOF 3
ENDMDL
MODEL      142
REMARK 921   NORMALIZED FREE ENERGY PREDICTED BY IDOCK:   -3.19 KCAL/MOL
REMARK 922        TOTAL FREE ENERGY PREDICTED BY IDOCK:   -4.19 KCAL/MOL
REMARK 923 INTER-LIGAND FREE ENERGY PREDICTED BY IDOCK:   -3.94 KCAL/MOL
REMARK 924 INTRA-LIGAND FREE ENERGY PREDICTED BY IDOCK:   -0.25 KCAL/MOL
REMARK 927      BINDING AFFINITY PREDICTED BY RF-SCORE:    0.00 PKD
ROOT
HETATM    1  C   UNK A   0      -8.350   6.834  68.626  1.00  0.00    -0.120 C  
HETATM    2  C   UNK A   0      -7.191   6.264  69.482  1.00  0.00    -0.078 C  
HETATM    3  C   UNK A   0      -7.280   6.900  70.827  1.00  0.00    -0.069 A  
HETATM    4  C   UNK A   0      -6.376   7.461  71.692  1.00  0.00    -0.039 A  
HETATM    5  N   UNK A   0      -7.064   7.822  72.829  1.00  0.00    -0.072 NA 
HETATM    6  C   UNK A   0      -8.409   7.542  72.688  1.00  0.00    -0.117 A  
HETATM    7  H   UNK A   0      -6.641   8.239  73.658  1.00  0.00     0.000 HD 
HETATM    8  C   UNK A   0      -9.503   7.665  73.547  1.00  0.00    -0.347 A  
HETATM    9  C   UNK A   0     -10.764   7.359  73.001  1.00  0.00    -0.413 A  
HETATM   10  C   UNK A   0     -10.936   7.065  71.634  1.00  0.00    -0.258 A  
HETATM   11  C   UNK A   0      -9.825   6.995  70.784  1.00  0.00    -0.190 A  
HETATM   12  C   UNK A   0      -8.561   7.111  71.386  1.00  0.00    -0.116 A  
HETATM   13  C   UNK A   0      -9.736   7.050  69.309  1.00  0.00    -0.158 C  
HETATM   14  C   UNK A   0     -10.666   7.665  68.557  1.00  0.00    -0.094 C  
HETATM   15  C   UNK A   0     -10.201   8.253  67.217  1.00  0.00    -0.344 C  
HETATM   16  C   UNK A   0      -9.105   4.940  67.239  1.00  0.00    -0.116 C  
HETATM   17  C   UNK A   0      -9.260   7.265  66.445  1.00  0.00    -0.159 C  
HETATM   18  N   UNK A   0      -8.507   6.276  67.262  1.00  0.00    -0.109 NA 
ENDROOT
BRANCH  15  19
HETATM   19  C   UNK A   0      -9.470   9.619  67.510  1.00  0.00    -0.134 C  
ATOM     20  N   ALA A   1      -8.414   9.903  66.652  1.00  0.00    -0.124 N  
ATOM     21  H   ALA A   1      -8.003   9.124  66.138  1.00  0.00     0.000 HD 
HETATM   22  O   UNK A   0      -9.774  10.373  68.421  1.00  0.00    -0.150 OA 
BRANCH  20  23
ATOM     23  CA  ALA A   1      -7.841  11.240  66.428  1.00  0.00    -0.109 C  
ATOM     24  CB  ALA A   1      -8.927  12.296  66.225  1.00  0.00    -0.068 C  
BRANCH  23  25
ATOM     25  C   ALA A   1      -6.824  11.695  67.487  1.00  0.00    -0.104 C  
ATOM     26  O   ALA A   1      -5.807  12.487  66.878  1.00  0.00    -0.454 OA 
ATOM     27  H   ALA A   1      -5.179  12.768  67.532  1.00  0.00     0.000 HD 
ENDBRANCH  23  25
ENDBRANCH  20  23
ENDBRANCH  15  19
TORSDOF 3
ENDMDL
MODEL      143
REMARK 921   NORMALIZED FREE ENERGY PREDICTED BY IDOCK:   -3.18 KCAL/MOL
REMARK 922        TOTAL FREE ENERGY PREDICTED BY IDOCK:   -4.18 KCAL/MOL
REMARK 923 INTER-LIGAND FREE ENERGY PREDICTED BY IDOCK:   -3.76 KCAL/MOL
REMARK 924 INTRA-LIGAND FREE ENERGY PREDICTED BY IDOCK:   -0.42 KCAL/MOL
REMARK 927      BINDING AFFINITY PREDICTED BY RF-SCORE:    0.00 PKD
ROOT
HETATM    1  C   UNK A   0      -9.984   6.751  70.674  1.00  0.00    -0.187 C  
HETATM    2  C   UNK A   0     -10.704   5.471  70.182  1.00  0.00    -0.348 C  
HETATM    3  C   UNK A   0      -9.670   4.588  69.571  1.00  0.00    -0.282 A  
HETATM    4  C   UNK A   0      -9.594   3.838  68.426  1.00  0.00    -0.105 A  
HETATM    5  N   UNK A   0      -8.387   3.175  68.448  1.00  0.00    -0.072 NA 
HETATM    6  C   UNK A   0      -7.666   3.524  69.572  1.00  0.00    -0.051 A  
HETATM    7  H   UNK A   0      -8.071   2.519  67.734  1.00  0.00     0.000 HD 
HETATM    8  C   UNK A   0      -6.434   3.107  70.081  1.00  0.00    -0.032 A  
HETATM    9  C   UNK A   0      -5.973   3.776  71.230  1.00  0.00    -0.014 A  
HETATM   10  C   UNK A   0      -6.650   4.889  71.770  1.00  0.00    -0.032 A  
HETATM   11  C   UNK A   0      -7.860   5.316  71.210  1.00  0.00    -0.107 A  
HETATM   12  C   UNK A   0      -8.400   4.517  70.187  1.00  0.00    -0.080 A  
HETATM   13  C   UNK A   0      -8.579   6.602  71.337  1.00  0.00    -0.125 C  
HETATM   14  C   UNK A   0      -7.947   7.752  71.626  1.00  0.00    -0.104 C  
HETATM   15  C   UNK A   0      -8.577   9.046  71.094  1.00  0.00    -0.250 C  
HETATM   16  C   UNK A   0     -11.131   7.359  72.770  1.00  0.00    -0.346 C  
HETATM   17  C   UNK A   0     -10.130   9.065  71.303  1.00  0.00    -0.314 C  
HETATM   18  N   UNK A   0     -10.813   7.746  71.395  1.00  0.00    -0.227 NA 
ENDROOT
BRANCH  15  19
HETATM   19  C   UNK A   0      -8.210   9.177  69.566  1.00  0.00    -0.120 C  
ATOM     20  N   ALA A   1      -9.194   9.770  68.785  1.00  0.00    -0.139 N  
ATOM     21  H   ALA A   1     -10.144   9.784  69.157  1.00  0.00     0.000 HD 
HETATM   22  O   UNK A   0      -7.162   8.779  69.081  1.00  0.00    -0.065 OA 
BRANCH  20  23
ATOM     23  CA  ALA A   1      -8.975  10.379  67.464  1.00  0.00    -0.135 C  
ATOM     24  CB  ALA A   1      -8.931   9.329  66.354  1.00  0.00    -0.185 C  
BRANCH  23  25
ATOM     25  C   ALA A   1      -9.945  11.516  67.105  1.00  0.00    -0.199 C  
ATOM     26  O   ALA A   1      -9.675  11.991  65.789  1.00  0.00    -0.240 OA 
ATOM     27  H   ALA A   1     -10.274  12.694  65.567  1.00  0.00     0.000 HD 
ENDBRANCH  23  25
ENDBRANCH  20  23
ENDBRANCH  15  19
TORSDOF 3
ENDMDL
MODEL      144
REMARK 921   NORMALIZED FREE ENERGY PREDICTED BY IDOCK:   -3.13 KCAL/MOL
REMARK 922        TOTAL FREE ENERGY PREDICTED BY IDOCK:   -4.12 KCAL/MOL
REMARK 923 INTER-LIGAND FREE ENERGY PREDICTED BY IDOCK:   -3.55 KCAL/MOL
REMARK 924 INTRA-LIGAND FREE ENERGY PREDICTED BY IDOCK:   -0.58 KCAL/MOL
REMARK 927      BINDING AFFINITY PREDICTED BY RF-SCORE:    0.00 PKD
ROOT
HETATM    1  C   UNK A   0      -9.892   5.262  70.137  1.00  0.00    -0.220 C  
HETATM    2  C   UNK A   0     -10.026   4.322  71.360  1.00  0.00    -0.238 C  
HETATM    3  C   UNK A   0      -8.646   3.997  71.821  1.00  0.00    -0.117 A  
HETATM    4  C   UNK A   0      -8.003   2.851  72.210  1.00  0.00    -0.055 A  
HETATM    5  N   UNK A   0      -6.728   3.204  72.595  1.00  0.00    -0.025 NA 
HETATM    6  C   UNK A   0      -6.530   4.559  72.417  1.00  0.00    -0.026 A  
HETATM    7  H   UNK A   0      -6.030   2.557  72.961  1.00  0.00     0.000 HD 
HETATM    8  C   UNK A   0      -5.457   5.409  72.694  1.00  0.00    -0.018 A  
HETATM    9  C   UNK A   0      -5.593   6.745  72.272  1.00  0.00    -0.037 A  
HETATM   10  C   UNK A   0      -6.692   7.179  71.504  1.00  0.00    -0.051 A  
HETATM   11  C   UNK A   0      -7.732   6.292  71.199  1.00  0.00    -0.102 A  
HETATM   12  C   UNK A   0      -7.671   5.019  71.793  1.00  0.00    -0.107 A  
HETATM   13  C   UNK A   0      -8.789   6.364  70.167  1.00  0.00    -0.150 C  
HETATM   14  C   UNK A   0      -8.634   7.065  69.030  1.00  0.00    -0.129 C  
HETATM   15  C   UNK A   0      -9.403   6.571  67.798  1.00  0.00    -0.118 C  
HETATM   16  C   UNK A   0     -11.766   6.851  70.350  1.00  0.00    -0.325 C  
HETATM   17  C   UNK A   0     -10.881   6.186  68.151  1.00  0.00    -0.306 C  
HETATM   18  N   UNK A   0     -11.154   5.784  69.558  1.00  0.00    -0.324 NA 
ENDROOT
BRANCH  15  19
HETATM   19  C   UNK A   0      -8.625   5.339  67.196  1.00  0.00    -0.105 C  
ATOM     20  N   ALA A   1      -9.419   4.229  66.932  1.00  0.00    -0.173 N  
ATOM     21  H   ALA A   1     -10.319   4.171  67.408  1.00  0.00     0.000 HD 
HETATM   22  O   UNK A   0      -7.422   5.328  66.990  1.00  0.00    -0.085 OA 
BRANCH  20  23
ATOM     23  CA  ALA A   1      -9.062   3.131  66.019  1.00  0.00    -0.147 C  
ATOM     24  CB  ALA A   1      -9.157   1.769  66.704  1.00  0.00    -0.062 C  
BRANCH  23  25
ATOM     25  C   ALA A   1      -9.822   3.127  64.682  1.00  0.00    -0.094 C  
ATOM     26  O   ALA A   1     -10.989   3.941  64.782  1.00  0.00    -0.534 OA 
ATOM     27  H   ALA A   1     -11.459   3.938  63.957  1.00  0.00     0.000 HD 
ENDBRANCH  23  25
ENDBRANCH  20  23
ENDBRANCH  15  19
TORSDOF 3
ENDMDL
MODEL      145
REMARK 921   NORMALIZED FREE ENERGY PREDICTED BY IDOCK:   -3.13 KCAL/MOL
REMARK 922        TOTAL FREE ENERGY PREDICTED BY IDOCK:   -4.12 KCAL/MOL
REMARK 923 INTER-LIGAND FREE ENERGY PREDICTED BY IDOCK:   -3.85 KCAL/MOL
REMARK 924 INTRA-LIGAND FREE ENERGY PREDICTED BY IDOCK:   -0.27 KCAL/MOL
REMARK 927      BINDING AFFINITY PREDICTED BY RF-SCORE:    0.00 PKD
ROOT
HETATM    1  C   UNK A   0      -7.321  10.985  68.154  1.00  0.00    -0.086 C  
HETATM    2  C   UNK A   0      -7.426  12.530  68.105  1.00  0.00    -0.117 C  
HETATM    3  C   UNK A   0      -8.865  12.869  67.910  1.00  0.00    -0.190 A  
HETATM    4  C   UNK A   0      -9.549  13.748  67.111  1.00  0.00    -0.244 A  
HETATM    5  N   UNK A   0     -10.883  13.647  67.438  1.00  0.00    -0.270 NA 
HETATM    6  C   UNK A   0     -11.070  12.681  68.407  1.00  0.00    -0.265 A  
HETATM    7  H   UNK A   0     -11.628  14.207  67.022  1.00  0.00     0.000 HD 
HETATM    8  C   UNK A   0     -12.196  12.236  69.103  1.00  0.00    -0.075 A  
HETATM    9  C   UNK A   0     -12.004  11.141  69.967  1.00  0.00    -0.447 A  
HETATM   10  C   UNK A   0     -10.779  10.449  70.036  1.00  0.00    -0.321 A  
HETATM   11  C   UNK A   0      -9.678  10.889  69.290  1.00  0.00    -0.087 A  
HETATM   12  C   UNK A   0      -9.835  12.095  68.586  1.00  0.00    -0.110 A  
HETATM   13  C   UNK A   0      -8.431  10.191  68.910  1.00  0.00    -0.139 C  
HETATM   14  C   UNK A   0      -8.360   8.852  68.811  1.00  0.00    -0.123 C  
HETATM   15  C   UNK A   0      -7.338   8.281  67.818  1.00  0.00    -0.093 C  
HETATM   16  C   UNK A   0      -5.569  10.521  69.827  1.00  0.00    -0.041 C  
HETATM   17  C   UNK A   0      -5.959   9.020  67.914  1.00  0.00    -0.050 C  
HETATM   18  N   UNK A   0      -5.979  10.418  68.425  1.00  0.00    -0.040 NA 
ENDROOT
BRANCH  15  19
HETATM   19  C   UNK A   0      -7.945   8.401  66.368  1.00  0.00    -0.099 C  
ATOM     20  N   ALA A   1      -7.236   9.235  65.513  1.00  0.00    -0.085 N  
ATOM     21  H   ALA A   1      -6.607   9.917  65.937  1.00  0.00     0.000 HD 
HETATM   22  O   UNK A   0      -8.964   7.833  66.007  1.00  0.00    -0.169 OA 
BRANCH  20  23
ATOM     23  CA  ALA A   1      -7.321   9.213  64.044  1.00  0.00    -0.100 C  
ATOM     24  CB  ALA A   1      -6.907   7.858  63.472  1.00  0.00    -0.075 C  
BRANCH  23  25
ATOM     25  C   ALA A   1      -8.673   9.663  63.467  1.00  0.00    -0.222 C  
ATOM     26  O   ALA A   1      -9.253   8.607  62.705  1.00  0.00    -0.401 OA 
ATOM     27  H   ALA A   1     -10.088   8.884  62.348  1.00  0.00     0.000 HD 
ENDBRANCH  23  25
ENDBRANCH  20  23
ENDBRANCH  15  19
TORSDOF 3
ENDMDL
MODEL      146
REMARK 921   NORMALIZED FREE ENERGY PREDICTED BY IDOCK:   -3.12 KCAL/MOL
REMARK 922        TOTAL FREE ENERGY PREDICTED BY IDOCK:   -4.12 KCAL/MOL
REMARK 923 INTER-LIGAND FREE ENERGY PREDICTED BY IDOCK:   -3.76 KCAL/MOL
REMARK 924 INTRA-LIGAND FREE ENERGY PREDICTED BY IDOCK:   -0.35 KCAL/MOL
REMARK 927      BINDING AFFINITY PREDICTED BY RF-SCORE:    0.00 PKD
ROOT
HETATM    1  C   UNK A   0      -9.348   8.130  69.974  1.00  0.00    -0.159 C  
HETATM    2  C   UNK A   0      -8.355   8.519  71.098  1.00  0.00    -0.182 C  
HETATM    3  C   UNK A   0      -7.233   9.263  70.458  1.00  0.00    -0.111 A  
HETATM    4  C   UNK A   0      -5.867   9.233  70.569  1.00  0.00    -0.044 A  
HETATM    5  N   UNK A   0      -5.366  10.225  69.755  1.00  0.00    -0.037 NA 
HETATM    6  C   UNK A   0      -6.392  10.864  69.087  1.00  0.00    -0.058 A  
HETATM    7  H   UNK A   0      -4.377  10.454  69.659  1.00  0.00     0.000 HD 
HETATM    8  C   UNK A   0      -6.425  11.946  68.205  1.00  0.00    -0.052 A  
HETATM    9  C   UNK A   0      -7.678  12.256  67.643  1.00  0.00    -0.144 A  
HETATM   10  C   UNK A   0      -8.814  11.449  67.857  1.00  0.00    -0.149 A  
HETATM   11  C   UNK A   0      -8.740  10.341  68.710  1.00  0.00    -0.144 A  
HETATM   12  C   UNK A   0      -7.535  10.163  69.411  1.00  0.00    -0.119 A  
HETATM   13  C   UNK A   0      -9.629   9.167  68.843  1.00  0.00    -0.152 C  
HETATM   14  C   UNK A   0     -10.396   8.729  67.829  1.00  0.00    -0.297 C  
HETATM   15  C   UNK A   0     -10.726   7.230  67.802  1.00  0.00    -0.267 C  
HETATM   16  C   UNK A   0     -11.581   8.341  70.998  1.00  0.00    -0.275 C  
HETATM   17  C   UNK A   0     -11.125   6.698  69.222  1.00  0.00    -0.289 C  
HETATM   18  N   UNK A   0     -10.593   7.445  70.394  1.00  0.00    -0.223 NA 
ENDROOT
BRANCH  15  19
HETATM   19  C   UNK A   0      -9.469   6.462  67.242  1.00  0.00    -0.123 C  
ATOM     20  N   ALA A   1      -9.349   6.484  65.858  1.00  0.00    -0.375 N  
ATOM     21  H   ALA A   1     -10.187   6.697  65.317  1.00  0.00     0.000 HD 
HETATM   22  O   UNK A   0      -8.663   5.872  67.944  1.00  0.00    -0.106 OA 
BRANCH  20  23
ATOM     23  CA  ALA A   1      -8.108   6.223  65.111  1.00  0.00    -0.130 C  
ATOM     24  CB  ALA A   1      -8.353   5.331  63.895  1.00  0.00    -0.122 C  
BRANCH  23  25
ATOM     25  C   ALA A   1      -7.312   7.479  64.718  1.00  0.00    -0.080 C  
ATOM     26  O   ALA A   1      -7.757   7.962  63.453  1.00  0.00    -0.126 OA 
ATOM     27  H   ALA A   1      -7.265   8.737  63.210  1.00  0.00     0.000 HD 
ENDBRANCH  23  25
ENDBRANCH  20  23
ENDBRANCH  15  19
TORSDOF 3
ENDMDL
MODEL      147
REMARK 921   NORMALIZED FREE ENERGY PREDICTED BY IDOCK:   -3.12 KCAL/MOL
REMARK 922        TOTAL FREE ENERGY PREDICTED BY IDOCK:   -4.11 KCAL/MOL
REMARK 923 INTER-LIGAND FREE ENERGY PREDICTED BY IDOCK:   -3.57 KCAL/MOL
REMARK 924 INTRA-LIGAND FREE ENERGY PREDICTED BY IDOCK:   -0.54 KCAL/MOL
REMARK 927      BINDING AFFINITY PREDICTED BY RF-SCORE:    0.00 PKD
ROOT
HETATM    1  C   UNK A   0      -8.960   9.241  69.582  1.00  0.00    -0.160 C  
HETATM    2  C   UNK A   0      -8.009  10.463  69.566  1.00  0.00    -0.152 C  
HETATM    3  C   UNK A   0      -7.310  10.463  68.249  1.00  0.00    -0.088 A  
HETATM    4  C   UNK A   0      -6.015  10.651  67.844  1.00  0.00    -0.043 A  
HETATM    5  N   UNK A   0      -6.002  10.598  66.467  1.00  0.00    -0.076 NA 
HETATM    6  C   UNK A   0      -7.269  10.335  65.984  1.00  0.00    -0.128 A  
HETATM    7  H   UNK A   0      -5.175  10.735  65.887  1.00  0.00     0.000 HD 
HETATM    8  C   UNK A   0      -7.794  10.233  64.694  1.00  0.00    -0.123 A  
HETATM    9  C   UNK A   0      -9.144   9.848  64.597  1.00  0.00    -0.288 A  
HETATM   10  C   UNK A   0      -9.895   9.463  65.727  1.00  0.00    -0.345 A  
HETATM   11  C   UNK A   0      -9.328   9.529  67.005  1.00  0.00    -0.183 A  
HETATM   12  C   UNK A   0      -8.047  10.100  67.099  1.00  0.00    -0.120 A  
HETATM   13  C   UNK A   0      -9.736   8.890  68.274  1.00  0.00    -0.174 C  
HETATM   14  C   UNK A   0     -10.445   7.748  68.306  1.00  0.00    -0.215 C  
HETATM   15  C   UNK A   0     -10.247   6.839  69.527  1.00  0.00    -0.202 C  
HETATM   16  C   UNK A   0     -10.961  10.009  70.801  1.00  0.00    -0.305 C  
HETATM   17  C   UNK A   0     -10.233   7.658  70.864  1.00  0.00    -0.199 C  
HETATM   18  N   UNK A   0      -9.825   9.086  70.775  1.00  0.00    -0.221 NA 
ENDROOT
BRANCH  15  19
HETATM   19  C   UNK A   0      -8.897   6.048  69.334  1.00  0.00    -0.120 C  
ATOM     20  N   ALA A   1      -8.199   5.803  70.510  1.00  0.00    -0.116 N  
ATOM     21  H   ALA A   1      -8.419   6.387  71.318  1.00  0.00     0.000 HD 
HETATM   22  O   UNK A   0      -8.468   5.687  68.250  1.00  0.00    -0.105 OA 
BRANCH  20  23
ATOM     23  CA  ALA A   1      -7.166   4.769  70.683  1.00  0.00    -0.049 C  
ATOM     24  CB  ALA A   1      -5.789   5.379  70.940  1.00  0.00    -0.021 C  
BRANCH  23  25
ATOM     25  C   ALA A   1      -7.495   3.694  71.731  1.00  0.00    -0.056 C  
ATOM     26  O   ALA A   1      -8.861   3.304  71.618  1.00  0.00    -0.082 OA 
ATOM     27  H   ALA A   1      -9.065   2.640  72.265  1.00  0.00     0.000 HD 
ENDBRANCH  23  25
ENDBRANCH  20  23
ENDBRANCH  15  19
TORSDOF 3
ENDMDL
MODEL      148
REMARK 921   NORMALIZED FREE ENERGY PREDICTED BY IDOCK:   -3.06 KCAL/MOL
REMARK 922        TOTAL FREE ENERGY PREDICTED BY IDOCK:   -4.05 KCAL/MOL
REMARK 923 INTER-LIGAND FREE ENERGY PREDICTED BY IDOCK:   -3.84 KCAL/MOL
REMARK 924 INTRA-LIGAND FREE ENERGY PREDICTED BY IDOCK:   -0.20 KCAL/MOL
REMARK 927      BINDING AFFINITY PREDICTED BY RF-SCORE:    0.00 PKD
ROOT
HETATM    1  C   UNK A   0      -7.156  10.626  68.225  1.00  0.00    -0.081 C  
HETATM    2  C   UNK A   0      -7.397  12.074  67.733  1.00  0.00    -0.113 C  
HETATM    3  C   UNK A   0      -8.851  12.201  67.427  1.00  0.00    -0.181 A  
HETATM    4  C   UNK A   0      -9.578  12.744  66.400  1.00  0.00    -0.254 A  
HETATM    5  N   UNK A   0     -10.910  12.610  66.723  1.00  0.00    -0.246 NA 
HETATM    6  C   UNK A   0     -11.050  11.948  67.927  1.00  0.00    -0.242 A  
HETATM    7  H   UNK A   0     -11.684  12.953  66.154  1.00  0.00     0.000 HD 
HETATM    8  C   UNK A   0     -12.159  11.611  68.706  1.00  0.00    -0.221 A  
HETATM    9  C   UNK A   0     -11.906  10.832  69.850  1.00  0.00    -0.413 A  
HETATM   10  C   UNK A   0     -10.627  10.312  70.133  1.00  0.00    -0.303 A  
HETATM   11  C   UNK A   0      -9.540  10.626  69.307  1.00  0.00    -0.164 A  
HETATM   12  C   UNK A   0      -9.775  11.561  68.284  1.00  0.00    -0.198 A  
HETATM   13  C   UNK A   0      -8.220   9.975  69.162  1.00  0.00    -0.137 C  
HETATM   14  C   UNK A   0      -8.025   8.678  69.453  1.00  0.00    -0.102 C  
HETATM   15  C   UNK A   0      -6.916   7.950  68.681  1.00  0.00    -0.071 C  
HETATM   16  C   UNK A   0      -5.441  10.832  69.986  1.00  0.00    -0.057 C  
HETATM   17  C   UNK A   0      -5.614   8.818  68.580  1.00  0.00    -0.038 C  
HETATM   18  N   UNK A   0      -5.780  10.294  68.667  1.00  0.00    -0.038 NA 
ENDROOT
BRANCH  15  19
HETATM   19  C   UNK A   0      -7.470   7.591  67.250  1.00  0.00    -0.100 C  
ATOM     20  N   ALA A   1      -7.974   6.302  67.133  1.00  0.00    -0.108 N  
ATOM     21  H   ALA A   1      -7.679   5.617  67.829  1.00  0.00     0.000 HD 
HETATM   22  O   UNK A   0      -7.452   8.358  66.300  1.00  0.00    -0.086 OA 
BRANCH  20  23
ATOM     23  CA  ALA A   1      -8.899   5.845  66.084  1.00  0.00    -0.147 C  
ATOM     24  CB  ALA A   1      -8.165   5.131  64.950  1.00  0.00    -0.136 C  
BRANCH  23  25
ATOM     25  C   ALA A   1     -10.084   5.004  66.586  1.00  0.00    -0.245 C  
ATOM     26  O   ALA A   1      -9.768   4.422  67.848  1.00  0.00    -0.163 OA 
ATOM     27  H   ALA A   1     -10.500   3.902  68.159  1.00  0.00     0.000 HD 
ENDBRANCH  23  25
ENDBRANCH  20  23
ENDBRANCH  15  19
TORSDOF 3
ENDMDL
MODEL      149
REMARK 921   NORMALIZED FREE ENERGY PREDICTED BY IDOCK:   -3.06 KCAL/MOL
REMARK 922        TOTAL FREE ENERGY PREDICTED BY IDOCK:   -4.05 KCAL/MOL
REMARK 923 INTER-LIGAND FREE ENERGY PREDICTED BY IDOCK:   -3.39 KCAL/MOL
REMARK 924 INTRA-LIGAND FREE ENERGY PREDICTED BY IDOCK:   -0.65 KCAL/MOL
REMARK 927      BINDING AFFINITY PREDICTED BY RF-SCORE:    0.00 PKD
ROOT
HETATM    1  C   UNK A   0      -9.223   9.402  70.092  1.00  0.00    -0.234 C  
HETATM    2  C   UNK A   0      -8.246  10.296  69.288  1.00  0.00    -0.164 C  
HETATM    3  C   UNK A   0      -7.079   9.447  68.911  1.00  0.00    -0.068 A  
HETATM    4  C   UNK A   0      -5.719   9.615  68.925  1.00  0.00    -0.036 A  
HETATM    5  N   UNK A   0      -5.159   8.479  68.383  1.00  0.00    -0.033 NA 
HETATM    6  C   UNK A   0      -6.142   7.564  68.061  1.00  0.00    -0.036 A  
HETATM    7  H   UNK A   0      -4.159   8.335  68.239  1.00  0.00     0.000 HD 
HETATM    8  C   UNK A   0      -6.110   6.307  67.453  1.00  0.00    -0.018 A  
HETATM    9  C   UNK A   0      -7.335   5.617  67.380  1.00  0.00    -0.077 A  
HETATM   10  C   UNK A   0      -8.506   6.106  67.994  1.00  0.00    -0.116 A  
HETATM   11  C   UNK A   0      -8.497   7.349  68.639  1.00  0.00    -0.129 A  
HETATM   12  C   UNK A   0      -7.319   8.107  68.532  1.00  0.00    -0.093 A  
HETATM   13  C   UNK A   0      -9.435   7.929  69.624  1.00  0.00    -0.160 C  
HETATM   14  C   UNK A   0     -10.191   7.165  70.431  1.00  0.00    -0.203 C  
HETATM   15  C   UNK A   0     -10.578   7.760  71.792  1.00  0.00    -0.260 C  
HETATM   16  C   UNK A   0     -11.472  10.152  69.414  1.00  0.00    -0.142 C  
HETATM   17  C   UNK A   0     -11.034   9.254  71.664  1.00  0.00    -0.363 C  
HETATM   18  N   UNK A   0     -10.505  10.022  70.504  1.00  0.00    -0.382 NA 
ENDROOT
BRANCH  15  19
HETATM   19  C   UNK A   0      -9.337   7.627  72.755  1.00  0.00    -0.182 C  
ATOM     20  N   ALA A   1      -8.821   6.341  72.857  1.00  0.00    -0.126 N  
ATOM     21  H   ALA A   1      -9.428   5.568  72.583  1.00  0.00     0.000 HD 
HETATM   22  O   UNK A   0      -8.862   8.557  73.386  1.00  0.00    -0.301 OA 
BRANCH  20  23
ATOM     23  CA  ALA A   1      -7.469   6.005  73.331  1.00  0.00    -0.093 C  
ATOM     24  CB  ALA A   1      -7.276   4.497  73.476  1.00  0.00    -0.080 C  
BRANCH  23  25
ATOM     25  C   ALA A   1      -6.324   6.629  72.516  1.00  0.00    -0.054 C  
ATOM     26  O   ALA A   1      -6.441   6.255  71.145  1.00  0.00    -0.046 OA 
ATOM     27  H   ALA A   1      -5.734   6.640  70.642  1.00  0.00     0.000 HD 
ENDBRANCH  23  25
ENDBRANCH  20  23
ENDBRANCH  15  19
TORSDOF 3
ENDMDL
MODEL      150
REMARK 921   NORMALIZED FREE ENERGY PREDICTED BY IDOCK:   -2.98 KCAL/MOL
REMARK 922        TOTAL FREE ENERGY PREDICTED BY IDOCK:   -3.95 KCAL/MOL
REMARK 923 INTER-LIGAND FREE ENERGY PREDICTED BY IDOCK:   -3.44 KCAL/MOL
REMARK 924 INTRA-LIGAND FREE ENERGY PREDICTED BY IDOCK:   -0.51 KCAL/MOL
REMARK 927      BINDING AFFINITY PREDICTED BY RF-SCORE:    0.00 PKD
ROOT
HETATM    1  C   UNK A   0      -8.318   6.868  69.597  1.00  0.00    -0.133 C  
HETATM    2  C   UNK A   0      -9.862   6.749  69.543  1.00  0.00    -0.164 C  
HETATM    3  C   UNK A   0     -10.214   6.159  68.220  1.00  0.00    -0.207 A  
HETATM    4  C   UNK A   0     -11.152   6.434  67.259  1.00  0.00    -0.330 A  
HETATM    5  N   UNK A   0     -11.024   5.479  66.274  1.00  0.00    -0.751 NA 
HETATM    6  C   UNK A   0      -9.984   4.620  66.569  1.00  0.00    -0.242 A  
HETATM    7  H   UNK A   0     -11.614   5.417  65.445  1.00  0.00     0.000 HD 
HETATM    8  C   UNK A   0      -9.482   3.480  65.937  1.00  0.00    -0.143 A  
HETATM    9  C   UNK A   0      -8.322   2.914  66.498  1.00  0.00    -0.095 A  
HETATM   10  C   UNK A   0      -7.628   3.528  67.560  1.00  0.00    -0.070 A  
HETATM   11  C   UNK A   0      -8.128   4.699  68.144  1.00  0.00    -0.088 A  
HETATM   12  C   UNK A   0      -9.387   5.138  67.699  1.00  0.00    -0.134 A  
HETATM   13  C   UNK A   0      -7.465   5.709  68.996  1.00  0.00    -0.083 C  
HETATM   14  C   UNK A   0      -6.139   5.923  68.954  1.00  0.00    -0.028 C  
HETATM   15  C   UNK A   0      -5.650   7.335  69.305  1.00  0.00    -0.015 C  
HETATM   16  C   UNK A   0      -7.725   6.360  71.936  1.00  0.00    -0.096 C  
HETATM   17  C   UNK A   0      -6.381   7.906  70.569  1.00  0.00    -0.037 C  
HETATM   18  N   UNK A   0      -7.734   7.360  70.867  1.00  0.00    -0.087 NA 
ENDROOT
BRANCH  15  19
HETATM   19  C   UNK A   0      -5.884   8.260  68.050  1.00  0.00    -0.042 C  
ATOM     20  N   ALA A   1      -6.581   9.432  68.319  1.00  0.00    -0.058 N  
ATOM     21  H   ALA A   1      -7.136   9.463  69.174  1.00  0.00     0.000 HD 
HETATM   22  O   UNK A   0      -5.512   7.983  66.921  1.00  0.00    -0.031 OA 
BRANCH  20  23
ATOM     23  CA  ALA A   1      -6.581  10.632  67.467  1.00  0.00    -0.065 C  
ATOM     24  CB  ALA A   1      -7.944  10.870  66.820  1.00  0.00    -0.143 C  
BRANCH  23  25
ATOM     25  C   ALA A   1      -6.066  11.910  68.149  1.00  0.00    -0.051 C  
ATOM     26  O   ALA A   1      -5.625  12.843  67.166  1.00  0.00    -0.344 OA 
ATOM     27  H   ALA A   1      -5.307  13.633  67.586  1.00  0.00     0.000 HD 
ENDBRANCH  23  25
ENDBRANCH  20  23
ENDBRANCH  15  19
TORSDOF 3
ENDMDL
MODEL      151
REMARK 921   NORMALIZED FREE ENERGY PREDICTED BY IDOCK:   -2.97 KCAL/MOL
REMARK 922        TOTAL FREE ENERGY PREDICTED BY IDOCK:   -3.93 KCAL/MOL
REMARK 923 INTER-LIGAND FREE ENERGY PREDICTED BY IDOCK:   -4.31 KCAL/MOL
REMARK 924 INTRA-LIGAND FREE ENERGY PREDICTED BY IDOCK:    0.38 KCAL/MOL
REMARK 927      BINDING AFFINITY PREDICTED BY RF-SCORE:    0.00 PKD
ROOT
HETATM    1  C   UNK A   0      -9.705  15.522  67.816  1.00  0.00    -0.211 C  
HETATM    2  C   UNK A   0     -10.849  14.709  67.161  1.00  0.00    -0.303 C  
HETATM    3  C   UNK A   0     -11.538  13.959  68.251  1.00  0.00    -0.372 A  
HETATM    4  C   UNK A   0     -11.994  12.675  68.400  1.00  0.00    -0.221 A  
HETATM    5  N   UNK A   0     -12.614  12.599  69.627  1.00  0.00     0.223 NA 
HETATM    6  C   UNK A   0     -12.523  13.808  70.289  1.00  0.00    -0.289 A  
HETATM    7  H   UNK A   0     -13.075  11.767  69.996  1.00  0.00     0.000 HD 
HETATM    8  C   UNK A   0     -13.019  14.264  71.512  1.00  0.00    -0.411 A  
HETATM    9  C   UNK A   0     -12.629  15.559  71.901  1.00  0.00    -0.478 A  
HETATM   10  C   UNK A   0     -11.692  16.311  71.164  1.00  0.00    -0.353 A  
HETATM   11  C   UNK A   0     -11.174  15.809  69.964  1.00  0.00    -0.346 A  
HETATM   12  C   UNK A   0     -11.722  14.602  69.495  1.00  0.00    -0.366 A  
HETATM   13  C   UNK A   0      -9.973  16.200  69.195  1.00  0.00    -0.251 C  
HETATM   14  C   UNK A   0      -8.908  16.781  69.775  1.00  0.00     0.898 C  
HETATM   15  C   UNK A   0      -7.541  16.538  69.123  1.00  0.00    -0.210 C  
HETATM   16  C   UNK A   0      -9.637  17.644  66.561  1.00  0.00    -0.292 C  
HETATM   17  C   UNK A   0      -7.609  16.670  67.562  1.00  0.00    -0.155 C  
HETATM   18  N   UNK A   0      -8.929  16.415  66.923  1.00  0.00    -0.204 NA 
ENDROOT
BRANCH  15  19
HETATM   19  C   UNK A   0      -7.044  15.103  69.548  1.00  0.00    -0.195 C  
ATOM     20  N   ALA A   1      -7.738  14.054  68.958  1.00  0.00    -0.296 N  
ATOM     21  H   ALA A   1      -8.660  14.258  68.573  1.00  0.00     0.000 HD 
HETATM   22  O   UNK A   0      -6.140  14.903  70.344  1.00  0.00    -0.149 OA 
BRANCH  20  23
ATOM     23  CA  ALA A   1      -7.247  12.671  68.845  1.00  0.00    -0.045 C  
ATOM     24  CB  ALA A   1      -7.929  11.918  67.703  1.00  0.00    -0.146 C  
BRANCH  23  25
ATOM     25  C   ALA A   1      -5.719  12.531  68.759  1.00  0.00    -0.062 C  
ATOM     26  O   ALA A   1      -5.193  12.137  70.024  1.00  0.00    -0.075 OA 
ATOM     27  H   ALA A   1      -4.249  12.051  69.972  1.00  0.00     0.000 HD 
ENDBRANCH  23  25
ENDBRANCH  20  23
ENDBRANCH  15  19
TORSDOF 3
ENDMDL
MODEL      152
REMARK 921   NORMALIZED FREE ENERGY PREDICTED BY IDOCK:   -2.94 KCAL/MOL
REMARK 922        TOTAL FREE ENERGY PREDICTED BY IDOCK:   -3.90 KCAL/MOL
REMARK 923 INTER-LIGAND FREE ENERGY PREDICTED BY IDOCK:   -3.06 KCAL/MOL
REMARK 924 INTRA-LIGAND FREE ENERGY PREDICTED BY IDOCK:   -0.83 KCAL/MOL
REMARK 927      BINDING AFFINITY PREDICTED BY RF-SCORE:    0.00 PKD
ROOT
HETATM    1  C   UNK A   0      -7.565   6.051  69.220  1.00  0.00    -0.094 C  
HETATM    2  C   UNK A   0      -8.047   4.639  68.802  1.00  0.00    -0.082 C  
HETATM    3  C   UNK A   0      -8.588   4.748  67.417  1.00  0.00    -0.104 A  
HETATM    4  C   UNK A   0      -9.705   4.279  66.777  1.00  0.00    -0.219 A  
HETATM    5  N   UNK A   0      -9.614   4.660  65.457  1.00  0.00    -0.172 NA 
HETATM    6  C   UNK A   0      -8.472   5.408  65.249  1.00  0.00    -0.149 A  
HETATM    7  H   UNK A   0     -10.295   4.424  64.735  1.00  0.00     0.000 HD 
HETATM    8  C   UNK A   0      -7.901   5.978  64.109  1.00  0.00    -0.117 A  
HETATM    9  C   UNK A   0      -6.755   6.769  64.313  1.00  0.00    -0.045 A  
HETATM   10  C   UNK A   0      -6.277   7.076  65.604  1.00  0.00    -0.037 A  
HETATM   11  C   UNK A   0      -6.899   6.528  66.733  1.00  0.00    -0.066 A  
HETATM   12  C   UNK A   0      -7.918   5.589  66.499  1.00  0.00    -0.101 A  
HETATM   13  C   UNK A   0      -6.840   6.931  68.155  1.00  0.00    -0.074 C  
HETATM   14  C   UNK A   0      -6.560   8.190  68.533  1.00  0.00    -0.058 C  
HETATM   15  C   UNK A   0      -7.157   8.666  69.864  1.00  0.00    -0.050 C  
HETATM   16  C   UNK A   0      -5.536   5.656  70.566  1.00  0.00    -0.009 C  
HETATM   17  C   UNK A   0      -7.012   7.582  70.987  1.00  0.00    -0.054 C  
HETATM   18  N   UNK A   0      -6.909   6.165  70.544  1.00  0.00    -0.053 NA 
ENDROOT
BRANCH  15  19
HETATM   19  C   UNK A   0      -8.671   9.029  69.619  1.00  0.00    -0.143 C  
ATOM     20  N   ALA A   1      -8.918   9.703  68.429  1.00  0.00    -0.123 N  
ATOM     21  H   ALA A   1      -8.130  10.171  67.982  1.00  0.00     0.000 HD 
HETATM   22  O   UNK A   0      -9.570   8.769  70.404  1.00  0.00    -0.166 OA 
BRANCH  20  23
ATOM     23  CA  ALA A   1     -10.227   9.795  67.763  1.00  0.00    -0.208 C  
ATOM     24  CB  ALA A   1     -10.363  11.083  66.953  1.00  0.00    -0.279 C  
BRANCH  23  25
ATOM     25  C   ALA A   1     -10.611   8.570  66.917  1.00  0.00    -0.209 C  
ATOM     26  O   ALA A   1      -9.782   8.499  65.759  1.00  0.00    -0.452 OA 
ATOM     27  H   ALA A   1     -10.019   7.743  65.236  1.00  0.00     0.000 HD 
ENDBRANCH  23  25
ENDBRANCH  20  23
ENDBRANCH  15  19
TORSDOF 3
ENDMDL
MODEL      153
REMARK 921   NORMALIZED FREE ENERGY PREDICTED BY IDOCK:   -2.90 KCAL/MOL
REMARK 922        TOTAL FREE ENERGY PREDICTED BY IDOCK:   -3.86 KCAL/MOL
REMARK 923 INTER-LIGAND FREE ENERGY PREDICTED BY IDOCK:   -3.33 KCAL/MOL
REMARK 924 INTRA-LIGAND FREE ENERGY PREDICTED BY IDOCK:   -0.52 KCAL/MOL
REMARK 927      BINDING AFFINITY PREDICTED BY RF-SCORE:    0.00 PKD
ROOT
HETATM    1  C   UNK A   0      -9.718  10.582  68.604  1.00  0.00    -0.173 C  
HETATM    2  C   UNK A   0     -10.683  10.294  69.781  1.00  0.00    -0.328 C  
HETATM    3  C   UNK A   0     -10.228   9.029  70.426  1.00  0.00    -0.250 A  
HETATM    4  C   UNK A   0     -10.855   7.899  70.883  1.00  0.00    -0.234 A  
HETATM    5  N   UNK A   0      -9.892   7.094  71.451  1.00  0.00    -0.176 NA 
HETATM    6  C   UNK A   0      -8.645   7.675  71.324  1.00  0.00    -0.120 A  
HETATM    7  H   UNK A   0     -10.073   6.197  71.900  1.00  0.00     0.000 HD 
HETATM    8  C   UNK A   0      -7.372   7.303  71.764  1.00  0.00    -0.080 A  
HETATM    9  C   UNK A   0      -6.304   8.121  71.350  1.00  0.00    -0.037 A  
HETATM   10  C   UNK A   0      -6.484   9.183  70.441  1.00  0.00    -0.051 A  
HETATM   11  C   UNK A   0      -7.767   9.504  69.978  1.00  0.00    -0.146 A  
HETATM   12  C   UNK A   0      -8.840   8.802  70.553  1.00  0.00    -0.200 A  
HETATM   13  C   UNK A   0      -8.197  10.300  68.809  1.00  0.00    -0.119 C  
HETATM   14  C   UNK A   0      -7.426  10.445  67.717  1.00  0.00    -0.088 C  
HETATM   15  C   UNK A   0      -8.147  10.665  66.380  1.00  0.00    -0.148 C  
HETATM   16  C   UNK A   0      -9.464  13.035  68.578  1.00  0.00    -0.097 C  
HETATM   17  C   UNK A   0      -9.318  11.698  66.515  1.00  0.00    -0.206 C  
HETATM   18  N   UNK A   0      -9.933  11.847  67.862  1.00  0.00    -0.186 NA 
ENDROOT
BRANCH  15  19
HETATM   19  C   UNK A   0      -8.677   9.270  65.874  1.00  0.00    -0.154 C  
ATOM     20  N   ALA A   1      -7.881   8.188  66.227  1.00  0.00    -0.093 N  
ATOM     21  H   ALA A   1      -6.913   8.381  66.487  1.00  0.00     0.000 HD 
HETATM   22  O   UNK A   0      -9.691   9.127  65.209  1.00  0.00    -0.157 OA 
BRANCH  20  23
ATOM     23  CA  ALA A   1      -8.322   6.784  66.255  1.00  0.00    -0.126 C  
ATOM     24  CB  ALA A   1      -9.676   6.628  66.947  1.00  0.00    -0.209 C  
BRANCH  23  25
ATOM     25  C   ALA A   1      -8.319   6.076  64.891  1.00  0.00    -0.104 C  
ATOM     26  O   ALA A   1      -9.657   5.830  64.465  1.00  0.00     0.147 OA 
ATOM     27  H   ALA A   1      -9.655   5.393  63.622  1.00  0.00     0.000 HD 
ENDBRANCH  23  25
ENDBRANCH  20  23
ENDBRANCH  15  19
TORSDOF 3
ENDMDL
MODEL      154
REMARK 921   NORMALIZED FREE ENERGY PREDICTED BY IDOCK:   -2.90 KCAL/MOL
REMARK 922        TOTAL FREE ENERGY PREDICTED BY IDOCK:   -3.85 KCAL/MOL
REMARK 923 INTER-LIGAND FREE ENERGY PREDICTED BY IDOCK:   -4.28 KCAL/MOL
REMARK 924 INTRA-LIGAND FREE ENERGY PREDICTED BY IDOCK:    0.42 KCAL/MOL
REMARK 927      BINDING AFFINITY PREDICTED BY RF-SCORE:    0.00 PKD
ROOT
HETATM    1  C   UNK A   0      -7.724  10.641  67.758  1.00  0.00    -0.100 C  
HETATM    2  C   UNK A   0      -7.367  11.795  66.788  1.00  0.00    -0.052 C  
HETATM    3  C   UNK A   0      -7.230  13.034  67.607  1.00  0.00    -0.151 A  
HETATM    4  C   UNK A   0      -7.658  14.329  67.478  1.00  0.00    -0.184 A  
HETATM    5  N   UNK A   0      -7.150  15.039  68.543  1.00  0.00    -0.106 NA 
HETATM    6  C   UNK A   0      -6.436  14.206  69.381  1.00  0.00    -0.122 A  
HETATM    7  H   UNK A   0      -7.283  16.039  68.691  1.00  0.00     0.000 HD 
HETATM    8  C   UNK A   0      -5.697  14.431  70.544  1.00  0.00    -0.158 A  
HETATM    9  C   UNK A   0      -5.179  13.290  71.186  1.00  0.00    -0.176 A  
HETATM   10  C   UNK A   0      -5.489  11.984  70.756  1.00  0.00    -0.146 A  
HETATM   11  C   UNK A   0      -6.273  11.787  69.612  1.00  0.00    -0.128 A  
HETATM   12  C   UNK A   0      -6.617  12.935  68.877  1.00  0.00    -0.095 A  
HETATM   13  C   UNK A   0      -7.017  10.596  69.148  1.00  0.00    -0.085 C  
HETATM   14  C   UNK A   0      -7.458   9.650  69.995  1.00  0.00    -0.142 C  
HETATM   15  C   UNK A   0      -8.717   8.877  69.581  1.00  0.00    -0.140 C  
HETATM   16  C   UNK A   0      -6.534   8.673  66.866  1.00  0.00    -0.061 C  
HETATM   17  C   UNK A   0      -8.669   8.455  68.072  1.00  0.00    -0.139 C  
HETATM   18  N   UNK A   0      -7.829   9.285  67.167  1.00  0.00    -0.098 NA 
ENDROOT
BRANCH  15  19
HETATM   19  C   UNK A   0      -9.970   9.788  69.875  1.00  0.00    -0.245 C  
ATOM     20  N   ALA A   1     -10.958   9.180  70.639  1.00  0.00    -0.246 N  
ATOM     21  H   ALA A   1     -10.960   8.160  70.681  1.00  0.00     0.000 HD 
HETATM   22  O   UNK A   0     -10.094  10.929  69.461  1.00  0.00    -0.155 OA 
BRANCH  20  23
ATOM     23  CA  ALA A   1     -12.005   9.890  71.392  1.00  0.00    -0.404 C  
ATOM     24  CB  ALA A   1     -12.906  10.713  70.473  1.00  0.00    -0.356 C  
BRANCH  23  25
ATOM     25  C   ALA A   1     -12.840   9.006  72.332  1.00  0.00    -0.385 C  
ATOM     26  O   ALA A   1     -14.149   8.828  71.798  1.00  0.00    -0.405 OA 
ATOM     27  H   ALA A   1     -14.666   8.282  72.379  1.00  0.00     0.000 HD 
ENDBRANCH  23  25
ENDBRANCH  20  23
ENDBRANCH  15  19
TORSDOF 3
ENDMDL
MODEL      155
REMARK 921   NORMALIZED FREE ENERGY PREDICTED BY IDOCK:   -2.78 KCAL/MOL
REMARK 922        TOTAL FREE ENERGY PREDICTED BY IDOCK:   -3.72 KCAL/MOL
REMARK 923 INTER-LIGAND FREE ENERGY PREDICTED BY IDOCK:   -3.39 KCAL/MOL
REMARK 924 INTRA-LIGAND FREE ENERGY PREDICTED BY IDOCK:   -0.33 KCAL/MOL
REMARK 927      BINDING AFFINITY PREDICTED BY RF-SCORE:    0.00 PKD
ROOT
HETATM    1  C   UNK A   0      -7.618  10.126  69.113  1.00  0.00    -0.103 C  
HETATM    2  C   UNK A   0      -8.919  10.954  68.967  1.00  0.00    -0.104 C  
HETATM    3  C   UNK A   0     -10.034  10.123  69.504  1.00  0.00    -0.257 A  
HETATM    4  C   UNK A   0     -11.305   9.826  69.085  1.00  0.00     0.015 A  
HETATM    5  N   UNK A   0     -11.887   9.045  70.059  1.00  0.00    -0.408 NA 
HETATM    6  C   UNK A   0     -10.990   8.800  71.080  1.00  0.00    -0.268 A  
HETATM    7  H   UNK A   0     -12.845   8.697  70.030  1.00  0.00     0.000 HD 
HETATM    8  C   UNK A   0     -11.094   8.122  72.297  1.00  0.00    -0.410 A  
HETATM    9  C   UNK A   0      -9.908   7.998  73.046  1.00  0.00    -0.352 A  
HETATM   10  C   UNK A   0      -8.660   8.421  72.547  1.00  0.00    -0.253 A  
HETATM   11  C   UNK A   0      -8.578   9.055  71.301  1.00  0.00    -0.221 A  
HETATM   12  C   UNK A   0      -9.794   9.343  70.658  1.00  0.00    -0.340 A  
HETATM   13  C   UNK A   0      -7.420   9.280  70.409  1.00  0.00    -0.124 C  
HETATM   14  C   UNK A   0      -6.338   8.483  70.425  1.00  0.00    -0.035 C  
HETATM   15  C   UNK A   0      -5.552   8.349  69.113  1.00  0.00    -0.035 C  
HETATM   16  C   UNK A   0      -5.877  11.776  69.687  1.00  0.00    -0.097 C  
HETATM   17  C   UNK A   0      -5.353   9.737  68.411  1.00  0.00    -0.032 C  
HETATM   18  N   UNK A   0      -6.356  10.794  68.713  1.00  0.00    -0.043 NA 
ENDROOT
BRANCH  15  19
HETATM   19  C   UNK A   0      -6.330   7.347  68.177  1.00  0.00    -0.048 C  
ATOM     20  N   ALA A   1      -6.062   6.006  68.420  1.00  0.00    -0.020 N  
ATOM     21  H   ALA A   1      -5.204   5.782  68.924  1.00  0.00     0.000 HD 
HETATM   22  O   UNK A   0      -7.095   7.696  67.292  1.00  0.00    -0.080 OA 
BRANCH  20  23
ATOM     23  CA  ALA A   1      -6.918   4.883  68.005  1.00  0.00    -0.061 C  
ATOM     24  CB  ALA A   1      -6.147   3.855  67.179  1.00  0.00    -0.025 C  
BRANCH  23  25
ATOM     25  C   ALA A   1      -7.689   4.201  69.147  1.00  0.00    -0.054 C  
ATOM     26  O   ALA A   1      -6.776   3.606  70.066  1.00  0.00    -0.033 OA 
ATOM     27  H   ALA A   1      -7.252   3.184  70.771  1.00  0.00     0.000 HD 
ENDBRANCH  23  25
ENDBRANCH  20  23
ENDBRANCH  15  19
TORSDOF 3
ENDMDL
MODEL      156
REMARK 921   NORMALIZED FREE ENERGY PREDICTED BY IDOCK:   -2.40 KCAL/MOL
REMARK 922        TOTAL FREE ENERGY PREDICTED BY IDOCK:   -3.27 KCAL/MOL
REMARK 923 INTER-LIGAND FREE ENERGY PREDICTED BY IDOCK:   -3.66 KCAL/MOL
REMARK 924 INTRA-LIGAND FREE ENERGY PREDICTED BY IDOCK:    0.39 KCAL/MOL
REMARK 927      BINDING AFFINITY PREDICTED BY RF-SCORE:    0.00 PKD
ROOT
HETATM    1  C   UNK A   0     -10.643  14.753  67.927  1.00  0.00    -0.248 C  
HETATM    2  C   UNK A   0     -11.370  15.484  69.084  1.00  0.00    -0.333 C  
HETATM    3  C   UNK A   0     -10.889  16.896  69.086  1.00  0.00    -0.237 A  
HETATM    4  C   UNK A   0     -10.483  17.776  70.055  1.00  0.00     0.917 A  
HETATM    5  N   UNK A   0     -10.218  18.977  69.435  1.00  0.00    -0.408 NA 
HETATM    6  C   UNK A   0     -10.407  18.867  68.072  1.00  0.00    -0.389 A  
HETATM    7  H   UNK A   0      -9.924  19.827  69.916  1.00  0.00     0.000 HD 
HETATM    8  C   UNK A   0     -10.325  19.785  67.022  1.00  0.00    -0.593 A  
HETATM    9  C   UNK A   0     -10.496  19.267  65.724  1.00  0.00    -0.438 A  
HETATM   10  C   UNK A   0     -10.621  17.884  65.481  1.00  0.00    -0.016 A  
HETATM   11  C   UNK A   0     -10.652  16.981  66.551  1.00  0.00    -0.172 A  
HETATM   12  C   UNK A   0     -10.675  17.534  67.843  1.00  0.00    -0.340 A  
HETATM   13  C   UNK A   0     -10.431  15.519  66.585  1.00  0.00    -0.299 C  
HETATM   14  C   UNK A   0      -9.684  14.886  65.664  1.00  0.00    -0.326 C  
HETATM   15  C   UNK A   0      -8.971  13.601  66.110  1.00  0.00     0.228 C  
HETATM   16  C   UNK A   0     -12.320  13.197  67.007  1.00  0.00    -0.057 C  
HETATM   17  C   UNK A   0      -9.913  12.679  66.959  1.00  0.00    -0.219 C  
HETATM   18  N   UNK A   0     -11.030  13.343  67.684  1.00  0.00    -0.254 NA 
ENDROOT
BRANCH  15  19
HETATM   19  C   UNK A   0      -7.690  14.013  66.931  1.00  0.00     0.381 C  
ATOM     20  N   ALA A   1      -7.743  15.287  67.483  1.00  0.00    -0.159 N  
ATOM     21  H   ALA A   1      -8.411  15.945  67.081  1.00  0.00     0.000 HD 
HETATM   22  O   UNK A   0      -6.711  13.297  67.070  1.00  0.00    -0.078 OA 
BRANCH  20  23
ATOM     23  CA  ALA A   1      -6.911  15.762  68.600  1.00  0.00    -0.124 C  
ATOM     24  CB  ALA A   1      -7.262  15.058  69.909  1.00  0.00    -0.088 C  
BRANCH  23  25
ATOM     25  C   ALA A   1      -5.396  15.720  68.343  1.00  0.00    -0.105 C  
ATOM     26  O   ALA A   1      -5.133  15.874  66.950  1.00  0.00    -0.300 OA 
ATOM     27  H   ALA A   1      -4.198  15.847  66.791  1.00  0.00     0.000 HD 
ENDBRANCH  23  25
ENDBRANCH  20  23
ENDBRANCH  15  19
TORSDOF 3
ENDMDL
MODEL      157
REMARK 921   NORMALIZED FREE ENERGY PREDICTED BY IDOCK:   -2.37 KCAL/MOL
REMARK 922        TOTAL FREE ENERGY PREDICTED BY IDOCK:   -3.23 KCAL/MOL
REMARK 923 INTER-LIGAND FREE ENERGY PREDICTED BY IDOCK:   -2.37 KCAL/MOL
REMARK 924 INTRA-LIGAND FREE ENERGY PREDICTED BY IDOCK:   -0.86 KCAL/MOL
REMARK 927      BINDING AFFINITY PREDICTED BY RF-SCORE:    0.00 PKD
ROOT
HETATM    1  C   UNK A   0      -9.329   5.889  68.461  1.00  0.00    -0.120 C  
HETATM    2  C   UNK A   0     -10.380   6.949  68.875  1.00  0.00    -0.198 C  
HETATM    3  C   UNK A   0      -9.888   7.595  70.125  1.00  0.00    -0.184 A  
HETATM    4  C   UNK A   0     -10.460   7.946  71.320  1.00  0.00    -0.203 A  
HETATM    5  N   UNK A   0      -9.494   8.583  72.068  1.00  0.00    -0.269 NA 
HETATM    6  C   UNK A   0      -8.294   8.606  71.384  1.00  0.00    -0.168 A  
HETATM    7  H   UNK A   0      -9.644   8.980  72.995  1.00  0.00     0.000 HD 
HETATM    8  C   UNK A   0      -7.045   9.162  71.671  1.00  0.00     0.066 A  
HETATM    9  C   UNK A   0      -6.014   8.889  70.753  1.00  0.00    -0.038 A  
HETATM   10  C   UNK A   0      -6.190   8.003  69.671  1.00  0.00    -0.033 A  
HETATM   11  C   UNK A   0      -7.442   7.421  69.435  1.00  0.00    -0.091 A  
HETATM   12  C   UNK A   0      -8.504   7.857  70.245  1.00  0.00    -0.128 A  
HETATM   13  C   UNK A   0      -7.818   6.240  68.628  1.00  0.00    -0.102 C  
HETATM   14  C   UNK A   0      -6.956   5.240  68.376  1.00  0.00    -0.061 C  
HETATM   15  C   UNK A   0      -7.555   3.843  68.157  1.00  0.00    -0.066 C  
HETATM   16  C   UNK A   0      -9.281   5.972  65.996  1.00  0.00    -0.112 C  
HETATM   17  C   UNK A   0      -8.817   3.892  67.228  1.00  0.00    -0.122 C  
HETATM   18  N   UNK A   0      -9.574   5.172  67.187  1.00  0.00    -0.137 NA 
ENDROOT
BRANCH  15  19
HETATM   19  C   UNK A   0      -7.913   3.239  69.568  1.00  0.00    -0.049 C  
ATOM     20  N   ALA A   1      -6.874   3.272  70.490  1.00  0.00    -0.033 N  
ATOM     21  H   ALA A   1      -5.927   3.376  70.127  1.00  0.00     0.000 HD 
HETATM   22  O   UNK A   0      -9.000   2.756  69.847  1.00  0.00    -0.080 OA 
BRANCH  20  23
ATOM     23  CA  ALA A   1      -7.033   3.168  71.950  1.00  0.00    -0.027 C  
ATOM     24  CB  ALA A   1      -5.804   2.549  72.613  1.00  0.00    -0.008 C  
BRANCH  23  25
ATOM     25  C   ALA A   1      -7.436   4.475  72.652  1.00  0.00    -0.084 C  
ATOM     26  O   ALA A   1      -8.704   4.916  72.173  1.00  0.00    -0.125 OA 
ATOM     27  H   ALA A   1      -8.952   5.724  72.606  1.00  0.00     0.000 HD 
ENDBRANCH  23  25
ENDBRANCH  20  23
ENDBRANCH  15  19
TORSDOF 3
ENDMDL
MODEL      158
REMARK 921   NORMALIZED FREE ENERGY PREDICTED BY IDOCK:   -1.95 KCAL/MOL
REMARK 922        TOTAL FREE ENERGY PREDICTED BY IDOCK:   -2.74 KCAL/MOL
REMARK 923 INTER-LIGAND FREE ENERGY PREDICTED BY IDOCK:   -2.84 KCAL/MOL
REMARK 924 INTRA-LIGAND FREE ENERGY PREDICTED BY IDOCK:    0.10 KCAL/MOL
REMARK 927      BINDING AFFINITY PREDICTED BY RF-SCORE:    0.00 PKD
ROOT
HETATM    1  C   UNK A   0      -6.317  11.283  67.442  1.00  0.00    -0.076 C  
HETATM    2  C   UNK A   0      -5.221  12.311  67.069  1.00  0.00     0.004 C  
HETATM    3  C   UNK A   0      -5.230  13.368  68.120  1.00  0.00    -0.104 A  
HETATM    4  C   UNK A   0      -5.178  14.738  68.113  1.00  0.00    -0.119 A  
HETATM    5  N   UNK A   0      -5.153  15.156  69.425  1.00  0.00    -0.092 NA 
HETATM    6  C   UNK A   0      -5.233  14.072  70.277  1.00  0.00    -0.099 A  
HETATM    7  H   UNK A   0      -5.085  16.129  69.724  1.00  0.00     0.000 HD 
HETATM    8  C   UNK A   0      -5.195  13.950  71.668  1.00  0.00    -0.194 A  
HETATM    9  C   UNK A   0      -5.408  12.659  72.188  1.00  0.00     0.272 A  
HETATM   10  C   UNK A   0      -5.762  11.571  71.365  1.00  0.00     0.353 A  
HETATM   11  C   UNK A   0      -5.839  11.733  69.976  1.00  0.00    -0.148 A  
HETATM   12  C   UNK A   0      -5.434  12.978  69.463  1.00  0.00    -0.083 A  
HETATM   13  C   UNK A   0      -6.496  10.902  68.944  1.00  0.00    -0.049 C  
HETATM   14  C   UNK A   0      -7.543  10.107  69.224  1.00  0.00    -0.117 C  
HETATM   15  C   UNK A   0      -8.537   9.840  68.085  1.00  0.00    -0.118 C  
HETATM   16  C   UNK A   0      -5.382   9.095  66.792  1.00  0.00    -0.039 C  
HETATM   17  C   UNK A   0      -7.804   9.533  66.734  1.00  0.00    -0.101 C  
HETATM   18  N   UNK A   0      -6.434  10.089  66.570  1.00  0.00    -0.070 NA 
ENDROOT
BRANCH  15  19
HETATM   19  C   UNK A   0      -9.474  11.100  67.949  1.00  0.00    -0.175 C  
ATOM     20  N   ALA A   1     -10.110  11.215  66.718  1.00  0.00    -0.211 N  
ATOM     21  H   ALA A   1      -9.710  10.701  65.933  1.00  0.00     0.000 HD 
HETATM   22  O   UNK A   0      -9.630  11.932  68.829  1.00  0.00    -0.135 OA 
BRANCH  20  23
ATOM     23  CA  ALA A   1     -11.314  12.021  66.459  1.00  0.00    -0.354 C  
ATOM     24  CB  ALA A   1     -11.185  13.434  67.026  1.00  0.00    -0.328 C  
BRANCH  23  25
ATOM     25  C   ALA A   1     -11.764  12.058  64.990  1.00  0.00    -0.255 C  
ATOM     26  O   ALA A   1     -13.179  12.222  64.917  1.00  0.00    -0.597 OA 
ATOM     27  H   ALA A   1     -13.457  12.245  64.010  1.00  0.00     0.000 HD 
ENDBRANCH  23  25
ENDBRANCH  20  23
ENDBRANCH  15  19
TORSDOF 3
ENDMDL
MODEL      159
REMARK 921   NORMALIZED FREE ENERGY PREDICTED BY IDOCK:   -1.65 KCAL/MOL
REMARK 922        TOTAL FREE ENERGY PREDICTED BY IDOCK:   -2.39 KCAL/MOL
REMARK 923 INTER-LIGAND FREE ENERGY PREDICTED BY IDOCK:   -2.14 KCAL/MOL
REMARK 924 INTRA-LIGAND FREE ENERGY PREDICTED BY IDOCK:   -0.25 KCAL/MOL
REMARK 927      BINDING AFFINITY PREDICTED BY RF-SCORE:    0.00 PKD
ROOT
HETATM    1  C   UNK A   0      -9.880  17.804  67.504  1.00  0.00    -0.304 C  
HETATM    2  C   UNK A   0     -10.182  19.160  68.189  1.00  0.00    -0.489 C  
HETATM    3  C   UNK A   0      -8.920  19.620  68.835  1.00  0.00    -0.264 A  
HETATM    4  C   UNK A   0      -8.600  20.157  70.055  1.00  0.00     1.241 A  
HETATM    5  N   UNK A   0      -7.253  20.443  70.038  1.00  0.00     0.223 NA 
HETATM    6  C   UNK A   0      -6.693  20.055  68.836  1.00  0.00    -0.297 A  
HETATM    7  H   UNK A   0      -6.741  20.880  70.804  1.00  0.00     0.000 HD 
HETATM    8  C   UNK A   0      -5.406  20.165  68.305  1.00  0.00    -0.230 A  
HETATM    9  C   UNK A   0      -5.190  19.550  67.058  1.00  0.00    -0.158 A  
HETATM   10  C   UNK A   0      -6.176  18.761  66.432  1.00  0.00    -0.207 A  
HETATM   11  C   UNK A   0      -7.444  18.628  67.012  1.00  0.00    -0.229 A  
HETATM   12  C   UNK A   0      -7.700  19.405  68.154  1.00  0.00    -0.342 A  
HETATM   13  C   UNK A   0      -8.511  17.631  66.776  1.00  0.00    -0.274 C  
HETATM   14  C   UNK A   0      -8.249  16.397  66.312  1.00  0.00    -0.343 C  
HETATM   15  C   UNK A   0      -9.217  15.279  66.724  1.00  0.00    -0.274 C  
HETATM   16  C   UNK A   0     -11.207  17.834  65.425  1.00  0.00     0.789 C  
HETATM   17  C   UNK A   0     -10.712  15.734  66.611  1.00  0.00    -0.287 C  
HETATM   18  N   UNK A   0     -10.982  17.194  66.722  1.00  0.00     0.054 NA 
ENDROOT
BRANCH  15  19
HETATM   19  C   UNK A   0      -8.866  14.847  68.199  1.00  0.00    -0.174 C  
ATOM     20  N   ALA A   1      -7.726  14.061  68.314  1.00  0.00    -0.130 N  
ATOM     21  H   ALA A   1      -7.400  13.580  67.476  1.00  0.00     0.000 HD 
HETATM   22  O   UNK A   0      -9.535  15.148  69.175  1.00  0.00    -0.209 OA 
BRANCH  20  23
ATOM     23  CA  ALA A   1      -6.951  13.867  69.551  1.00  0.00     0.021 C  
ATOM     24  CB  ALA A   1      -5.754  12.944  69.333  1.00  0.00    -0.090 C  
BRANCH  23  25
ATOM     25  C   ALA A   1      -6.523  15.164  70.256  1.00  0.00    -0.065 C  
ATOM     26  O   ALA A   1      -5.140  15.416  70.016  1.00  0.00    -0.100 OA 
ATOM     27  H   ALA A   1      -4.875  16.217  70.452  1.00  0.00     0.000 HD 
ENDBRANCH  23  25
ENDBRANCH  20  23
ENDBRANCH  15  19
TORSDOF 3
ENDMDL
MODEL      160
REMARK 921   NORMALIZED FREE ENERGY PREDICTED BY IDOCK:   -0.98 KCAL/MOL
REMARK 922        TOTAL FREE ENERGY PREDICTED BY IDOCK:   -1.60 KCAL/MOL
REMARK 923 INTER-LIGAND FREE ENERGY PREDICTED BY IDOCK:   -0.92 KCAL/MOL
REMARK 924 INTRA-LIGAND FREE ENERGY PREDICTED BY IDOCK:   -0.68 KCAL/MOL
REMARK 927      BINDING AFFINITY PREDICTED BY RF-SCORE:    0.00 PKD
ROOT
HETATM    1  C   UNK A   0      -9.971  18.744  67.727  1.00  0.00    -0.350 C  
HETATM    2  C   UNK A   0     -10.021  19.802  68.856  1.00  0.00    -0.490 C  
HETATM    3  C   UNK A   0      -8.647  19.908  69.424  1.00  0.00     0.337 A  
HETATM    4  C   UNK A   0      -8.128  19.967  70.692  1.00  0.00     1.603 A  
HETATM    5  N   UNK A   0      -6.765  20.131  70.571  1.00  0.00    -0.218 NA 
HETATM    6  C   UNK A   0      -6.397  20.133  69.240  1.00  0.00    -0.320 A  
HETATM    7  H   UNK A   0      -6.120  20.235  71.354  1.00  0.00     0.000 HD 
HETATM    8  C   UNK A   0      -5.173  20.314  68.592  1.00  0.00    -0.247 A  
HETATM    9  C   UNK A   0      -5.176  20.149  67.194  1.00  0.00    -0.163 A  
HETATM   10  C   UNK A   0      -6.317  19.705  66.496  1.00  0.00    -0.184 A  
HETATM   11  C   UNK A   0      -7.520  19.485  67.180  1.00  0.00    -0.257 A  
HETATM   12  C   UNK A   0      -7.547  19.842  68.539  1.00  0.00    -0.338 A  
HETATM   13  C   UNK A   0      -8.724  18.720  66.789  1.00  0.00    -0.303 C  
HETATM   14  C   UNK A   0      -8.674  17.702  65.912  1.00  0.00     0.083 C  
HETATM   15  C   UNK A   0      -9.723  16.594  66.071  1.00  0.00    -0.306 C  
HETATM   16  C   UNK A   0     -11.506  19.593  65.993  1.00  0.00     0.916 C  
HETATM   17  C   UNK A   0     -11.152  17.180  66.336  1.00  0.00     0.414 C  
HETATM   18  N   UNK A   0     -11.221  18.530  66.959  1.00  0.00     0.191 NA 
ENDROOT
BRANCH  15  19
HETATM   19  C   UNK A   0      -9.268  15.655  67.253  1.00  0.00    -0.204 C  
ATOM     20  N   ALA A   1     -10.247  15.417  68.210  1.00  0.00    -0.226 N  
ATOM     21  H   ALA A   1     -11.027  16.073  68.257  1.00  0.00     0.000 HD 
HETATM   22  O   UNK A   0      -8.148  15.180  67.353  1.00  0.00    -0.156 OA 
BRANCH  20  23
ATOM     23  CA  ALA A   1     -10.246  14.295  69.163  1.00  0.00    -0.089 C  
ATOM     24  CB  ALA A   1     -11.273  14.493  70.275  1.00  0.00    -0.155 C  
BRANCH  23  25
ATOM     25  C   ALA A   1     -10.389  12.904  68.524  1.00  0.00    -0.229 C  
ATOM     26  O   ALA A   1      -9.104  12.311  68.353  1.00  0.00    -0.230 OA 
ATOM     27  H   ALA A   1      -9.192  11.452  67.958  1.00  0.00     0.000 HD 
ENDBRANCH  23  25
ENDBRANCH  20  23
ENDBRANCH  15  19
TORSDOF 3
ENDMDL
MODEL      161
REMARK 921   NORMALIZED FREE ENERGY PREDICTED BY IDOCK:   -0.53 KCAL/MOL
REMARK 922        TOTAL FREE ENERGY PREDICTED BY IDOCK:   -1.07 KCAL/MOL
REMARK 923 INTER-LIGAND FREE ENERGY PREDICTED BY IDOCK:   -0.93 KCAL/MOL
REMARK 924 INTRA-LIGAND FREE ENERGY PREDICTED BY IDOCK:   -0.14 KCAL/MOL
REMARK 927      BINDING AFFINITY PREDICTED BY RF-SCORE:    0.00 PKD
ROOT
HETATM    1  C   UNK A   0      -6.232  12.886  67.984  1.00  0.00    -0.110 C  
HETATM    2  C   UNK A   0      -5.154  13.934  67.609  1.00  0.00     0.090 C  
HETATM    3  C   UNK A   0      -5.292  15.070  68.565  1.00  0.00    -0.101 A  
HETATM    4  C   UNK A   0      -5.298  16.436  68.446  1.00  0.00    -0.107 A  
HETATM    5  N   UNK A   0      -5.394  16.959  69.717  1.00  0.00    -0.162 NA 
HETATM    6  C   UNK A   0      -5.495  15.944  70.648  1.00  0.00    -0.115 A  
HETATM    7  H   UNK A   0      -5.392  17.954  69.938  1.00  0.00     0.000 HD 
HETATM    8  C   UNK A   0      -5.563  15.936  72.043  1.00  0.00     0.692 A  
HETATM    9  C   UNK A   0      -5.760  14.682  72.652  1.00  0.00     0.191 A  
HETATM   10  C   UNK A   0      -6.002  13.515  71.900  1.00  0.00     0.530 A  
HETATM   11  C   UNK A   0      -5.975  13.562  70.500  1.00  0.00    -0.133 A  
HETATM   12  C   UNK A   0      -5.585  14.779  69.916  1.00  0.00    -0.105 A  
HETATM   13  C   UNK A   0      -6.512  12.619  69.495  1.00  0.00    -0.078 C  
HETATM   14  C   UNK A   0      -7.544  11.799  69.760  1.00  0.00     0.826 C  
HETATM   15  C   UNK A   0      -8.433  11.393  68.577  1.00  0.00    -0.152 C  
HETATM   16  C   UNK A   0      -5.157  10.702  67.592  1.00  0.00    -0.036 C  
HETATM   17  C   UNK A   0      -7.583  11.015  67.315  1.00  0.00    -0.111 C  
HETATM   18  N   UNK A   0      -6.229  11.622  67.209  1.00  0.00    -0.100 NA 
ENDROOT
BRANCH  15  19
HETATM   19  C   UNK A   0      -9.409  12.591  68.265  1.00  0.00    -0.193 C  
ATOM     20  N   ALA A   1     -10.643  12.509  68.899  1.00  0.00    -0.385 N  
ATOM     21  H   ALA A   1     -10.938  11.593  69.237  1.00  0.00     0.000 HD 
HETATM   22  O   UNK A   0      -9.135  13.515  67.516  1.00  0.00    -0.194 OA 
BRANCH  20  23
ATOM     23  CA  ALA A   1     -11.557  13.641  69.121  1.00  0.00    -0.309 C  
ATOM     24  CB  ALA A   1     -12.407  13.935  67.885  1.00  0.00    -0.016 C  
BRANCH  23  25
ATOM     25  C   ALA A   1     -12.436  13.526  70.377  1.00  0.00    -0.275 C  
ATOM     26  O   ALA A   1     -13.195  14.720  70.551  1.00  0.00    -0.579 OA 
ATOM     27  H   ALA A   1     -13.738  14.650  71.327  1.00  0.00     0.000 HD 
ENDBRANCH  23  25
ENDBRANCH  20  23
ENDBRANCH  15  19
TORSDOF 3
ENDMDL
MODEL      162
REMARK 921   NORMALIZED FREE ENERGY PREDICTED BY IDOCK:   -0.11 KCAL/MOL
REMARK 922        TOTAL FREE ENERGY PREDICTED BY IDOCK:   -0.57 KCAL/MOL
REMARK 923 INTER-LIGAND FREE ENERGY PREDICTED BY IDOCK:   -0.91 KCAL/MOL
REMARK 924 INTRA-LIGAND FREE ENERGY PREDICTED BY IDOCK:    0.33 KCAL/MOL
REMARK 927      BINDING AFFINITY PREDICTED BY RF-SCORE:    0.00 PKD
ROOT
HETATM    1  C   UNK A   0     -10.466  17.447  67.255  1.00  0.00    -0.321 C  
HETATM    2  C   UNK A   0     -11.402  16.237  67.013  1.00  0.00     0.277 C  
HETATM    3  C   UNK A   0     -11.311  15.361  68.216  1.00  0.00    -0.354 A  
HETATM    4  C   UNK A   0     -11.188  14.011  68.419  1.00  0.00    -0.266 A  
HETATM    5  N   UNK A   0     -11.227  13.795  69.779  1.00  0.00    -0.463 NA 
HETATM    6  C   UNK A   0     -11.330  14.995  70.455  1.00  0.00    -0.270 A  
HETATM    7  H   UNK A   0     -11.186  12.878  70.224  1.00  0.00     0.000 HD 
HETATM    8  C   UNK A   0     -11.454  15.318  71.808  1.00  0.00    -0.494 A  
HETATM    9  C   UNK A   0     -11.435  16.689  72.127  1.00  0.00     0.074 A  
HETATM   10  C   UNK A   0     -11.180  17.680  71.157  1.00  0.00     2.251 A  
HETATM   11  C   UNK A   0     -11.012  17.322  69.813  1.00  0.00     0.521 A  
HETATM   12  C   UNK A   0     -11.228  15.972  69.487  1.00  0.00    -0.348 A  
HETATM   13  C   UNK A   0     -10.415  18.069  68.685  1.00  0.00    -0.236 C  
HETATM   14  C   UNK A   0      -9.493  19.030  68.870  1.00  0.00    -0.393 C  
HETATM   15  C   UNK A   0      -8.484  19.254  67.736  1.00  0.00    -0.340 C  
HETATM   16  C   UNK A   0     -11.637  19.368  66.245  1.00  0.00     1.282 C  
HETATM   17  C   UNK A   0      -9.179  19.253  66.331  1.00  0.00    -0.352 C  
HETATM   18  N   UNK A   0     -10.458  18.501  66.213  1.00  0.00    -0.421 NA 
ENDROOT
BRANCH  15  19
HETATM   19  C   UNK A   0      -7.388  18.125  67.826  1.00  0.00    -0.215 C  
ATOM     20  N   ALA A   1      -7.174  17.630  69.106  1.00  0.00    -0.204 N  
ATOM     21  H   ALA A   1      -7.477  18.208  69.890  1.00  0.00     0.000 HD 
HETATM   22  O   UNK A   0      -6.751  17.715  66.868  1.00  0.00    -0.155 OA 
BRANCH  20  23
ATOM     23  CA  ALA A   1      -6.543  16.338  69.421  1.00  0.00    -0.202 C  
ATOM     24  CB  ALA A   1      -6.273  15.516  68.162  1.00  0.00    -0.139 C  
BRANCH  23  25
ATOM     25  C   ALA A   1      -5.284  16.428  70.298  1.00  0.00    -0.182 C  
ATOM     26  O   ALA A   1      -5.449  15.636  71.471  1.00  0.00     0.044 OA 
ATOM     27  H   ALA A   1      -4.671  15.692  72.013  1.00  0.00     0.000 HD 
ENDBRANCH  23  25
ENDBRANCH  20  23
ENDBRANCH  15  19
TORSDOF 3
ENDMDL
MODEL      163
REMARK 921   NORMALIZED FREE ENERGY PREDICTED BY IDOCK:    0.27 KCAL/MOL
REMARK 922        TOTAL FREE ENERGY PREDICTED BY IDOCK:   -0.13 KCAL/MOL
REMARK 923 INTER-LIGAND FREE ENERGY PREDICTED BY IDOCK:   -2.31 KCAL/MOL
REMARK 924 INTRA-LIGAND FREE ENERGY PREDICTED BY IDOCK:    2.18 KCAL/MOL
REMARK 927      BINDING AFFINITY PREDICTED BY RF-SCORE:    0.00 PKD
ROOT
HETATM    1  C   UNK A   0      -9.455   5.556  68.221  1.00  0.00    -0.115 C  
HETATM    2  C   UNK A   0     -10.582   5.203  69.223  1.00  0.00    -0.089 C  
HETATM    3  C   UNK A   0      -9.946   5.025  70.560  1.00  0.00    -0.312 A  
HETATM    4  C   UNK A   0     -10.062   4.106  71.570  1.00  0.00    -0.114 A  
HETATM    5  N   UNK A   0      -9.248   4.522  72.600  1.00  0.00    -0.125 NA 
HETATM    6  C   UNK A   0      -8.576   5.676  72.247  1.00  0.00    -0.129 A  
HETATM    7  H   UNK A   0      -9.156   4.046  73.497  1.00  0.00     0.000 HD 
HETATM    8  C   UNK A   0      -7.692   6.510  72.934  1.00  0.00    -0.101 A  
HETATM    9  C   UNK A   0      -7.125   7.565  72.194  1.00  0.00    -0.067 A  
HETATM   10  C   UNK A   0      -7.335   7.702  70.807  1.00  0.00    -0.067 A  
HETATM   11  C   UNK A   0      -8.190   6.821  70.133  1.00  0.00    -0.133 A  
HETATM   12  C   UNK A   0      -8.896   5.898  70.924  1.00  0.00    -0.141 A  
HETATM   13  C   UNK A   0      -8.321   6.520  68.692  1.00  0.00    -0.122 C  
HETATM   14  C   UNK A   0      -7.305   6.689  67.828  1.00  0.00    -0.096 C  
HETATM   15  C   UNK A   0      -7.280   5.775  66.595  1.00  0.00    -0.074 C  
HETATM   16  C   UNK A   0     -10.471   7.186  66.673  1.00  0.00    -0.135 C  
HETATM   17  C   UNK A   0      -8.699   5.641  65.942  1.00  0.00    -0.147 C  
HETATM   18  N   UNK A   0      -9.872   5.859  66.831  1.00  0.00    -0.145 NA 
ENDROOT
BRANCH  15  19
HETATM   19  C   UNK A   0      -6.726   4.368  67.040  1.00  0.00    -0.051 C  
ATOM     20  N   ALA A   1      -5.754   4.418  68.032  1.00  0.00    -0.020 N  
ATOM     21  H   ALA A   1      -5.264   5.303  68.166  1.00  0.00     0.000 HD 
HETATM   22  O   UNK A   0      -7.089   3.308  66.556  1.00  0.00    -0.056 OA 
BRANCH  20  23
ATOM     23  CA  ALA A   1      -5.374   3.295  68.904  1.00  0.00    -0.013 C  
ATOM     24  CB  ALA A   1      -6.238   3.235  70.162  1.00  0.00    -0.024 C  
BRANCH  23  25
ATOM     25  C   ALA A   1      -5.321   1.925  68.209  1.00  0.00    -0.013 C  
ATOM     26  O   ALA A   1      -5.886   2.018  66.904  1.00  0.00    -0.018 OA 
ATOM     27  H   ALA A   1      -5.854   1.171  66.474  1.00  0.00     0.000 HD 
ENDBRANCH  23  25
ENDBRANCH  20  23
ENDBRANCH  15  19
TORSDOF 3
ENDMDL
MODEL      164
REMARK 921   NORMALIZED FREE ENERGY PREDICTED BY IDOCK:    0.79 KCAL/MOL
REMARK 922        TOTAL FREE ENERGY PREDICTED BY IDOCK:    0.48 KCAL/MOL
REMARK 923 INTER-LIGAND FREE ENERGY PREDICTED BY IDOCK:    0.31 KCAL/MOL
REMARK 924 INTRA-LIGAND FREE ENERGY PREDICTED BY IDOCK:    0.17 KCAL/MOL
REMARK 927      BINDING AFFINITY PREDICTED BY RF-SCORE:    0.00 PKD
ROOT
HETATM    1  C   UNK A   0      -9.733   7.582  67.843  1.00  0.00    -0.146 C  
HETATM    2  C   UNK A   0      -9.696   9.095  67.513  1.00  0.00    -0.204 C  
HETATM    3  C   UNK A   0      -8.408   9.363  66.811  1.00  0.00    -0.123 A  
HETATM    4  C   UNK A   0      -7.442  10.330  66.904  1.00  0.00    -0.101 A  
HETATM    5  N   UNK A   0      -6.507  10.073  65.925  1.00  0.00    -0.089 NA 
HETATM    6  C   UNK A   0      -6.839   8.926  65.232  1.00  0.00    -0.072 A  
HETATM    7  H   UNK A   0      -5.686  10.649  65.738  1.00  0.00     0.000 HD 
HETATM    8  C   UNK A   0      -6.265   8.274  64.138  1.00  0.00    -0.066 A  
HETATM    9  C   UNK A   0      -6.847   7.047  63.765  1.00  0.00    -0.051 A  
HETATM   10  C   UNK A   0      -7.870   6.444  64.524  1.00  0.00    -0.115 A  
HETATM   11  C   UNK A   0      -8.395   7.098  65.645  1.00  0.00    -0.138 A  
HETATM   12  C   UNK A   0      -7.937   8.405  65.886  1.00  0.00    -0.099 A  
HETATM   13  C   UNK A   0      -9.188   6.579  66.780  1.00  0.00    -0.163 C  
HETATM   14  C   UNK A   0      -9.125   5.294  67.170  1.00  0.00    -0.112 C  
HETATM   15  C   UNK A   0      -9.398   5.002  68.652  1.00  0.00    -0.173 C  
HETATM   16  C   UNK A   0     -12.092   6.925  67.546  1.00  0.00     3.073 C  
HETATM   17  C   UNK A   0     -10.635   5.805  69.184  1.00  0.00    -0.294 C  
HETATM   18  N   UNK A   0     -10.971   7.070  68.477  1.00  0.00    -0.443 NA 
ENDROOT
BRANCH  15  19
HETATM   19  C   UNK A   0      -8.097   5.360  69.469  1.00  0.00    -0.096 C  
ATOM     20  N   ALA A   1      -7.981   4.700  70.686  1.00  0.00    -0.067 N  
ATOM     21  H   ALA A   1      -8.831   4.308  71.091  1.00  0.00     0.000 HD 
HETATM   22  O   UNK A   0      -7.257   6.162  69.094  1.00  0.00    -0.077 OA 
BRANCH  20  23
ATOM     23  CA  ALA A   1      -6.728   4.522  71.437  1.00  0.00    -0.031 C  
ATOM     24  CB  ALA A   1      -5.591   4.035  70.538  1.00  0.00    -0.013 C  
BRANCH  23  25
ATOM     25  C   ALA A   1      -6.289   5.742  72.263  1.00  0.00    -0.052 C  
ATOM     26  O   ALA A   1      -6.108   6.869  71.411  1.00  0.00    -0.036 OA 
ATOM     27  H   ALA A   1      -5.837   7.623  71.921  1.00  0.00     0.000 HD 
ENDBRANCH  23  25
ENDBRANCH  20  23
ENDBRANCH  15  19
TORSDOF 3
ENDMDL
MODEL      165
REMARK 921   NORMALIZED FREE ENERGY PREDICTED BY IDOCK:    1.32 KCAL/MOL
REMARK 922        TOTAL FREE ENERGY PREDICTED BY IDOCK:    1.11 KCAL/MOL
REMARK 923 INTER-LIGAND FREE ENERGY PREDICTED BY IDOCK:    0.22 KCAL/MOL
REMARK 924 INTRA-LIGAND FREE ENERGY PREDICTED BY IDOCK:    0.89 KCAL/MOL
REMARK 927      BINDING AFFINITY PREDICTED BY RF-SCORE:    0.00 PKD
ROOT
HETATM    1  C   UNK A   0      -9.773  15.964  69.305  1.00  0.00    -0.263 C  
HETATM    2  C   UNK A   0     -10.858  16.705  70.125  1.00  0.00    -0.118 C  
HETATM    3  C   UNK A   0     -10.839  18.133  69.697  1.00  0.00     1.309 A  
HETATM    4  C   UNK A   0     -10.876  19.337  70.350  1.00  0.00     2.653 A  
HETATM    5  N   UNK A   0     -10.899  20.325  69.390  1.00  0.00     0.059 NA 
HETATM    6  C   UNK A   0     -10.832  19.771  68.127  1.00  0.00     0.098 A  
HETATM    7  H   UNK A   0     -10.957  21.324  69.585  1.00  0.00     0.000 HD 
HETATM    8  C   UNK A   0     -10.873  20.319  66.843  1.00  0.00     0.117 A  
HETATM    9  C   UNK A   0     -10.675  19.424  65.775  1.00  0.00    -0.458 A  
HETATM   10  C   UNK A   0     -10.331  18.073  65.984  1.00  0.00    -0.333 A  
HETATM   11  C   UNK A   0     -10.251  17.561  67.285  1.00  0.00    -0.335 A  
HETATM   12  C   UNK A   0     -10.641  18.420  68.327  1.00  0.00    -0.240 A  
HETATM   13  C   UNK A   0      -9.601  16.336  67.799  1.00  0.00    -0.223 C  
HETATM   14  C   UNK A   0      -8.563  15.757  67.172  1.00  0.00    -0.226 C  
HETATM   15  C   UNK A   0      -7.570  14.976  68.043  1.00  0.00    -0.126 C  
HETATM   16  C   UNK A   0     -10.730  13.737  68.852  1.00  0.00    -0.227 C  
HETATM   17  C   UNK A   0      -8.304  14.075  69.095  1.00  0.00     0.250 C  
HETATM   18  N   UNK A   0      -9.668  14.500  69.510  1.00  0.00    -0.414 NA 
ENDROOT
BRANCH  15  19
HETATM   19  C   UNK A   0      -6.619  16.015  68.752  1.00  0.00    -0.126 C  
ATOM     20  N   ALA A   1      -6.916  17.345  68.483  1.00  0.00    -0.205 N  
ATOM     21  H   ALA A   1      -7.476  17.544  67.654  1.00  0.00     0.000 HD 
HETATM   22  O   UNK A   0      -5.680  15.702  69.467  1.00  0.00    -0.110 OA 
BRANCH  20  23
ATOM     23  CA  ALA A   1      -6.485  18.491  69.299  1.00  0.00    -0.258 C  
ATOM     24  CB  ALA A   1      -5.629  18.053  70.487  1.00  0.00    -0.188 C  
BRANCH  23  25
ATOM     25  C   ALA A   1      -5.800  19.623  68.517  1.00  0.00    -0.227 C  
ATOM     26  O   ALA A   1      -6.043  19.468  67.121  1.00  0.00    -0.185 OA 
ATOM     27  H   ALA A   1      -5.619  20.166  66.637  1.00  0.00     0.000 HD 
ENDBRANCH  23  25
ENDBRANCH  20  23
ENDBRANCH  15  19
TORSDOF 3
ENDMDL
MODEL      166
REMARK 921   NORMALIZED FREE ENERGY PREDICTED BY IDOCK:    1.55 KCAL/MOL
REMARK 922        TOTAL FREE ENERGY PREDICTED BY IDOCK:    1.37 KCAL/MOL
REMARK 923 INTER-LIGAND FREE ENERGY PREDICTED BY IDOCK:    1.11 KCAL/MOL
REMARK 924 INTRA-LIGAND FREE ENERGY PREDICTED BY IDOCK:    0.27 KCAL/MOL
REMARK 927      BINDING AFFINITY PREDICTED BY RF-SCORE:    0.00 PKD
ROOT
HETATM    1  C   UNK A   0      -9.394  17.574  68.659  1.00  0.00    -0.277 C  
HETATM    2  C   UNK A   0      -8.683  18.147  69.910  1.00  0.00     1.625 C  
HETATM    3  C   UNK A   0      -7.294  18.506  69.502  1.00  0.00     0.140 A  
HETATM    4  C   UNK A   0      -6.050  18.328  70.050  1.00  0.00    -0.114 A  
HETATM    5  N   UNK A   0      -5.143  18.951  69.222  1.00  0.00    -0.184 NA 
HETATM    6  C   UNK A   0      -5.784  19.491  68.125  1.00  0.00    -0.202 A  
HETATM    7  H   UNK A   0      -4.139  19.006  69.396  1.00  0.00     0.000 HD 
HETATM    8  C   UNK A   0      -5.339  20.251  67.040  1.00  0.00    -0.182 A  
HETATM    9  C   UNK A   0      -6.293  20.542  66.048  1.00  0.00    -0.264 A  
HETATM   10  C   UNK A   0      -7.593  19.997  66.077  1.00  0.00    -0.326 A  
HETATM   11  C   UNK A   0      -7.997  19.198  67.154  1.00  0.00    -0.279 A  
HETATM   12  C   UNK A   0      -7.096  19.080  68.226  1.00  0.00    -0.296 A  
HETATM   13  C   UNK A   0      -9.125  18.249  67.279  1.00  0.00    -0.256 C  
HETATM   14  C   UNK A   0      -9.665  17.633  66.213  1.00  0.00    -0.275 C  
HETATM   15  C   UNK A   0     -10.297  16.255  66.452  1.00  0.00    -0.319 C  
HETATM   16  C   UNK A   0     -11.718  18.382  68.826  1.00  0.00     3.307 C  
HETATM   17  C   UNK A   0     -11.171  16.234  67.753  1.00  0.00    -0.163 C  
HETATM   18  N   UNK A   0     -10.826  17.221  68.812  1.00  0.00    -0.281 NA 
ENDROOT
BRANCH  15  19
HETATM   19  C   UNK A   0      -9.136  15.192  66.534  1.00  0.00    -0.294 C  
ATOM     20  N   ALA A   1      -8.321  15.312  67.653  1.00  0.00    -0.155 N  
ATOM     21  H   ALA A   1      -8.324  16.208  68.142  1.00  0.00     0.000 HD 
HETATM   22  O   UNK A   0      -8.934  14.336  65.687  1.00  0.00     0.368 OA 
BRANCH  20  23
ATOM     23  CA  ALA A   1      -7.455  14.250  68.189  1.00  0.00    -0.131 C  
ATOM     24  CB  ALA A   1      -6.445  14.795  69.197  1.00  0.00    -0.109 C  
BRANCH  23  25
ATOM     25  C   ALA A   1      -8.200  13.034  68.761  1.00  0.00     0.111 C  
ATOM     26  O   ALA A   1      -9.529  13.401  69.122  1.00  0.00    -0.335 OA 
ATOM     27  H   ALA A   1      -9.989  12.650  69.476  1.00  0.00     0.000 HD 
ENDBRANCH  23  25
ENDBRANCH  20  23
ENDBRANCH  15  19
TORSDOF 3
ENDMDL
MODEL      167
REMARK 921   NORMALIZED FREE ENERGY PREDICTED BY IDOCK:    1.75 KCAL/MOL
REMARK 922        TOTAL FREE ENERGY PREDICTED BY IDOCK:    1.61 KCAL/MOL
REMARK 923 INTER-LIGAND FREE ENERGY PREDICTED BY IDOCK:    1.00 KCAL/MOL
REMARK 924 INTRA-LIGAND FREE ENERGY PREDICTED BY IDOCK:    0.61 KCAL/MOL
REMARK 927      BINDING AFFINITY PREDICTED BY RF-SCORE:    0.00 PKD
ROOT
HETATM    1  C   UNK A   0      -9.932  15.406  68.122  1.00  0.00    -0.221 C  
HETATM    2  C   UNK A   0     -11.411  15.637  67.725  1.00  0.00    -0.209 C  
HETATM    3  C   UNK A   0     -12.255  14.957  68.750  1.00  0.00    -0.122 A  
HETATM    4  C   UNK A   0     -13.362  14.150  68.708  1.00  0.00     3.422 A  
HETATM    5  N   UNK A   0     -13.730  13.888  70.009  1.00  0.00     0.919 NA 
HETATM    6  C   UNK A   0     -12.846  14.482  70.888  1.00  0.00    -0.360 A  
HETATM    7  H   UNK A   0     -14.541  13.334  70.284  1.00  0.00     0.000 HD 
HETATM    8  C   UNK A   0     -12.798  14.563  72.282  1.00  0.00    -0.427 A  
HETATM    9  C   UNK A   0     -11.663  15.186  72.833  1.00  0.00    -0.422 A  
HETATM   10  C   UNK A   0     -10.574  15.596  72.038  1.00  0.00     1.140 A  
HETATM   11  C   UNK A   0     -10.629  15.459  70.645  1.00  0.00    -0.165 A  
HETATM   12  C   UNK A   0     -11.846  15.015  70.101  1.00  0.00    -0.357 A  
HETATM   13  C   UNK A   0      -9.551  15.476  69.633  1.00  0.00    -0.264 C  
HETATM   14  C   UNK A   0      -8.283  15.141  69.930  1.00  0.00     0.160 C  
HETATM   15  C   UNK A   0      -7.436  14.545  68.797  1.00  0.00    -0.132 C  
HETATM   16  C   UNK A   0      -8.781  17.506  67.530  1.00  0.00    -0.225 C  
HETATM   17  C   UNK A   0      -7.625  15.334  67.455  1.00  0.00    -0.200 C  
HETATM   18  N   UNK A   0      -8.907  16.069  67.280  1.00  0.00    -0.186 NA 
ENDROOT
BRANCH  15  19
HETATM   19  C   UNK A   0      -7.843  13.032  68.626  1.00  0.00    -0.050 C  
ATOM     20  N   ALA A   1      -9.104  12.832  68.078  1.00  0.00    -0.201 N  
ATOM     21  H   ALA A   1      -9.764  13.608  68.122  1.00  0.00     0.000 HD 
HETATM   22  O   UNK A   0      -7.135  12.094  68.959  1.00  0.00    -0.104 OA 
BRANCH  20  23
ATOM     23  CA  ALA A   1      -9.563  11.587  67.441  1.00  0.00    -0.168 C  
ATOM     24  CB  ALA A   1      -8.596  11.113  66.357  1.00  0.00    -0.172 C  
BRANCH  23  25
ATOM     25  C   ALA A   1      -9.898  10.446  68.415  1.00  0.00    -0.162 C  
ATOM     26  O   ALA A   1     -11.163   9.878  68.085  1.00  0.00    -0.491 OA 
ATOM     27  H   ALA A   1     -11.370   9.173  68.687  1.00  0.00     0.000 HD 
ENDBRANCH  23  25
ENDBRANCH  20  23
ENDBRANCH  15  19
TORSDOF 3
ENDMDL
MODEL      168
REMARK 921   NORMALIZED FREE ENERGY PREDICTED BY IDOCK:    3.48 KCAL/MOL
REMARK 922        TOTAL FREE ENERGY PREDICTED BY IDOCK:    3.65 KCAL/MOL
REMARK 923 INTER-LIGAND FREE ENERGY PREDICTED BY IDOCK:    3.54 KCAL/MOL
REMARK 924 INTRA-LIGAND FREE ENERGY PREDICTED BY IDOCK:    0.10 KCAL/MOL
REMARK 927      BINDING AFFINITY PREDICTED BY RF-SCORE:    0.00 PKD
ROOT
HETATM    1  C   UNK A   0     -10.962  17.474  65.826  1.00  0.00     0.185 C  
HETATM    2  C   UNK A   0     -11.710  16.537  64.844  1.00  0.00     0.534 C  
HETATM    3  C   UNK A   0     -11.081  15.190  64.953  1.00  0.00    -0.425 A  
HETATM    4  C   UNK A   0     -10.674  14.239  64.054  1.00  0.00     0.718 A  
HETATM    5  N   UNK A   0     -10.223  13.156  64.776  1.00  0.00    -0.511 NA 
HETATM    6  C   UNK A   0     -10.295  13.417  66.130  1.00  0.00    -0.295 A  
HETATM    7  H   UNK A   0      -9.884  12.285  64.368  1.00  0.00     0.000 HD 
HETATM    8  C   UNK A   0     -10.016  12.650  67.264  1.00  0.00    -0.212 A  
HETATM    9  C   UNK A   0     -10.121  13.307  68.504  1.00  0.00    -0.208 A  
HETATM   10  C   UNK A   0     -10.372  14.691  68.599  1.00  0.00    -0.246 A  
HETATM   11  C   UNK A   0     -10.601  15.445  67.441  1.00  0.00    -0.289 A  
HETATM   12  C   UNK A   0     -10.684  14.736  66.231  1.00  0.00    -0.313 A  
HETATM   13  C   UNK A   0     -10.545  16.906  67.218  1.00  0.00    -0.270 C  
HETATM   14  C   UNK A   0      -9.789  17.719  67.975  1.00  0.00    -0.317 C  
HETATM   15  C   UNK A   0      -9.265  19.000  67.312  1.00  0.00    -0.321 C  
HETATM   16  C   UNK A   0     -12.706  18.963  66.733  1.00  0.00     6.699 C  
HETATM   17  C   UNK A   0     -10.376  19.713  66.467  1.00  0.00    -0.493 C  
HETATM   18  N   UNK A   0     -11.476  18.859  65.945  1.00  0.00     0.916 NA 
ENDROOT
BRANCH  15  19
HETATM   19  C   UNK A   0      -8.029  18.616  66.413  1.00  0.00    -0.277 C  
ATOM     20  N   ALA A   1      -7.654  19.593  65.498  1.00  0.00    -0.171 N  
ATOM     21  H   ALA A   1      -8.347  20.303  65.260  1.00  0.00     0.000 HD 
HETATM   22  O   UNK A   0      -7.443  17.546  66.480  1.00  0.00    -0.222 OA 
BRANCH  20  23
ATOM     23  CA  ALA A   1      -6.338  19.683  64.846  1.00  0.00    -0.271 C  
ATOM     24  CB  ALA A   1      -6.240  20.903  63.931  1.00  0.00    -0.345 C  
BRANCH  23  25
ATOM     25  C   ALA A   1      -5.136  19.614  65.801  1.00  0.00    -0.151 C  
ATOM     26  O   ALA A   1      -5.585  19.647  67.153  1.00  0.00    -0.174 OA 
ATOM     27  H   ALA A   1      -4.842  19.605  67.744  1.00  0.00     0.000 HD 
ENDBRANCH  23  25
ENDBRANCH  20  23
ENDBRANCH  15  19
TORSDOF 3
ENDMDL
MODEL      169
REMARK 921   NORMALIZED FREE ENERGY PREDICTED BY IDOCK:   17.68 KCAL/MOL
REMARK 922        TOTAL FREE ENERGY PREDICTED BY IDOCK:   20.34 KCAL/MOL
REMARK 923 INTER-LIGAND FREE ENERGY PREDICTED BY IDOCK:   19.98 KCAL/MOL
REMARK 924 INTRA-LIGAND FREE ENERGY PREDICTED BY IDOCK:    0.36 KCAL/MOL
REMARK 927      BINDING AFFINITY PREDICTED BY RF-SCORE:    0.00 PKD
ROOT
HETATM    1  C   UNK A   0     -11.312  13.886  67.506  1.00  0.00    -0.318 C  
HETATM    2  C   UNK A   0     -10.511  12.872  68.359  1.00  0.00    -0.260 C  
HETATM    3  C   UNK A   0      -9.207  12.646  67.671  1.00  0.00    -0.191 A  
HETATM    4  C   UNK A   0      -8.452  11.543  67.371  1.00  0.00    -0.147 A  
HETATM    5  N   UNK A   0      -7.293  11.987  66.774  1.00  0.00    -0.367 NA 
HETATM    6  C   UNK A   0      -7.313  13.362  66.647  1.00  0.00     1.235 A  
HETATM    7  H   UNK A   0      -6.528  11.385  66.470  1.00  0.00     0.000 HD 
HETATM    8  C   UNK A   0      -6.384  14.288  66.169  1.00  0.00     5.593 A  
HETATM    9  C   UNK A   0      -6.811  15.628  66.107  1.00  0.00     2.535 A  
HETATM   10  C   UNK A   0      -8.139  16.003  66.392  1.00  0.00    -0.255 A  
HETATM   11  C   UNK A   0      -9.064  15.045  66.825  1.00  0.00    -0.287 A  
HETATM   12  C   UNK A   0      -8.568  13.752  67.066  1.00  0.00    -0.182 A  
HETATM   13  C   UNK A   0     -10.542  15.079  66.858  1.00  0.00    -0.297 C  
HETATM   14  C   UNK A   0     -11.261  15.852  66.025  1.00  0.00     0.090 C  
HETATM   15  C   UNK A   0     -12.667  15.360  65.658  1.00  0.00     1.162 C  
HETATM   16  C   UNK A   0     -12.510  15.287  69.144  1.00  0.00     0.061 C  
HETATM   17  C   UNK A   0     -13.442  14.825  66.912  1.00  0.00     4.143 C  
HETATM   18  N   UNK A   0     -12.620  14.324  68.047  1.00  0.00    -0.313 NA 
ENDROOT
BRANCH  15  19
HETATM   19  C   UNK A   0     -12.522  14.237  64.561  1.00  0.00    -0.333 C  
ATOM     20  N   ALA A   1     -11.600  13.245  64.871  1.00  0.00    -0.314 N  
ATOM     21  H   ALA A   1     -10.896  13.461  65.577  1.00  0.00     0.000 HD 
HETATM   22  O   UNK A   0     -13.142  14.227  63.509  1.00  0.00     0.015 OA 
BRANCH  20  23
ATOM     23  CA  ALA A   1     -11.558  11.906  64.260  1.00  0.00    -0.324 C  
ATOM     24  CB  ALA A   1     -10.321  11.720  63.383  1.00  0.00    -0.481 C  
BRANCH  23  25
ATOM     25  C   ALA A   1     -11.711  10.738  65.247  1.00  0.00     1.537 C  
ATOM     26  O   ALA A   1     -12.288   9.614  64.587  1.00  0.00     7.678 OA 
ATOM     27  H   ALA A   1     -12.383   8.893  65.197  1.00  0.00     0.000 HD 
ENDBRANCH  23  25
ENDBRANCH  20  23
ENDBRANCH  15  19
TORSDOF 3
ENDMDL
MODEL      170
REMARK 921   NORMALIZED FREE ENERGY PREDICTED BY IDOCK:   20.63 KCAL/MOL
REMARK 922        TOTAL FREE ENERGY PREDICTED BY IDOCK:   23.80 KCAL/MOL
REMARK 923 INTER-LIGAND FREE ENERGY PREDICTED BY IDOCK:   23.80 KCAL/MOL
REMARK 924 INTRA-LIGAND FREE ENERGY PREDICTED BY IDOCK:    0.00 KCAL/MOL
REMARK 927      BINDING AFFINITY PREDICTED BY RF-SCORE:    0.00 PKD
ROOT
HETATM    1  C   UNK A   0      -6.918  12.765  68.949  1.00  0.00    -0.084 C  
HETATM    2  C   UNK A   0      -5.878  13.593  68.154  1.00  0.00    -0.121 C  
HETATM    3  C   UNK A   0      -6.110  15.028  68.485  1.00  0.00    -0.096 A  
HETATM    4  C   UNK A   0      -6.178  16.188  67.757  1.00  0.00    -0.137 A  
HETATM    5  N   UNK A   0      -6.353  17.224  68.648  1.00  0.00    -0.166 NA 
HETATM    6  C   UNK A   0      -6.442  16.739  69.938  1.00  0.00    -0.009 A  
HETATM    7  H   UNK A   0      -6.408  18.209  68.391  1.00  0.00     0.000 HD 
HETATM    8  C   UNK A   0      -6.567  17.360  71.183  1.00  0.00     2.850 A  
HETATM    9  C   UNK A   0      -6.728  16.510  72.293  1.00  0.00     5.802 A  
HETATM   10  C   UNK A   0      -6.881  15.116  72.151  1.00  0.00     2.536 A  
HETATM   11  C   UNK A   0      -6.799  14.524  70.885  1.00  0.00     0.596 A  
HETATM   12  C   UNK A   0      -6.444  15.365  69.816  1.00  0.00    -0.171 A  
HETATM   13  C   UNK A   0      -7.247  13.196  70.411  1.00  0.00     1.871 C  
HETATM   14  C   UNK A   0      -8.247  12.523  71.006  1.00  0.00     9.342 C  
HETATM   15  C   UNK A   0      -9.065  11.569  70.125  1.00  0.00     2.775 C  
HETATM   16  C   UNK A   0      -5.721  10.712  69.611  1.00  0.00    -0.042 C  
HETATM   17  C   UNK A   0      -8.146  10.714  69.186  1.00  0.00    -0.141 C  
HETATM   18  N   UNK A   0      -6.820  11.290  68.835  1.00  0.00    -0.078 NA 
ENDROOT
BRANCH  15  19
HETATM   19  C   UNK A   0     -10.085  12.431  69.287  1.00  0.00     0.466 C  
ATOM     20  N   ALA A   1      -9.619  12.822  68.037  1.00  0.00    -0.211 N  
ATOM     21  H   ALA A   1      -8.611  12.806  67.886  1.00  0.00     0.000 HD 
HETATM   22  O   UNK A   0     -11.190  12.760  69.688  1.00  0.00    -0.141 OA 
BRANCH  20  23
ATOM     23  CA  ALA A   1     -10.467  13.256  66.915  1.00  0.00    -0.261 C  
ATOM     24  CB  ALA A   1     -10.863  14.727  67.039  1.00  0.00    -0.315 C  
BRANCH  23  25
ATOM     25  C   ALA A   1      -9.898  12.957  65.519  1.00  0.00    -0.146 C  
ATOM     26  O   ALA A   1     -10.945  12.968  64.553  1.00  0.00    -0.320 OA 
ATOM     27  H   ALA A   1     -10.594  12.782  63.690  1.00  0.00     0.000 HD 
ENDBRANCH  23  25
ENDBRANCH  20  23
ENDBRANCH  15  19
TORSDOF 3
ENDMDL
MODEL      171
REMARK 921   NORMALIZED FREE ENERGY PREDICTED BY IDOCK:   22.78 KCAL/MOL
REMARK 922        TOTAL FREE ENERGY PREDICTED BY IDOCK:   26.33 KCAL/MOL
REMARK 923 INTER-LIGAND FREE ENERGY PREDICTED BY IDOCK:   26.82 KCAL/MOL
REMARK 924 INTRA-LIGAND FREE ENERGY PREDICTED BY IDOCK:   -0.49 KCAL/MOL
REMARK 927      BINDING AFFINITY PREDICTED BY RF-SCORE:    0.00 PKD
ROOT
HETATM    1  C   UNK A   0     -11.027  12.098  66.913  1.00  0.00    -0.270 C  
HETATM    2  C   UNK A   0     -11.460  12.732  65.568  1.00  0.00    -0.372 C  
HETATM    3  C   UNK A   0     -10.552  13.886  65.310  1.00  0.00    -0.372 A  
HETATM    4  C   UNK A   0     -10.728  15.176  64.883  1.00  0.00    -0.398 A  
HETATM    5  N   UNK A   0      -9.480  15.747  64.773  1.00  0.00     0.389 NA 
HETATM    6  C   UNK A   0      -8.504  14.852  65.166  1.00  0.00     4.096 A  
HETATM    7  H   UNK A   0      -9.301  16.697  64.447  1.00  0.00     0.000 HD 
HETATM    8  C   UNK A   0      -7.110  14.915  65.195  1.00  0.00    11.496 A  
HETATM    9  C   UNK A   0      -6.446  13.813  65.765  1.00  0.00     7.934 A  
HETATM   10  C   UNK A   0      -7.144  12.758  66.386  1.00  0.00     1.549 A  
HETATM   11  C   UNK A   0      -8.545  12.744  66.385  1.00  0.00     0.187 A  
HETATM   12  C   UNK A   0      -9.185  13.752  65.643  1.00  0.00     0.404 A  
HETATM   13  C   UNK A   0      -9.501  11.988  67.222  1.00  0.00    -0.181 C  
HETATM   14  C   UNK A   0      -9.186  11.550  68.453  1.00  0.00    -0.190 C  
HETATM   15  C   UNK A   0     -10.338  11.408  69.457  1.00  0.00     0.121 C  
HETATM   16  C   UNK A   0     -11.341   9.671  66.601  1.00  0.00     1.212 C  
HETATM   17  C   UNK A   0     -11.596  10.734  68.807  1.00  0.00    -0.280 C  
HETATM   18  N   UNK A   0     -11.747  10.872  67.333  1.00  0.00    -0.480 NA 
ENDROOT
BRANCH  15  19
HETATM   19  C   UNK A   0     -10.686  12.843  70.009  1.00  0.00     1.114 C  
ATOM     20  N   ALA A   1     -12.023  13.024  70.341  1.00  0.00    -0.517 N  
ATOM     21  H   ALA A   1     -12.701  12.379  69.934  1.00  0.00     0.000 HD 
HETATM   22  O   UNK A   0      -9.871  13.744  70.125  1.00  0.00     1.508 OA 
BRANCH  20  23
ATOM     23  CA  ALA A   1     -12.539  14.074  71.234  1.00  0.00    -0.367 C  
ATOM     24  CB  ALA A   1     -14.050  14.254  71.086  1.00  0.00    -0.093 C  
BRANCH  23  25
ATOM     25  C   ALA A   1     -12.147  13.918  72.712  1.00  0.00     0.704 C  
ATOM     26  O   ALA A   1     -11.682  15.163  73.227  1.00  0.00    -0.378 OA 
ATOM     27  H   ALA A   1     -11.439  15.067  74.140  1.00  0.00     0.000 HD 
ENDBRANCH  23  25
ENDBRANCH  20  23
ENDBRANCH  15  19
TORSDOF 3
ENDMDL
MODEL      172
REMARK 921   NORMALIZED FREE ENERGY PREDICTED BY IDOCK:   44.76 KCAL/MOL
REMARK 922        TOTAL FREE ENERGY PREDICTED BY IDOCK:   52.16 KCAL/MOL
REMARK 923 INTER-LIGAND FREE ENERGY PREDICTED BY IDOCK:   51.93 KCAL/MOL
REMARK 924 INTRA-LIGAND FREE ENERGY PREDICTED BY IDOCK:    0.23 KCAL/MOL
REMARK 927      BINDING AFFINITY PREDICTED BY RF-SCORE:    0.00 PKD
ROOT
HETATM    1  C   UNK A   0      -9.784  16.369  69.769  1.00  0.00     0.164 C  
HETATM    2  C   UNK A   0     -10.564  15.544  68.715  1.00  0.00    -0.242 C  
HETATM    3  C   UNK A   0     -10.834  14.205  69.314  1.00  0.00    -0.219 A  
HETATM    4  C   UNK A   0     -10.745  12.912  68.867  1.00  0.00    -0.160 A  
HETATM    5  N   UNK A   0     -11.204  12.095  69.877  1.00  0.00    -0.488 NA 
HETATM    6  C   UNK A   0     -11.546  12.846  70.985  1.00  0.00     1.184 A  
HETATM    7  H   UNK A   0     -11.280  11.081  69.815  1.00  0.00     0.000 HD 
HETATM    8  C   UNK A   0     -12.098  12.516  72.224  1.00  0.00     1.998 A  
HETATM    9  C   UNK A   0     -12.217  13.566  73.155  1.00  0.00     1.586 A  
HETATM   10  C   UNK A   0     -11.697  14.851  72.903  1.00  0.00    -0.227 A  
HETATM   11  C   UNK A   0     -11.105  15.141  71.667  1.00  0.00    -0.193 A  
HETATM   12  C   UNK A   0     -11.171  14.138  70.684  1.00  0.00     0.210 A  
HETATM   13  C   UNK A   0     -10.203  16.242  71.266  1.00  0.00     2.003 C  
HETATM   14  C   UNK A   0      -9.412  16.878  72.148  1.00  0.00     9.913 C  
HETATM   15  C   UNK A   0      -8.103  17.471  71.608  1.00  0.00    10.819 C  
HETATM   16  C   UNK A   0     -10.629  18.673  69.521  1.00  0.00     0.970 C  
HETATM   17  C   UNK A   0      -8.321  18.214  70.245  1.00  0.00     2.958 C  
HETATM   18  N   UNK A   0      -9.477  17.776  69.417  1.00  0.00     0.158 NA 
ENDROOT
BRANCH  15  19
HETATM   19  C   UNK A   0      -7.062  16.298  71.454  1.00  0.00     4.250 C  
ATOM     20  N   ALA A   1      -7.370  15.154  72.181  1.00  0.00     3.011 N  
ATOM     21  H   ALA A   1      -8.021  15.254  72.960  1.00  0.00     0.000 HD 
HETATM   22  O   UNK A   0      -6.050  16.369  70.774  1.00  0.00     0.212 OA 
BRANCH  20  23
ATOM     23  CA  ALA A   1      -6.830  13.811  71.915  1.00  0.00     3.098 C  
ATOM     24  CB  ALA A   1      -5.324  13.843  71.664  1.00  0.00    -0.215 C  
BRANCH  23  25
ATOM     25  C   ALA A   1      -7.188  12.749  72.968  1.00  0.00     9.844 C  
ATOM     26  O   ALA A   1      -6.000  12.218  73.549  1.00  0.00     1.299 OA 
ATOM     27  H   ALA A   1      -6.221  11.562  74.199  1.00  0.00     0.000 HD 
ENDBRANCH  23  25
ENDBRANCH  20  23
ENDBRANCH  15  19
TORSDOF 3
ENDMDL
