MODEL        1
REMARK 921   NORMALIZED FREE ENERGY PREDICTED BY IDOCK:   -9.33 KCAL/MOL
REMARK 922        TOTAL FREE ENERGY PREDICTED BY IDOCK:  -12.37 KCAL/MOL
REMARK 923 INTER-LIGAND FREE ENERGY PREDICTED BY IDOCK:  -11.51 KCAL/MOL
REMARK 924 INTRA-LIGAND FREE ENERGY PREDICTED BY IDOCK:   -0.86 KCAL/MOL
REMARK 927      BINDING AFFINITY PREDICTED BY RF-SCORE:    0.00 PKD
ROOT
HETATM    1  C   UNL     1      -9.911  17.413  67.675  1.00  0.00    -0.300 A  
HETATM    2  C   UNL     1      -9.219  18.752  67.977  1.00  0.00    -0.334 A  
HETATM    3  C   UNL     1      -9.829  19.725  66.902  1.00  0.00    -0.520 A  
HETATM    4  C   UNL     1     -10.669  18.847  65.982  1.00  0.00    -0.301 A  
HETATM    5  N   UNL     1     -10.187  17.516  66.275  1.00  0.00    -0.355 N  
HETATM    6  C   UNL     1     -10.718  16.463  65.602  1.00  0.00    -0.270 C  
HETATM    7  O   UNL     1     -10.792  16.472  64.374  1.00  0.00    -0.801 OA 
HETATM    8  C   UNL     1     -11.103  15.256  66.498  1.00  0.00    -0.271 C  
HETATM    9  O   UNL     1      -9.371  14.556  68.081  1.00  0.00    -0.185 OA 
HETATM   10  N   UNL     1     -11.132  15.596  68.142  1.00  0.00    -0.316 N  
HETATM   11  C   UNL     1     -11.147  14.660  69.219  1.00  0.00    -0.269 C  
HETATM   12  H   UNL     1      -9.319  15.395  70.108  1.00  0.00     0.000 HD 
HETATM   13  C   UNL     1     -10.491  13.470  68.626  1.00  0.00    -0.232 C  
HETATM   14  O   UNL     1     -11.593  14.813  70.345  1.00  0.00    -0.263 OA 
HETATM   15  O   UNL     1      -9.386  16.250  69.700  1.00  0.00    -0.120 OA 
HETATM   16  C   UNL     1     -11.997  13.019  68.277  1.00  0.00    -0.306 C  
HETATM   17  C   UNL     1      -9.798  15.947  68.374  1.00  0.00    -0.214 C  
ENDROOT
BRANCH   8  18
HETATM   18  C   UNL     1     -12.259  14.579  65.763  1.00  0.00    -0.270 C  
BRANCH  18  19
HETATM   19  C   UNL     1     -11.847  13.446  64.887  1.00  0.00    -0.403 A  
HETATM   20  C   UNL     1     -10.063  12.338  63.716  1.00  0.00    -0.376 A  
HETATM   21  C   UNL     1     -10.994  11.488  63.131  1.00  0.00    -0.195 A  
HETATM   22  C   UNL     1     -12.772  12.570  64.318  1.00  0.00    -0.432 A  
HETATM   23  C   UNL     1     -12.366  11.593  63.417  1.00  0.00    -0.334 A  
HETATM   24  C   UNL     1     -10.486  13.313  64.599  1.00  0.00    -0.420 A  
ENDBRANCH  18  19
ENDBRANCH   8  18
BRANCH  13  25
HETATM   25  N   UNL     1      -9.836  12.248  69.054  1.00  0.00    -0.406 N  
HETATM   26  O   UNL     1      -9.583  11.422  66.875  1.00  0.00    -0.181 OA 
HETATM   27  C   UNL     1      -9.567  11.230  68.088  1.00  0.00    -0.186 C  
HETATM   28  H   UNL     1      -9.572  12.118  70.031  1.00  0.00     0.000 HD 
BRANCH  27  29
HETATM   29  C   UNL     1      -9.296   9.844  68.703  1.00  0.00    -0.149 C  
HETATM   30  C   UNL     1     -10.393   8.653  68.743  1.00  0.00    -0.228 C  
HETATM   31  N   UNL     1      -9.814   6.884  68.548  1.00  0.00    -0.142 NA 
HETATM   32  C   UNL     1      -8.739   5.667  68.727  1.00  0.00    -0.106 C  
HETATM   33  C   UNL     1      -9.825   7.108  67.265  1.00  0.00    -0.167 C  
HETATM   34  C   UNL     1     -11.283   6.328  68.267  1.00  0.00    -0.148 C  
HETATM   35  C   UNL     1     -11.162   6.564  70.135  1.00  0.00    -0.437 A  
HETATM   36  C   UNL     1     -12.074   6.604  71.161  1.00  0.00    -0.335 A  
HETATM   37  N   UNL     1     -11.443   7.165  72.281  1.00  0.00    -0.264 NA 
HETATM   38  H   UNL     1     -11.919   7.310  73.170  1.00  0.00     0.000 HD 
HETATM   39  C   UNL     1     -10.106   7.509  72.072  1.00  0.00    -0.187 A  
HETATM   40  C   UNL     1      -9.158   8.172  72.866  1.00  0.00    -0.337 A  
HETATM   41  C   UNL     1      -7.891   8.503  72.302  1.00  0.00    -0.122 A  
HETATM   42  C   UNL     1      -7.541   8.298  70.951  1.00  0.00    -0.076 A  
HETATM   43  C   UNL     1      -8.480   7.736  70.096  1.00  0.00    -0.134 A  
HETATM   44  C   UNL     1      -9.804   7.199  70.765  1.00  0.00    -0.180 A  
HETATM   45  C   UNL     1      -8.378   7.891  68.231  1.00  0.00    -0.124 C  
HETATM   46  C   UNL     1      -8.222   9.183  67.898  1.00  0.00    -0.112 C  
ENDBRANCH  27  29
ENDBRANCH  13  25
TORSDOF 4
ENDMDL
MODEL        2
REMARK 921   NORMALIZED FREE ENERGY PREDICTED BY IDOCK:   -9.20 KCAL/MOL
REMARK 922        TOTAL FREE ENERGY PREDICTED BY IDOCK:  -12.21 KCAL/MOL
REMARK 923 INTER-LIGAND FREE ENERGY PREDICTED BY IDOCK:  -11.32 KCAL/MOL
REMARK 924 INTRA-LIGAND FREE ENERGY PREDICTED BY IDOCK:   -0.90 KCAL/MOL
REMARK 927      BINDING AFFINITY PREDICTED BY RF-SCORE:    0.00 PKD
ROOT
HETATM    1  C   UNL     1      -9.951  17.927  67.475  1.00  0.00    -0.322 A  
HETATM    2  C   UNL     1      -9.266  19.288  67.674  1.00  0.00    -0.362 A  
HETATM    3  C   UNL     1      -9.919  20.189  66.562  1.00  0.00    -0.586 A  
HETATM    4  C   UNL     1     -10.776  19.248  65.723  1.00  0.00    -0.330 A  
HETATM    5  N   UNL     1     -10.270  17.942  66.080  1.00  0.00    -0.363 N  
HETATM    6  C   UNL     1     -10.809  16.845  65.488  1.00  0.00    -0.096 C  
HETATM    7  O   UNL     1     -10.919  16.779  64.266  1.00  0.00    -0.933 OA 
HETATM    8  C   UNL     1     -11.152  15.691  66.467  1.00  0.00    -0.135 C  
HETATM    9  O   UNL     1      -9.367  15.105  68.036  1.00  0.00    -0.184 OA 
HETATM   10  N   UNL     1     -11.137  16.130  68.088  1.00  0.00    -0.342 N  
HETATM   11  C   UNL     1     -11.108  15.260  69.220  1.00  0.00    -0.274 C  
HETATM   12  H   UNL     1      -9.264  16.066  70.006  1.00  0.00     0.000 HD 
HETATM   13  C   UNL     1     -10.457  14.043  68.680  1.00  0.00    -0.247 C  
HETATM   14  O   UNL     1     -11.523  15.477  70.347  1.00  0.00    -0.283 OA 
HETATM   15  O   UNL     1      -9.352  16.894  69.549  1.00  0.00     0.015 OA 
HETATM   16  C   UNL     1     -11.967  13.557  68.405  1.00  0.00    -0.378 C  
HETATM   17  C   UNL     1      -9.800  16.507  68.258  1.00  0.00    -0.243 C  
ENDROOT
BRANCH   8  18
HETATM   18  C   UNL     1     -12.322  14.959  65.810  1.00  0.00     0.138 C  
BRANCH  18  19
HETATM   19  C   UNL     1     -11.916  13.842  64.910  1.00  0.00    -0.412 A  
HETATM   20  C   UNL     1     -12.569  11.843  63.744  1.00  0.00    -0.509 A  
HETATM   21  C   UNL     1     -11.242  11.636  63.387  1.00  0.00    -0.401 A  
HETATM   22  C   UNL     1     -10.591  13.642  64.524  1.00  0.00    -0.428 A  
HETATM   23  C   UNL     1     -10.228  12.528  63.776  1.00  0.00    -0.360 A  
HETATM   24  C   UNL     1     -12.910  12.949  64.499  1.00  0.00    -0.273 A  
ENDBRANCH  18  19
ENDBRANCH   8  18
BRANCH  13  25
HETATM   25  N   UNL     1      -9.776  12.856  69.161  1.00  0.00    -0.203 N  
HETATM   26  O   UNL     1      -9.215  12.103  67.013  1.00  0.00    -0.189 OA 
HETATM   27  C   UNL     1      -9.327  11.882  68.216  1.00  0.00    -0.193 C  
HETATM   28  H   UNL     1      -9.619  12.719  70.160  1.00  0.00     0.000 HD 
BRANCH  27  29
HETATM   29  C   UNL     1      -9.037  10.501  68.835  1.00  0.00    -0.180 C  
HETATM   30  C   UNL     1      -9.117   9.113  68.004  1.00  0.00    -0.136 C  
HETATM   31  N   UNL     1      -7.904   7.748  68.408  1.00  0.00    -0.119 NA 
HETATM   32  C   UNL     1      -6.950   6.888  69.417  1.00  0.00    -0.066 C  
HETATM   33  C   UNL     1      -7.062   8.379  67.640  1.00  0.00    -0.083 C  
HETATM   34  C   UNL     1      -8.216   6.937  67.069  1.00  0.00    -0.120 C  
HETATM   35  C   UNL     1      -9.633   6.552  68.255  1.00  0.00    -0.131 A  
HETATM   36  C   UNL     1     -10.878   5.990  68.117  1.00  0.00    -0.281 A  
HETATM   37  N   UNL     1     -11.620   6.292  69.269  1.00  0.00    -0.513 NA 
HETATM   38  H   UNL     1     -12.585   5.991  69.400  1.00  0.00     0.000 HD 
HETATM   39  C   UNL     1     -10.923   7.040  70.219  1.00  0.00    -0.271 A  
HETATM   40  C   UNL     1     -11.306   7.630  71.433  1.00  0.00    -0.285 A  
HETATM   41  C   UNL     1     -10.377   8.467  72.119  1.00  0.00    -0.409 A  
HETATM   42  C   UNL     1      -9.112   8.835  71.617  1.00  0.00    -0.314 A  
HETATM   43  C   UNL     1      -8.724   8.359  70.371  1.00  0.00    -0.142 A  
HETATM   44  C   UNL     1      -9.669   7.285  69.706  1.00  0.00    -0.166 A  
HETATM   45  C   UNL     1      -7.365   9.156  69.356  1.00  0.00    -0.076 C  
HETATM   46  C   UNL     1      -7.601  10.475  69.251  1.00  0.00    -0.134 C  
ENDBRANCH  27  29
ENDBRANCH  13  25
TORSDOF 4
ENDMDL
MODEL        3
REMARK 921   NORMALIZED FREE ENERGY PREDICTED BY IDOCK:   -8.82 KCAL/MOL
REMARK 922        TOTAL FREE ENERGY PREDICTED BY IDOCK:  -11.75 KCAL/MOL
REMARK 923 INTER-LIGAND FREE ENERGY PREDICTED BY IDOCK:  -11.01 KCAL/MOL
REMARK 924 INTRA-LIGAND FREE ENERGY PREDICTED BY IDOCK:   -0.74 KCAL/MOL
REMARK 927      BINDING AFFINITY PREDICTED BY RF-SCORE:    0.00 PKD
ROOT
HETATM    1  C   UNL     1      -9.852  17.430  67.759  1.00  0.00    -0.283 A  
HETATM    2  C   UNL     1      -9.143  18.763  68.051  1.00  0.00    -0.328 A  
HETATM    3  C   UNL     1      -9.785  19.750  67.008  1.00  0.00    -0.503 A  
HETATM    4  C   UNL     1     -10.660  18.886  66.109  1.00  0.00    -0.407 A  
HETATM    5  N   UNL     1     -10.175  17.550  66.371  1.00  0.00    -0.348 N  
HETATM    6  C   UNL     1     -10.734  16.506  65.706  1.00  0.00    -0.225 C  
HETATM    7  O   UNL     1     -10.850  16.528  64.482  1.00  0.00    -0.802 OA 
HETATM    8  C   UNL     1     -11.094  15.292  66.602  1.00  0.00    -0.276 C  
HETATM    9  O   UNL     1      -9.313  14.567  68.117  1.00  0.00    -0.185 OA 
HETATM   10  N   UNL     1     -11.066  15.614  68.250  1.00  0.00    -0.320 N  
HETATM   11  C   UNL     1     -11.048  14.667  69.317  1.00  0.00    -0.269 C  
HETATM   12  H   UNL     1      -9.187  15.384  70.150  1.00  0.00     0.000 HD 
HETATM   13  C   UNL     1     -10.419  13.480  68.689  1.00  0.00    -0.232 C  
HETATM   14  O   UNL     1     -11.455  14.810  70.459  1.00  0.00    -0.270 OA 
HETATM   15  O   UNL     1      -9.263  16.244  69.753  1.00  0.00     0.022 OA 
HETATM   16  C   UNL     1     -11.938  13.040  68.388  1.00  0.00    -0.309 C  
HETATM   17  C   UNL     1      -9.722  15.957  68.439  1.00  0.00    -0.214 C  
ENDROOT
BRANCH   8  18
HETATM   18  C   UNL     1     -12.278  14.627  65.900  1.00  0.00    -0.165 C  
BRANCH  18  19
HETATM   19  C   UNL     1     -11.903  13.493  65.009  1.00  0.00    -0.377 A  
HETATM   20  C   UNL     1     -10.146  12.295  63.887  1.00  0.00    -0.374 A  
HETATM   21  C   UNL     1     -11.104  11.529  63.235  1.00  0.00    -0.273 A  
HETATM   22  C   UNL     1     -12.858  12.700  64.372  1.00  0.00    -0.344 A  
HETATM   23  C   UNL     1     -12.478  11.722  63.461  1.00  0.00    -0.504 A  
HETATM   24  C   UNL     1     -10.542  13.273  64.780  1.00  0.00    -0.402 A  
ENDBRANCH  18  19
ENDBRANCH   8  18
BRANCH  13  25
HETATM   25  N   UNL     1      -9.756  12.251  69.082  1.00  0.00    -0.272 N  
HETATM   26  O   UNL     1     -10.259  11.142  67.079  1.00  0.00    -0.201 OA 
HETATM   27  C   UNL     1      -9.879  11.099  68.245  1.00  0.00    -0.189 C  
HETATM   28  H   UNL     1      -9.210  12.210  69.943  1.00  0.00     0.000 HD 
BRANCH  27  29
HETATM   29  C   UNL     1      -9.534   9.775  68.954  1.00  0.00    -0.161 C  
HETATM   30  C   UNL     1      -9.958   9.440  70.481  1.00  0.00    -0.328 C  
HETATM   31  N   UNL     1     -10.412   7.681  70.927  1.00  0.00    -0.206 NA 
HETATM   32  C   UNL     1     -10.296   6.057  70.784  1.00  0.00    -0.224 C  
HETATM   33  C   UNL     1     -11.596   7.953  70.457  1.00  0.00    -0.144 C  
HETATM   34  C   UNL     1     -11.079   8.098  72.314  1.00  0.00    -0.344 C  
HETATM   35  C   UNL     1      -9.216   8.096  72.611  1.00  0.00    -0.332 A  
HETATM   36  C   UNL     1      -8.398   8.589  73.597  1.00  0.00     0.022 A  
HETATM   37  N   UNL     1      -7.085   8.606  73.103  1.00  0.00    -0.330 NA 
HETATM   38  H   UNL     1      -6.292   8.941  73.650  1.00  0.00     0.000 HD 
HETATM   39  C   UNL     1      -6.958   8.125  71.799  1.00  0.00    -0.076 A  
HETATM   40  C   UNL     1      -5.874   8.062  70.909  1.00  0.00    -0.033 A  
HETATM   41  C   UNL     1      -6.104   7.634  69.568  1.00  0.00    -0.030 A  
HETATM   42  C   UNL     1      -7.376   7.354  69.026  1.00  0.00    -0.091 A  
HETATM   43  C   UNL     1      -8.494   7.498  69.838  1.00  0.00    -0.138 A  
HETATM   44  C   UNL     1      -8.219   7.784  71.364  1.00  0.00    -0.106 A  
HETATM   45  C   UNL     1     -10.228   7.688  69.154  1.00  0.00    -0.204 C  
HETATM   46  C   UNL     1     -10.242   8.669  68.237  1.00  0.00    -0.237 C  
ENDBRANCH  27  29
ENDBRANCH  13  25
TORSDOF 4
ENDMDL
MODEL        4
REMARK 921   NORMALIZED FREE ENERGY PREDICTED BY IDOCK:   -8.57 KCAL/MOL
REMARK 922        TOTAL FREE ENERGY PREDICTED BY IDOCK:  -11.44 KCAL/MOL
REMARK 923 INTER-LIGAND FREE ENERGY PREDICTED BY IDOCK:  -10.57 KCAL/MOL
REMARK 924 INTRA-LIGAND FREE ENERGY PREDICTED BY IDOCK:   -0.87 KCAL/MOL
REMARK 927      BINDING AFFINITY PREDICTED BY RF-SCORE:    0.00 PKD
ROOT
HETATM    1  C   UNL     1      -9.795  17.374  67.889  1.00  0.00    -0.287 A  
HETATM    2  C   UNL     1      -9.077  18.673  68.289  1.00  0.00    -0.347 A  
HETATM    3  C   UNL     1      -9.668  19.735  67.290  1.00  0.00    -0.496 A  
HETATM    4  C   UNL     1     -10.525  18.944  66.309  1.00  0.00    -0.445 A  
HETATM    5  N   UNL     1     -10.069  17.586  66.501  1.00  0.00    -0.319 N  
HETATM    6  C   UNL     1     -10.621  16.597  65.752  1.00  0.00    -0.268 C  
HETATM    7  O   UNL     1     -10.695  16.699  64.529  1.00  0.00    -0.741 OA 
HETATM    8  C   UNL     1     -11.029  15.334  66.556  1.00  0.00    -0.295 C  
HETATM    9  O   UNL     1      -9.312  14.484  68.080  1.00  0.00    -0.185 OA 
HETATM   10  N   UNL     1     -11.052  15.551  68.222  1.00  0.00    -0.307 N  
HETATM   11  C   UNL     1     -11.085  14.537  69.226  1.00  0.00    -0.270 C  
HETATM   12  H   UNL     1      -9.243  15.169  70.164  1.00  0.00     0.000 HD 
HETATM   13  C   UNL     1     -10.452  13.383  68.544  1.00  0.00    -0.252 C  
HETATM   14  O   UNL     1     -11.528  14.615  70.360  1.00  0.00    -0.263 OA 
HETATM   15  O   UNL     1      -9.293  16.053  69.821  1.00  0.00    -0.149 OA 
HETATM   16  C   UNL     1     -11.967  12.988  68.166  1.00  0.00    -0.322 C  
HETATM   17  C   UNL     1      -9.711  15.858  68.477  1.00  0.00    -0.211 C  
ENDROOT
BRANCH   8  18
HETATM   18  C   UNL     1     -12.198  14.736  65.774  1.00  0.00    -0.058 C  
BRANCH  18  19
HETATM   19  C   UNL     1     -11.825  13.588  64.900  1.00  0.00    -0.402 A  
HETATM   20  C   UNL     1     -10.068  12.357  63.814  1.00  0.00    -0.334 A  
HETATM   21  C   UNL     1     -11.027  11.597  63.156  1.00  0.00    -0.247 A  
HETATM   22  C   UNL     1     -12.782  12.801  64.257  1.00  0.00    -0.338 A  
HETATM   23  C   UNL     1     -12.402  11.810  63.360  1.00  0.00    -0.476 A  
HETATM   24  C   UNL     1     -10.465  13.349  64.691  1.00  0.00    -0.428 A  
ENDBRANCH  18  19
ENDBRANCH   8  18
BRANCH  13  25
HETATM   25  N   UNL     1      -9.822  12.120  68.880  1.00  0.00    -0.417 N  
HETATM   26  O   UNL     1      -8.577  12.023  66.896  1.00  0.00    -0.182 OA 
HETATM   27  C   UNL     1      -9.015  11.465  67.898  1.00  0.00    -0.153 C  
HETATM   28  H   UNL     1      -9.952  11.705  69.803  1.00  0.00     0.000 HD 
BRANCH  27  29
HETATM   29  C   UNL     1      -8.775   9.970  68.185  1.00  0.00    -0.122 C  
HETATM   30  C   UNL     1      -7.713   9.061  67.369  1.00  0.00    -0.092 C  
HETATM   31  N   UNL     1      -6.780   7.721  68.283  1.00  0.00    -0.064 NA 
HETATM   32  C   UNL     1      -6.623   6.569  69.431  1.00  0.00    -0.044 C  
HETATM   33  C   UNL     1      -5.967   8.663  68.668  1.00  0.00    -0.045 C  
HETATM   34  C   UNL     1      -5.705   7.536  67.119  1.00  0.00    -0.031 C  
HETATM   35  C   UNL     1      -7.249   6.609  66.555  1.00  0.00    -0.073 A  
HETATM   36  C   UNL     1      -7.676   6.090  65.358  1.00  0.00    -0.091 A  
HETATM   37  N   UNL     1      -9.052   5.837  65.463  1.00  0.00    -0.326 NA 
HETATM   38  H   UNL     1      -9.605   5.456  64.695  1.00  0.00     0.000 HD 
HETATM   39  C   UNL     1      -9.599   6.151  66.707  1.00  0.00    -0.148 A  
HETATM   40  C   UNL     1     -10.915   6.150  67.197  1.00  0.00    -0.420 A  
HETATM   41  C   UNL     1     -11.168   6.670  68.500  1.00  0.00    -0.227 A  
HETATM   42  C   UNL     1     -10.198   7.284  69.318  1.00  0.00    -0.193 A  
HETATM   43  C   UNL     1      -8.899   7.401  68.840  1.00  0.00    -0.131 A  
HETATM   44  C   UNL     1      -8.582   6.658  67.485  1.00  0.00    -0.120 A  
HETATM   45  C   UNL     1      -7.664   8.625  69.538  1.00  0.00    -0.090 C  
HETATM   46  C   UNL     1      -8.216   9.849  69.568  1.00  0.00    -0.163 C  
ENDBRANCH  27  29
ENDBRANCH  13  25
TORSDOF 4
ENDMDL
MODEL        5
REMARK 921   NORMALIZED FREE ENERGY PREDICTED BY IDOCK:   -8.13 KCAL/MOL
REMARK 922        TOTAL FREE ENERGY PREDICTED BY IDOCK:  -10.89 KCAL/MOL
REMARK 923 INTER-LIGAND FREE ENERGY PREDICTED BY IDOCK:  -10.11 KCAL/MOL
REMARK 924 INTRA-LIGAND FREE ENERGY PREDICTED BY IDOCK:   -0.78 KCAL/MOL
REMARK 927      BINDING AFFINITY PREDICTED BY RF-SCORE:    0.00 PKD
ROOT
HETATM    1  C   UNL     1     -11.282  12.127  64.980  1.00  0.00    -0.322 A  
HETATM    2  C   UNL     1     -11.914  11.861  63.604  1.00  0.00    -0.578 A  
HETATM    3  C   UNL     1     -12.386  13.288  63.140  1.00  0.00    -0.163 A  
HETATM    4  C   UNL     1     -12.151  14.207  64.333  1.00  0.00    -0.463 A  
HETATM    5  N   UNL     1     -12.000  13.280  65.431  1.00  0.00    -0.371 N  
HETATM    6  C   UNL     1     -11.791  13.771  66.680  1.00  0.00    -0.412 C  
HETATM    7  O   UNL     1     -12.523  14.642  67.146  1.00  0.00    -0.093 OA 
HETATM    8  C   UNL     1     -10.650  13.070  67.463  1.00  0.00    -0.237 C  
HETATM    9  O   UNL     1     -10.737  10.623  67.441  1.00  0.00    -0.237 OA 
HETATM   10  N   UNL     1      -9.658  12.097  66.520  1.00  0.00    -0.222 N  
HETATM   11  C   UNL     1      -8.736  11.105  66.971  1.00  0.00    -0.148 C  
HETATM   12  H   UNL     1      -9.680   9.491  65.887  1.00  0.00     0.000 HD 
HETATM   13  C   UNL     1      -9.312  10.693  68.273  1.00  0.00    -0.156 C  
HETATM   14  O   UNL     1      -7.726  10.705  66.413  1.00  0.00    -0.128 OA 
HETATM   15  O   UNL     1     -10.095  10.068  65.257  1.00  0.00    -0.321 OA 
HETATM   16  C   UNL     1      -8.326  11.814  68.877  1.00  0.00     0.073 C  
HETATM   17  C   UNL     1     -10.569  11.140  66.060  1.00  0.00    -0.239 C  
ENDROOT
BRANCH   8  18
HETATM   18  C   UNL     1     -10.113  14.142  68.411  1.00  0.00    -0.238 C  
BRANCH  18  19
HETATM   19  C   UNL     1     -10.977  14.397  69.599  1.00  0.00    -0.194 A  
HETATM   20  C   UNL     1     -11.609  15.913  71.355  1.00  0.00    -0.529 A  
HETATM   21  C   UNL     1     -12.403  14.917  71.909  1.00  0.00    -0.415 A  
HETATM   22  C   UNL     1     -11.799  13.411  70.146  1.00  0.00    -0.342 A  
HETATM   23  C   UNL     1     -12.507  13.646  71.319  1.00  0.00    -0.412 A  
HETATM   24  C   UNL     1     -10.900  15.658  70.196  1.00  0.00    -0.356 A  
ENDBRANCH  18  19
ENDBRANCH   8  18
BRANCH  13  25
HETATM   25  N   UNL     1      -9.226   9.591  69.213  1.00  0.00    -0.160 N  
HETATM   26  O   UNL     1      -8.709   8.006  67.565  1.00  0.00    -0.124 OA 
HETATM   27  C   UNL     1      -9.067   8.262  68.711  1.00  0.00    -0.144 C  
HETATM   28  H   UNL     1      -9.277   9.763  70.218  1.00  0.00     0.000 HD 
BRANCH  27  29
HETATM   29  C   UNL     1      -9.432   7.165  69.729  1.00  0.00    -0.149 C  
HETATM   30  C   UNL     1      -9.288   7.346  71.332  1.00  0.00    -0.149 C  
HETATM   31  N   UNL     1     -10.551   6.536  72.450  1.00  0.00    -0.209 NA 
HETATM   32  C   UNL     1     -11.609   5.358  72.852  1.00  0.00    -0.228 C  
HETATM   33  C   UNL     1     -11.306   7.570  72.210  1.00  0.00    -0.292 C  
HETATM   34  C   UNL     1     -10.119   7.392  73.725  1.00  0.00    -0.278 C  
HETATM   35  C   UNL     1      -8.830   6.026  73.554  1.00  0.00    -0.125 A  
HETATM   36  C   UNL     1      -7.583   5.805  74.087  1.00  0.00    -0.092 A  
HETATM   37  N   UNL     1      -6.954   4.813  73.322  1.00  0.00    -0.072 NA 
HETATM   38  H   UNL     1      -6.010   4.480  73.515  1.00  0.00     0.000 HD 
HETATM   39  C   UNL     1      -7.731   4.320  72.272  1.00  0.00    -0.081 A  
HETATM   40  C   UNL     1      -7.462   3.421  71.228  1.00  0.00    -0.037 A  
HETATM   41  C   UNL     1      -8.442   3.227  70.212  1.00  0.00    -0.095 A  
HETATM   42  C   UNL     1      -9.649   3.951  70.117  1.00  0.00    -0.267 A  
HETATM   43  C   UNL     1      -9.919   4.926  71.070  1.00  0.00    -0.282 A  
HETATM   44  C   UNL     1      -8.926   5.003  72.293  1.00  0.00    -0.142 A  
HETATM   45  C   UNL     1     -11.163   6.299  70.794  1.00  0.00    -0.387 C  
HETATM   46  C   UNL     1     -10.903   6.910  69.625  1.00  0.00    -0.294 C  
ENDBRANCH  27  29
ENDBRANCH  13  25
TORSDOF 4
ENDMDL
MODEL        6
REMARK 921   NORMALIZED FREE ENERGY PREDICTED BY IDOCK:   -8.03 KCAL/MOL
REMARK 922        TOTAL FREE ENERGY PREDICTED BY IDOCK:  -10.77 KCAL/MOL
REMARK 923 INTER-LIGAND FREE ENERGY PREDICTED BY IDOCK:  -10.16 KCAL/MOL
REMARK 924 INTRA-LIGAND FREE ENERGY PREDICTED BY IDOCK:   -0.61 KCAL/MOL
REMARK 927      BINDING AFFINITY PREDICTED BY RF-SCORE:    0.00 PKD
ROOT
HETATM    1  C   UNL     1      -6.807   7.616  72.407  1.00  0.00    -0.063 A  
HETATM    2  C   UNL     1      -5.375   7.766  72.945  1.00  0.00    -0.036 A  
HETATM    3  C   UNL     1      -5.347   6.791  74.179  1.00  0.00    -0.046 A  
HETATM    4  C   UNL     1      -6.781   6.304  74.350  1.00  0.00    -0.082 A  
HETATM    5  N   UNL     1      -7.543   7.262  73.582  1.00  0.00    -0.098 N  
HETATM    6  C   UNL     1      -8.894   7.137  73.532  1.00  0.00    -0.152 C  
HETATM    7  O   UNL     1      -9.554   7.014  74.562  1.00  0.00    -0.226 OA 
HETATM    8  C   UNL     1      -9.500   7.272  72.110  1.00  0.00    -0.157 C  
HETATM    9  O   UNL     1      -8.708   9.205  70.832  1.00  0.00    -0.208 OA 
HETATM   10  N   UNL     1      -8.374   7.187  70.867  1.00  0.00    -0.120 N  
HETATM   11  C   UNL     1      -8.558   7.570  69.505  1.00  0.00    -0.133 C  
HETATM   12  H   UNL     1      -6.959   9.024  69.520  1.00  0.00     0.000 HD 
HETATM   13  C   UNL     1      -9.622   8.599  69.596  1.00  0.00    -0.170 C  
HETATM   14  O   UNL     1      -7.978   7.147  68.517  1.00  0.00    -0.119 OA 
HETATM   15  O   UNL     1      -6.512   8.624  70.257  1.00  0.00    -0.037 OA 
HETATM   16  C   UNL     1     -10.614   7.359  69.331  1.00  0.00    -0.231 C  
HETATM   17  C   UNL     1      -7.573   8.300  71.144  1.00  0.00    -0.082 C  
ENDROOT
BRANCH   8  18
HETATM   18  C   UNL     1     -10.772   6.425  72.147  1.00  0.00    -0.259 C  
BRANCH  18  19
HETATM   19  C   UNL     1     -12.034   7.217  72.147  1.00  0.00    -0.304 A  
HETATM   20  C   UNL     1     -14.401   7.254  71.723  1.00  0.00    -0.560 A  
HETATM   21  C   UNL     1     -14.405   8.625  71.945  1.00  0.00    -0.492 A  
HETATM   22  C   UNL     1     -12.052   8.589  72.396  1.00  0.00    -0.436 A  
HETATM   23  C   UNL     1     -13.229   9.319  72.279  1.00  0.00    -0.535 A  
HETATM   24  C   UNL     1     -13.218   6.546  71.830  1.00  0.00     0.033 A  
ENDBRANCH  18  19
ENDBRANCH   8  18
BRANCH  13  25
HETATM   25  N   UNL     1     -10.174   9.682  68.804  1.00  0.00    -0.189 N  
HETATM   26  O   UNL     1      -8.171  10.898  68.765  1.00  0.00    -0.136 OA 
HETATM   27  C   UNL     1      -9.384  10.852  68.582  1.00  0.00    -0.187 C  
HETATM   28  H   UNL     1     -11.113   9.608  68.410  1.00  0.00     0.000 HD 
BRANCH  27  29
HETATM   29  C   UNL     1     -10.201  12.079  68.135  1.00  0.00    -0.203 C  
HETATM   30  C   UNL     1      -9.833  12.974  66.836  1.00  0.00    -0.240 C  
HETATM   31  N   UNL     1     -11.224  13.705  65.820  1.00  0.00    -0.294 NA 
HETATM   32  C   UNL     1     -12.715  14.342  65.623  1.00  0.00    -0.373 C  
HETATM   33  C   UNL     1     -11.297  12.544  65.234  1.00  0.00    -0.324 C  
HETATM   34  C   UNL     1     -10.275  14.050  64.585  1.00  0.00    -0.210 C  
HETATM   35  C   UNL     1      -9.982  15.407  65.862  1.00  0.00    -0.374 A  
HETATM   36  C   UNL     1      -9.025  16.376  66.036  1.00  0.00    -0.272 A  
HETATM   37  N   UNL     1      -9.126  16.855  67.350  1.00  0.00    -0.216 NA 
HETATM   38  H   UNL     1      -8.511  17.577  67.725  1.00  0.00     0.000 HD 
HETATM   39  C   UNL     1     -10.138  16.256  68.102  1.00  0.00    -0.244 A  
HETATM   40  C   UNL     1     -10.510  16.359  69.451  1.00  0.00    -0.309 A  
HETATM   41  C   UNL     1     -11.523  15.492  69.958  1.00  0.00    -0.344 A  
HETATM   42  C   UNL     1     -12.127  14.453  69.220  1.00  0.00    -0.336 A  
HETATM   43  C   UNL     1     -11.722  14.243  67.908  1.00  0.00    -0.394 A  
HETATM   44  C   UNL     1     -10.746  15.320  67.296  1.00  0.00    -0.311 A  
HETATM   45  C   UNL     1     -12.014  12.630  67.001  1.00  0.00    -0.330 C  
HETATM   46  C   UNL     1     -11.568  11.608  67.750  1.00  0.00    -0.359 C  
ENDBRANCH  27  29
ENDBRANCH  13  25
TORSDOF 4
ENDMDL
MODEL        7
REMARK 921   NORMALIZED FREE ENERGY PREDICTED BY IDOCK:   -8.01 KCAL/MOL
REMARK 922        TOTAL FREE ENERGY PREDICTED BY IDOCK:  -10.75 KCAL/MOL
REMARK 923 INTER-LIGAND FREE ENERGY PREDICTED BY IDOCK:  -10.09 KCAL/MOL
REMARK 924 INTRA-LIGAND FREE ENERGY PREDICTED BY IDOCK:   -0.65 KCAL/MOL
REMARK 927      BINDING AFFINITY PREDICTED BY RF-SCORE:    0.00 PKD
ROOT
HETATM    1  C   UNL     1      -9.909   5.876  72.792  1.00  0.00    -0.166 A  
HETATM    2  C   UNL     1     -10.480   5.609  74.193  1.00  0.00    -0.281 A  
HETATM    3  C   UNL     1     -10.065   4.118  74.475  1.00  0.00    -0.240 A  
HETATM    4  C   UNL     1      -9.457   3.607  73.174  1.00  0.00    -0.106 A  
HETATM    5  N   UNL     1      -9.915   4.573  72.201  1.00  0.00    -0.177 N  
HETATM    6  C   UNL     1      -9.567   4.408  70.899  1.00  0.00    -0.185 C  
HETATM    7  O   UNL     1      -9.740   3.332  70.331  1.00  0.00    -0.167 OA 
HETATM    8  C   UNL     1      -9.051   5.697  70.205  1.00  0.00    -0.163 C  
HETATM    9  O   UNL     1     -10.453   7.677  70.538  1.00  0.00    -0.214 OA 
HETATM   10  N   UNL     1      -8.681   6.951  71.259  1.00  0.00    -0.134 N  
HETATM   11  C   UNL     1      -8.483   8.326  70.932  1.00  0.00    -0.132 C  
HETATM   12  H   UNL     1     -10.069   9.036  72.217  1.00  0.00     0.000 HD 
HETATM   13  C   UNL     1      -9.284   8.486  69.696  1.00  0.00    -0.157 C  
HETATM   14  O   UNL     1      -7.815   9.154  71.531  1.00  0.00    -0.330 OA 
HETATM   15  O   UNL     1     -10.057   8.265  72.771  1.00  0.00    -0.294 OA 
HETATM   16  C   UNL     1      -7.895   8.159  68.950  1.00  0.00    -0.112 C  
HETATM   17  C   UNL     1      -9.929   7.198  71.842  1.00  0.00    -0.167 C  
ENDROOT
BRANCH   8  18
HETATM   18  C   UNL     1      -8.090   5.200  69.126  1.00  0.00    -0.084 C  
BRANCH  18  19
HETATM   19  C   UNL     1      -8.739   4.910  67.816  1.00  0.00    -0.105 A  
HETATM   20  C   UNL     1     -10.621   5.272  66.364  1.00  0.00    -0.338 A  
HETATM   21  C   UNL     1     -10.116   4.314  65.494  1.00  0.00    -0.235 A  
HETATM   22  C   UNL     1      -8.224   3.970  66.923  1.00  0.00    -0.100 A  
HETATM   23  C   UNL     1      -8.911   3.641  65.760  1.00  0.00    -0.137 A  
HETATM   24  C   UNL     1      -9.931   5.577  67.522  1.00  0.00    -0.189 A  
ENDBRANCH  18  19
ENDBRANCH   8  18
BRANCH  13  25
HETATM   25  N   UNL     1      -9.881   9.545  68.903  1.00  0.00    -0.169 N  
HETATM   26  O   UNL     1      -8.077  11.012  69.199  1.00  0.00    -0.135 OA 
HETATM   27  C   UNL     1      -9.241  10.822  68.856  1.00  0.00    -0.173 C  
HETATM   28  H   UNL     1     -10.745   9.380  68.385  1.00  0.00     0.000 HD 
BRANCH  27  29
HETATM   29  C   UNL     1     -10.160  11.962  68.378  1.00  0.00    -0.206 C  
HETATM   30  C   UNL     1      -9.874  12.845  67.050  1.00  0.00    -0.233 C  
HETATM   31  N   UNL     1     -11.325  13.426  66.022  1.00  0.00    -0.304 NA 
HETATM   32  C   UNL     1     -12.866  13.929  65.817  1.00  0.00    -0.391 C  
HETATM   33  C   UNL     1     -11.304  12.245  65.472  1.00  0.00    -0.349 C  
HETATM   34  C   UNL     1     -10.414  13.811  64.771  1.00  0.00    -0.428 C  
HETATM   35  C   UNL     1     -10.231  15.226  66.005  1.00  0.00    -0.335 A  
HETATM   36  C   UNL     1      -9.357  16.277  66.143  1.00  0.00    -0.339 A  
HETATM   37  N   UNL     1      -9.492  16.785  67.443  1.00  0.00    -0.234 NA 
HETATM   38  H   UNL     1      -8.939  17.567  67.792  1.00  0.00     0.000 HD 
HETATM   39  C   UNL     1     -10.448  16.127  68.219  1.00  0.00    -0.276 A  
HETATM   40  C   UNL     1     -10.821  16.239  69.567  1.00  0.00    -0.342 A  
HETATM   41  C   UNL     1     -11.755  15.307  70.107  1.00  0.00    -0.342 A  
HETATM   42  C   UNL     1     -12.273  14.198  69.405  1.00  0.00    -0.329 A  
HETATM   43  C   UNL     1     -11.858  13.983  68.097  1.00  0.00    -0.402 A  
HETATM   44  C   UNL     1     -10.978  15.119  67.446  1.00  0.00    -0.314 A  
HETATM   45  C   UNL     1     -12.018  12.325  67.240  1.00  0.00    -0.201 C  
HETATM   46  C   UNL     1     -11.484  11.367  68.017  1.00  0.00    -0.377 C  
ENDBRANCH  27  29
ENDBRANCH  13  25
TORSDOF 4
ENDMDL
MODEL        8
REMARK 921   NORMALIZED FREE ENERGY PREDICTED BY IDOCK:   -7.97 KCAL/MOL
REMARK 922        TOTAL FREE ENERGY PREDICTED BY IDOCK:  -10.69 KCAL/MOL
REMARK 923 INTER-LIGAND FREE ENERGY PREDICTED BY IDOCK:   -9.69 KCAL/MOL
REMARK 924 INTRA-LIGAND FREE ENERGY PREDICTED BY IDOCK:   -1.00 KCAL/MOL
REMARK 927      BINDING AFFINITY PREDICTED BY RF-SCORE:    0.00 PKD
ROOT
HETATM    1  C   UNL     1      -8.448   9.297  63.710  1.00  0.00    -0.191 A  
HETATM    2  C   UNL     1      -7.669   9.053  62.407  1.00  0.00    -0.117 A  
HETATM    3  C   UNL     1      -7.559   7.485  62.340  1.00  0.00    -0.105 A  
HETATM    4  C   UNL     1      -8.117   6.977  63.664  1.00  0.00     0.006 A  
HETATM    5  N   UNL     1      -8.098   8.156  64.498  1.00  0.00    -0.152 N  
HETATM    6  C   UNL     1      -8.521   8.057  65.785  1.00  0.00    -0.147 C  
HETATM    7  O   UNL     1      -8.082   7.180  66.527  1.00  0.00    -0.108 OA 
HETATM    8  C   UNL     1      -9.489   9.184  66.232  1.00  0.00    -0.299 C  
HETATM    9  O   UNL     1      -8.754  11.453  65.679  1.00  0.00    -0.137 OA 
HETATM   10  N   UNL     1     -10.115  10.099  64.970  1.00  0.00    -0.305 N  
HETATM   11  C   UNL     1     -10.771  11.363  65.062  1.00  0.00    -0.277 C  
HETATM   12  H   UNL     1      -9.356  12.381  63.784  1.00  0.00     0.000 HD 
HETATM   13  C   UNL     1     -10.204  11.936  66.306  1.00  0.00    -0.216 C  
HETATM   14  O   UNL     1     -11.595  11.842  64.298  1.00  0.00    -0.333 OA 
HETATM   15  O   UNL     1      -9.063  11.584  63.360  1.00  0.00    -0.119 OA 
HETATM   16  C   UNL     1     -11.494  11.271  67.004  1.00  0.00    -0.177 C  
HETATM   17  C   UNL     1      -8.951  10.664  64.437  1.00  0.00    -0.195 C  
ENDROOT
BRANCH   8  18
HETATM   18  C   UNL     1     -10.360   8.543  67.312  1.00  0.00    -0.372 C  
BRANCH  18  19
HETATM   19  C   UNL     1      -9.818   8.679  68.694  1.00  0.00    -0.180 A  
HETATM   20  C   UNL     1     -10.042   8.115  71.021  1.00  0.00    -0.221 A  
HETATM   21  C   UNL     1      -9.007   8.993  71.318  1.00  0.00    -0.281 A  
HETATM   22  C   UNL     1      -8.760   9.536  68.998  1.00  0.00    -0.142 A  
HETATM   23  C   UNL     1      -8.351   9.725  70.313  1.00  0.00    -0.172 A  
HETATM   24  C   UNL     1     -10.444   7.951  69.709  1.00  0.00    -0.233 A  
ENDBRANCH  18  19
ENDBRANCH   8  18
BRANCH  13  25
HETATM   25  N   UNL     1     -10.064  13.225  66.957  1.00  0.00    -0.239 N  
HETATM   26  O   UNL     1     -10.228  14.441  64.959  1.00  0.00    -0.409 OA 
HETATM   27  C   UNL     1      -9.939  14.399  66.152  1.00  0.00    -0.311 C  
HETATM   28  H   UNL     1     -10.055  13.292  67.975  1.00  0.00     0.000 HD 
BRANCH  27  29
HETATM   29  C   UNL     1      -9.358  15.612  66.905  1.00  0.00    -0.252 C  
HETATM   30  C   UNL     1      -9.304  17.108  66.287  1.00  0.00    -0.260 C  
HETATM   31  N   UNL     1      -9.551  18.567  67.430  1.00  0.00    -0.289 NA 
HETATM   32  C   UNL     1      -9.430  19.341  68.864  1.00  0.00    -0.380 C  
HETATM   33  C   UNL     1     -10.829  18.353  67.296  1.00  0.00    -0.257 C  
HETATM   34  C   UNL     1      -9.794  19.593  66.233  1.00  0.00    -0.447 C  
HETATM   35  C   UNL     1      -7.927  19.342  66.334  1.00  0.00    -0.310 A  
HETATM   36  C   UNL     1      -6.871  19.625  65.502  1.00  0.00    -0.294 A  
HETATM   37  N   UNL     1      -5.763  18.887  65.943  1.00  0.00    -0.153 NA 
HETATM   38  H   UNL     1      -4.855  18.920  65.479  1.00  0.00     0.000 HD 
HETATM   39  C   UNL     1      -6.008  18.103  67.072  1.00  0.00    -0.145 A  
HETATM   40  C   UNL     1      -5.233  17.159  67.763  1.00  0.00    -0.125 A  
HETATM   41  C   UNL     1      -5.833  16.409  68.817  1.00  0.00    -0.126 A  
HETATM   42  C   UNL     1      -7.198  16.473  69.166  1.00  0.00    -0.226 A  
HETATM   43  C   UNL     1      -8.032  17.318  68.446  1.00  0.00    -0.253 A  
HETATM   44  C   UNL     1      -7.330  18.282  67.414  1.00  0.00    -0.218 A  
HETATM   45  C   UNL     1      -9.896  17.126  68.420  1.00  0.00    -0.296 C  
HETATM   46  C   UNL     1     -10.210  15.857  68.110  1.00  0.00    -0.232 C  
ENDBRANCH  27  29
ENDBRANCH  13  25
TORSDOF 4
ENDMDL
MODEL        9
REMARK 921   NORMALIZED FREE ENERGY PREDICTED BY IDOCK:   -7.96 KCAL/MOL
REMARK 922        TOTAL FREE ENERGY PREDICTED BY IDOCK:  -10.68 KCAL/MOL
REMARK 923 INTER-LIGAND FREE ENERGY PREDICTED BY IDOCK:  -10.03 KCAL/MOL
REMARK 924 INTRA-LIGAND FREE ENERGY PREDICTED BY IDOCK:   -0.65 KCAL/MOL
REMARK 927      BINDING AFFINITY PREDICTED BY RF-SCORE:    0.00 PKD
ROOT
HETATM    1  C   UNL     1      -9.943   5.870  72.778  1.00  0.00    -0.179 A  
HETATM    2  C   UNL     1     -10.508   5.631  74.187  1.00  0.00    -0.281 A  
HETATM    3  C   UNL     1     -10.101   4.142  74.493  1.00  0.00    -0.240 A  
HETATM    4  C   UNL     1      -9.504   3.606  73.197  1.00  0.00    -0.106 A  
HETATM    5  N   UNL     1      -9.961   4.557  72.210  1.00  0.00    -0.172 N  
HETATM    6  C   UNL     1      -9.621   4.369  70.909  1.00  0.00    -0.185 C  
HETATM    7  O   UNL     1      -9.804   3.284  70.361  1.00  0.00    -0.121 OA 
HETATM    8  C   UNL     1      -9.102   5.642  70.190  1.00  0.00    -0.159 C  
HETATM    9  O   UNL     1     -10.489   7.636  70.497  1.00  0.00    -0.214 OA 
HETATM   10  N   UNL     1      -8.718   6.911  71.221  1.00  0.00    -0.134 N  
HETATM   11  C   UNL     1      -8.513   8.279  70.869  1.00  0.00    -0.132 C  
HETATM   12  H   UNL     1     -10.087   9.021  72.150  1.00  0.00     0.000 HD 
HETATM   13  C   UNL     1      -9.320   8.423  69.634  1.00  0.00    -0.161 C  
HETATM   14  O   UNL     1      -7.836   9.113  71.449  1.00  0.00    -0.310 OA 
HETATM   15  O   UNL     1     -10.076   8.259  72.717  1.00  0.00    -0.294 OA 
HETATM   16  C   UNL     1      -7.938   8.075  68.887  1.00  0.00    -0.118 C  
HETATM   17  C   UNL     1      -9.961   7.176  71.805  1.00  0.00    -0.175 C  
ENDROOT
BRANCH   8  18
HETATM   18  C   UNL     1      -8.150   5.120  69.115  1.00  0.00    -0.084 C  
BRANCH  18  19
HETATM   19  C   UNL     1      -8.815   4.761  67.830  1.00  0.00    -0.114 A  
HETATM   20  C   UNL     1      -8.706   3.528  65.769  1.00  0.00    -0.121 A  
HETATM   21  C   UNL     1      -9.872   4.156  65.348  1.00  0.00    -0.212 A  
HETATM   22  C   UNL     1     -10.001   5.366  67.413  1.00  0.00    -0.198 A  
HETATM   23  C   UNL     1     -10.537   5.092  66.160  1.00  0.00    -0.321 A  
HETATM   24  C   UNL     1      -8.180   3.824  67.012  1.00  0.00    -0.095 A  
ENDBRANCH  18  19
ENDBRANCH   8  18
BRANCH  13  25
HETATM   25  N   UNL     1      -9.915   9.472  68.826  1.00  0.00    -0.169 N  
HETATM   26  O   UNL     1      -8.065  10.899  69.018  1.00  0.00    -0.142 OA 
HETATM   27  C   UNL     1      -9.243  10.729  68.718  1.00  0.00    -0.189 C  
HETATM   28  H   UNL     1     -10.799   9.314  68.342  1.00  0.00     0.000 HD 
BRANCH  27  29
HETATM   29  C   UNL     1     -10.148  11.878  68.232  1.00  0.00    -0.203 C  
HETATM   30  C   UNL     1      -9.825  12.780  66.926  1.00  0.00    -0.236 C  
HETATM   31  N   UNL     1     -11.247  13.378  65.868  1.00  0.00    -0.298 NA 
HETATM   32  C   UNL     1     -12.782  13.887  65.628  1.00  0.00    -0.495 C  
HETATM   33  C   UNL     1     -11.213  12.206  65.301  1.00  0.00    -0.332 C  
HETATM   34  C   UNL     1     -10.302  13.781  64.647  1.00  0.00    -0.368 C  
HETATM   35  C   UNL     1     -10.151  15.177  65.907  1.00  0.00    -0.349 A  
HETATM   36  C   UNL     1      -9.280  16.224  66.084  1.00  0.00    -0.341 A  
HETATM   37  N   UNL     1      -9.449  16.713  67.388  1.00  0.00    -0.230 NA 
HETATM   38  H   UNL     1      -8.904  17.489  67.763  1.00  0.00     0.000 HD 
HETATM   39  C   UNL     1     -10.426  16.045  68.128  1.00  0.00    -0.269 A  
HETATM   40  C   UNL     1     -10.835  16.138  69.467  1.00  0.00    -0.329 A  
HETATM   41  C   UNL     1     -11.785  15.199  69.967  1.00  0.00    -0.341 A  
HETATM   42  C   UNL     1     -12.285  14.102  69.235  1.00  0.00    -0.308 A  
HETATM   43  C   UNL     1     -11.835  13.906  67.936  1.00  0.00    -0.413 A  
HETATM   44  C   UNL     1     -10.936  15.049  67.325  1.00  0.00    -0.326 A  
HETATM   45  C   UNL     1     -11.974  12.260  67.050  1.00  0.00    -0.213 C  
HETATM   46  C   UNL     1     -11.463  11.290  67.827  1.00  0.00    -0.350 C  
ENDBRANCH  27  29
ENDBRANCH  13  25
TORSDOF 4
ENDMDL
MODEL       10
REMARK 921   NORMALIZED FREE ENERGY PREDICTED BY IDOCK:   -7.86 KCAL/MOL
REMARK 922        TOTAL FREE ENERGY PREDICTED BY IDOCK:  -10.56 KCAL/MOL
REMARK 923 INTER-LIGAND FREE ENERGY PREDICTED BY IDOCK:  -10.05 KCAL/MOL
REMARK 924 INTRA-LIGAND FREE ENERGY PREDICTED BY IDOCK:   -0.51 KCAL/MOL
REMARK 927      BINDING AFFINITY PREDICTED BY RF-SCORE:    0.00 PKD
ROOT
HETATM    1  C   UNL     1     -10.454  15.775  67.325  1.00  0.00    -0.308 A  
HETATM    2  C   UNL     1     -10.109  17.263  67.497  1.00  0.00    -0.315 A  
HETATM    3  C   UNL     1     -10.503  17.889  66.108  1.00  0.00    -0.321 A  
HETATM    4  C   UNL     1     -10.870  16.709  65.216  1.00  0.00    -0.183 A  
HETATM    5  N   UNL     1     -10.298  15.582  65.917  1.00  0.00    -0.323 N  
HETATM    6  C   UNL     1     -10.423  14.342  65.377  1.00  0.00    -0.365 C  
HETATM    7  O   UNL     1     -10.116  14.130  64.206  1.00  0.00    -0.076 OA 
HETATM    8  C   UNL     1     -10.871  13.247  66.381  1.00  0.00    -0.296 C  
HETATM    9  O   UNL     1      -9.624  13.211  68.488  1.00  0.00    -0.200 OA 
HETATM   10  N   UNL     1     -11.459  13.841  67.838  1.00  0.00    -0.295 N  
HETATM   11  C   UNL     1     -11.657  13.116  69.051  1.00  0.00    -0.312 C  
HETATM   12  H   UNL     1     -10.332  14.367  70.214  1.00  0.00     0.000 HD 
HETATM   13  C   UNL     1     -10.672  12.015  68.938  1.00  0.00    -0.185 C  
HETATM   14  O   UNL     1     -12.447  13.355  69.951  1.00  0.00    -0.222 OA 
HETATM   15  O   UNL     1     -10.403  15.107  69.623  1.00  0.00    -0.239 OA 
HETATM   16  C   UNL     1     -11.906  11.197  68.305  1.00  0.00    -0.260 C  
HETATM   17  C   UNL     1     -10.333  14.506  68.338  1.00  0.00    -0.241 C  
ENDROOT
BRANCH   8  18
HETATM   18  C   UNL     1     -11.622  12.223  65.531  1.00  0.00    -0.422 C  
BRANCH  18  19
HETATM   19  C   UNL     1     -10.743  11.233  64.847  1.00  0.00    -0.337 A  
HETATM   20  C   UNL     1      -9.206   9.397  65.068  1.00  0.00    -0.280 A  
HETATM   21  C   UNL     1      -8.953   9.463  63.703  1.00  0.00    -0.151 A  
HETATM   22  C   UNL     1     -10.506  11.274  63.473  1.00  0.00    -0.457 A  
HETATM   23  C   UNL     1      -9.594  10.407  62.882  1.00  0.00    -0.331 A  
HETATM   24  C   UNL     1     -10.105  10.276  65.641  1.00  0.00    -0.341 A  
ENDBRANCH  18  19
ENDBRANCH   8  18
BRANCH  13  25
HETATM   25  N   UNL     1      -9.997  11.052  69.789  1.00  0.00    -0.347 N  
HETATM   26  O   UNL     1      -8.242  10.694  68.276  1.00  0.00    -0.111 OA 
HETATM   27  C   UNL     1      -8.866  10.346  69.275  1.00  0.00    -0.154 C  
HETATM   28  H   UNL     1     -10.326  10.882  70.739  1.00  0.00     0.000 HD 
BRANCH  27  29
HETATM   29  C   UNL     1      -8.519   9.068  70.064  1.00  0.00    -0.149 C  
HETATM   30  C   UNL     1      -9.561   7.852  70.302  1.00  0.00    -0.171 C  
HETATM   31  N   UNL     1      -8.910   6.098  70.330  1.00  0.00    -0.147 NA 
HETATM   32  C   UNL     1      -7.778   4.960  70.637  1.00  0.00    -0.066 C  
HETATM   33  C   UNL     1      -8.966   6.143  69.029  1.00  0.00    -0.125 C  
HETATM   34  C   UNL     1     -10.360   5.450  70.175  1.00  0.00    -0.290 C  
HETATM   35  C   UNL     1     -10.200   5.945  71.989  1.00  0.00    -0.237 A  
HETATM   36  C   UNL     1     -11.085   6.089  73.029  1.00  0.00    -0.237 A  
HETATM   37  N   UNL     1     -10.449   6.823  74.040  1.00  0.00    -0.444 NA 
HETATM   38  H   UNL     1     -10.907   7.070  74.917  1.00  0.00     0.000 HD 
HETATM   39  C   UNL     1      -9.135   7.188  73.744  1.00  0.00    -0.200 A  
HETATM   40  C   UNL     1      -8.196   7.991  74.409  1.00  0.00    -0.284 A  
HETATM   41  C   UNL     1      -6.960   8.291  73.764  1.00  0.00    -0.165 A  
HETATM   42  C   UNL     1      -6.638   7.917  72.443  1.00  0.00    -0.069 A  
HETATM   43  C   UNL     1      -7.574   7.206  71.703  1.00  0.00    -0.087 A  
HETATM   44  C   UNL     1      -8.855   6.714  72.482  1.00  0.00    -0.131 A  
HETATM   45  C   UNL     1      -7.529   7.108  69.833  1.00  0.00    -0.086 C  
HETATM   46  C   UNL     1      -7.438   8.347  69.322  1.00  0.00    -0.084 C  
ENDBRANCH  27  29
ENDBRANCH  13  25
TORSDOF 4
ENDMDL
MODEL       11
REMARK 921   NORMALIZED FREE ENERGY PREDICTED BY IDOCK:   -7.84 KCAL/MOL
REMARK 922        TOTAL FREE ENERGY PREDICTED BY IDOCK:  -10.54 KCAL/MOL
REMARK 923 INTER-LIGAND FREE ENERGY PREDICTED BY IDOCK:   -9.76 KCAL/MOL
REMARK 924 INTRA-LIGAND FREE ENERGY PREDICTED BY IDOCK:   -0.78 KCAL/MOL
REMARK 927      BINDING AFFINITY PREDICTED BY RF-SCORE:    0.00 PKD
ROOT
HETATM    1  C   UNL     1     -10.318  17.026  68.442  1.00  0.00    -0.351 A  
HETATM    2  C   UNL     1      -9.639  18.319  68.921  1.00  0.00    -0.268 A  
HETATM    3  C   UNL     1      -9.925  19.333  67.753  1.00  0.00    -0.460 A  
HETATM    4  C   UNL     1     -10.578  18.512  66.647  1.00  0.00    -0.342 A  
HETATM    5  N   UNL     1     -10.256  17.153  67.018  1.00  0.00    -0.306 N  
HETATM    6  C   UNL     1     -10.676  16.138  66.221  1.00  0.00    -0.213 C  
HETATM    7  O   UNL     1     -10.463  16.157  65.010  1.00  0.00    -0.595 OA 
HETATM    8  C   UNL     1     -11.328  14.952  66.980  1.00  0.00    -0.345 C  
HETATM    9  O   UNL     1     -10.055  14.139  68.908  1.00  0.00    -0.220 OA 
HETATM   10  N   UNL     1     -11.718  15.285  68.580  1.00  0.00    -0.346 N  
HETATM   11  C   UNL     1     -12.037  14.345  69.606  1.00  0.00    -0.334 C  
HETATM   12  H   UNL     1     -10.426  14.964  70.907  1.00  0.00     0.000 HD 
HETATM   13  C   UNL     1     -11.332  13.121  69.158  1.00  0.00    -0.281 C  
HETATM   14  O   UNL     1     -12.723  14.520  70.601  1.00  0.00    -0.338 OA 
HETATM   15  O   UNL     1     -10.346  15.823  70.511  1.00  0.00    -0.188 OA 
HETATM   16  C   UNL     1     -12.739  12.764  68.462  1.00  0.00     1.256 C  
HETATM   17  C   UNL     1     -10.456  15.552  69.121  1.00  0.00    -0.232 C  
ENDROOT
BRANCH   8  18
HETATM   18  C   UNL     1     -12.319  14.350  65.985  1.00  0.00    -0.337 C  
BRANCH  18  19
HETATM   19  C   UNL     1     -11.753  13.260  65.140  1.00  0.00    -0.358 A  
HETATM   20  C   UNL     1     -12.115  11.676  63.368  1.00  0.00    -0.319 A  
HETATM   21  C   UNL     1     -10.869  11.120  63.630  1.00  0.00    -0.319 A  
HETATM   22  C   UNL     1     -10.491  12.715  65.378  1.00  0.00    -0.306 A  
HETATM   23  C   UNL     1     -10.037  11.625  64.644  1.00  0.00    -0.305 A  
HETATM   24  C   UNL     1     -12.556  12.751  64.117  1.00  0.00    -0.390 A  
ENDBRANCH  18  19
ENDBRANCH   8  18
BRANCH  13  25
HETATM   25  N   UNL     1     -10.867  11.859  69.703  1.00  0.00    -0.450 N  
HETATM   26  O   UNL     1      -9.822  11.193  67.713  1.00  0.00    -0.168 OA 
HETATM   27  C   UNL     1     -10.250  10.911  68.829  1.00  0.00    -0.196 C  
HETATM   28  H   UNL     1     -10.978  11.652  70.696  1.00  0.00     0.000 HD 
BRANCH  27  29
HETATM   29  C   UNL     1     -10.209   9.478  69.394  1.00  0.00    -0.215 C  
HETATM   30  C   UNL     1      -9.023   8.926  70.348  1.00  0.00    -0.207 C  
HETATM   31  N   UNL     1      -9.448   7.713  71.708  1.00  0.00    -0.144 NA 
HETATM   32  C   UNL     1     -10.310   6.489  72.361  1.00  0.00    -0.188 C  
HETATM   33  C   UNL     1      -9.791   8.752  72.415  1.00  0.00    -0.156 C  
HETATM   34  C   UNL     1      -8.053   7.908  72.456  1.00  0.00    -0.126 C  
HETATM   35  C   UNL     1      -7.710   6.750  71.006  1.00  0.00    -0.097 A  
HETATM   36  C   UNL     1      -6.573   6.305  70.377  1.00  0.00    -0.048 A  
HETATM   37  N   UNL     1      -6.949   5.752  69.144  1.00  0.00    -0.062 NA 
HETATM   38  H   UNL     1      -6.277   5.360  68.485  1.00  0.00     0.000 HD 
HETATM   39  C   UNL     1      -8.322   5.784  68.896  1.00  0.00    -0.101 A  
HETATM   40  C   UNL     1      -9.096   5.442  67.776  1.00  0.00    -0.111 A  
HETATM   41  C   UNL     1     -10.492   5.729  67.786  1.00  0.00    -0.289 A  
HETATM   42  C   UNL     1     -11.156   6.431  68.814  1.00  0.00    -0.404 A  
HETATM   43  C   UNL     1     -10.417   6.881  69.900  1.00  0.00    -0.239 A  
HETATM   44  C   UNL     1      -8.918   6.397  69.976  1.00  0.00    -0.146 A  
HETATM   45  C   UNL     1     -11.012   8.244  71.039  1.00  0.00    -0.280 C  
HETATM   46  C   UNL     1     -11.381   9.309  70.308  1.00  0.00    -0.238 C  
ENDBRANCH  27  29
ENDBRANCH  13  25
TORSDOF 4
ENDMDL
MODEL       12
REMARK 921   NORMALIZED FREE ENERGY PREDICTED BY IDOCK:   -7.72 KCAL/MOL
REMARK 922        TOTAL FREE ENERGY PREDICTED BY IDOCK:  -10.39 KCAL/MOL
REMARK 923 INTER-LIGAND FREE ENERGY PREDICTED BY IDOCK:  -10.34 KCAL/MOL
REMARK 924 INTRA-LIGAND FREE ENERGY PREDICTED BY IDOCK:   -0.06 KCAL/MOL
REMARK 927      BINDING AFFINITY PREDICTED BY RF-SCORE:    0.00 PKD
ROOT
HETATM    1  C   UNL     1      -9.782   8.039  67.569  1.00  0.00    -0.161 A  
HETATM    2  C   UNL     1      -9.489   7.023  66.453  1.00  0.00    -0.176 A  
HETATM    3  C   UNL     1      -9.670   5.635  67.171  1.00  0.00    -0.151 A  
HETATM    4  C   UNL     1      -9.874   5.959  68.646  1.00  0.00    -0.136 A  
HETATM    5  N   UNL     1      -9.404   7.321  68.748  1.00  0.00    -0.143 N  
HETATM    6  C   UNL     1      -9.425   7.934  69.959  1.00  0.00    -0.157 C  
HETATM    7  O   UNL     1      -8.934   7.393  70.948  1.00  0.00    -0.148 OA 
HETATM    8  C   UNL     1     -10.008   9.372  69.941  1.00  0.00    -0.237 C  
HETATM    9  O   UNL     1      -9.107  10.828  68.190  1.00  0.00    -0.142 OA 
HETATM   10  N   UNL     1     -10.826   9.771  68.529  1.00  0.00    -0.212 N  
HETATM   11  C   UNL     1     -11.201  11.074  68.085  1.00  0.00    -0.302 C  
HETATM   12  H   UNL     1     -10.093  10.948  66.234  1.00  0.00     0.000 HD 
HETATM   13  C   UNL     1     -10.195  11.944  68.739  1.00  0.00    -0.143 C  
HETATM   14  O   UNL     1     -12.126  11.382  67.350  1.00  0.00    -0.533 OA 
HETATM   15  O   UNL     1     -10.081   9.998  66.228  1.00  0.00    -0.234 OA 
HETATM   16  C   UNL     1     -11.302  12.074  69.900  1.00  0.00    -0.144 C  
HETATM   17  C   UNL     1      -9.802   9.667  67.581  1.00  0.00    -0.164 C  
ENDROOT
BRANCH   8  18
HETATM   18  C   UNL     1     -10.602   9.569  71.336  1.00  0.00    -0.307 C  
BRANCH  18  19
HETATM   19  C   UNL     1     -11.933   8.927  71.530  1.00  0.00    -0.401 A  
HETATM   20  C   UNL     1     -14.204   9.164  72.283  1.00  0.00    -0.370 A  
HETATM   21  C   UNL     1     -14.394   7.801  72.092  1.00  0.00    -0.376 A  
HETATM   22  C   UNL     1     -12.140   7.564  71.314  1.00  0.00    -0.351 A  
HETATM   23  C   UNL     1     -13.364   6.975  71.611  1.00  0.00    -0.356 A  
HETATM   24  C   UNL     1     -12.977   9.730  71.996  1.00  0.00    -0.515 A  
ENDBRANCH  18  19
ENDBRANCH   8  18
BRANCH  13  25
HETATM   25  N   UNL     1      -9.648  13.282  68.608  1.00  0.00    -0.404 N  
HETATM   26  O   UNL     1     -11.737  14.280  68.243  1.00  0.00    -0.306 OA 
HETATM   27  C   UNL     1     -10.512  14.348  68.208  1.00  0.00    -0.245 C  
HETATM   28  H   UNL     1      -8.662  13.459  68.800  1.00  0.00     0.000 HD 
BRANCH  27  29
HETATM   29  C   UNL     1      -9.766  15.587  67.677  1.00  0.00    -0.212 C  
HETATM   30  C   UNL     1      -8.391  16.149  68.321  1.00  0.00    -0.171 C  
HETATM   31  N   UNL     1      -7.102  16.896  67.189  1.00  0.00    -0.163 NA 
HETATM   32  C   UNL     1      -6.618  17.723  65.866  1.00  0.00    -0.236 C  
HETATM   33  C   UNL     1      -6.716  15.674  66.956  1.00  0.00     0.093 C  
HETATM   34  C   UNL     1      -5.953  16.841  68.295  1.00  0.00    -0.128 C  
HETATM   35  C   UNL     1      -7.010  18.346  68.716  1.00  0.00    -0.291 A  
HETATM   36  C   UNL     1      -7.134  19.158  69.816  1.00  0.00     0.072 A  
HETATM   37  N   UNL     1      -8.327  19.885  69.686  1.00  0.00     0.376 NA 
HETATM   38  H   UNL     1      -8.648  20.553  70.386  1.00  0.00     0.000 HD 
HETATM   39  C   UNL     1      -9.038  19.615  68.515  1.00  0.00    -0.312 A  
HETATM   40  C   UNL     1     -10.294  20.029  68.047  1.00  0.00    -0.501 A  
HETATM   41  C   UNL     1     -10.811  19.453  66.849  1.00  0.00    -0.509 A  
HETATM   42  C   UNL     1     -10.190  18.409  66.133  1.00  0.00    -0.408 A  
HETATM   43  C   UNL     1      -8.993  17.892  66.610  1.00  0.00    -0.282 A  
HETATM   44  C   UNL     1      -8.333  18.657  67.821  1.00  0.00    -0.285 A  
HETATM   45  C   UNL     1      -8.341  16.208  66.109  1.00  0.00    -0.222 C  
HETATM   46  C   UNL     1      -9.301  15.286  66.287  1.00  0.00    -0.345 C  
ENDBRANCH  27  29
ENDBRANCH  13  25
TORSDOF 4
ENDMDL
MODEL       13
REMARK 921   NORMALIZED FREE ENERGY PREDICTED BY IDOCK:   -7.69 KCAL/MOL
REMARK 922        TOTAL FREE ENERGY PREDICTED BY IDOCK:  -10.35 KCAL/MOL
REMARK 923 INTER-LIGAND FREE ENERGY PREDICTED BY IDOCK:   -9.87 KCAL/MOL
REMARK 924 INTRA-LIGAND FREE ENERGY PREDICTED BY IDOCK:   -0.48 KCAL/MOL
REMARK 927      BINDING AFFINITY PREDICTED BY RF-SCORE:    0.00 PKD
ROOT
HETATM    1  C   UNL     1      -9.392   9.785  68.063  1.00  0.00    -0.128 A  
HETATM    2  C   UNL     1      -8.491   8.567  67.804  1.00  0.00    -0.130 A  
HETATM    3  C   UNL     1      -9.233   7.401  68.557  1.00  0.00    -0.142 A  
HETATM    4  C   UNL     1     -10.377   8.064  69.314  1.00  0.00    -0.220 A  
HETATM    5  N   UNL     1     -10.000   9.459  69.317  1.00  0.00    -0.173 N  
HETATM    6  C   UNL     1     -10.807  10.356  69.940  1.00  0.00    -0.298 C  
HETATM    7  O   UNL     1     -11.188  10.165  71.094  1.00  0.00    -0.325 OA 
HETATM    8  C   UNL     1     -11.094  11.641  69.120  1.00  0.00    -0.302 C  
HETATM    9  O   UNL     1      -9.114  12.706  68.149  1.00  0.00    -0.196 OA 
HETATM   10  N   UNL     1     -10.664  11.539  67.499  1.00  0.00    -0.212 N  
HETATM   11  C   UNL     1     -10.517  12.615  66.574  1.00  0.00    -0.247 C  
HETATM   12  H   UNL     1      -8.449  12.173  66.127  1.00  0.00     0.000 HD 
HETATM   13  C   UNL     1     -10.181  13.759  67.454  1.00  0.00    -0.252 C  
HETATM   14  O   UNL     1     -10.642  12.587  65.360  1.00  0.00    -0.268 OA 
HETATM   15  O   UNL     1      -8.514  11.266  66.401  1.00  0.00    -0.167 OA 
HETATM   16  C   UNL     1     -11.769  14.026  67.437  1.00  0.00    -0.421 C  
HETATM   17  C   UNL     1      -9.282  11.340  67.594  1.00  0.00    -0.156 C  
ENDROOT
BRANCH   8  18
HETATM   18  C   UNL     1     -12.471  12.105  69.592  1.00  0.00     0.095 C  
BRANCH  18  19
HETATM   19  C   UNL     1     -12.433  13.119  70.685  1.00  0.00    -0.363 A  
HETATM   20  C   UNL     1     -13.198  13.769  72.870  1.00  0.00    -0.345 A  
HETATM   21  C   UNL     1     -12.577  15.001  72.705  1.00  0.00    -0.459 A  
HETATM   22  C   UNL     1     -11.789  14.347  70.538  1.00  0.00    -0.367 A  
HETATM   23  C   UNL     1     -11.867  15.315  71.533  1.00  0.00    -0.441 A  
HETATM   24  C   UNL     1     -13.122  12.824  71.865  1.00  0.00    -0.474 A  
ENDBRANCH  18  19
ENDBRANCH   8  18
BRANCH  13  25
HETATM   25  N   UNL     1      -9.591  15.081  67.360  1.00  0.00    -0.204 N  
HETATM   26  O   UNL     1      -8.568  14.957  69.466  1.00  0.00    -0.117 OA 
HETATM   27  C   UNL     1      -8.928  15.628  68.503  1.00  0.00    -0.192 C  
HETATM   28  H   UNL     1      -9.647  15.613  66.491  1.00  0.00     0.000 HD 
BRANCH  27  29
HETATM   29  C   UNL     1      -8.745  17.157  68.444  1.00  0.00    -0.246 C  
HETATM   30  C   UNL     1      -8.886  18.024  67.084  1.00  0.00    -0.249 C  
HETATM   31  N   UNL     1      -9.618  19.743  67.180  1.00  0.00    -0.339 NA 
HETATM   32  C   UNL     1      -9.907  21.172  67.917  1.00  0.00     0.326 C  
HETATM   33  C   UNL     1     -10.783  19.160  67.154  1.00  0.00    -0.471 C  
HETATM   34  C   UNL     1      -9.850  19.842  65.605  1.00  0.00    -0.043 C  
HETATM   35  C   UNL     1      -8.017  20.191  65.885  1.00  0.00    -0.197 A  
HETATM   36  C   UNL     1      -6.911  20.243  65.073  1.00  0.00    -0.165 A  
HETATM   37  N   UNL     1      -5.771  20.190  65.888  1.00  0.00    -0.169 NA 
HETATM   38  H   UNL     1      -4.822  20.204  65.516  1.00  0.00     0.000 HD 
HETATM   39  C   UNL     1      -6.047  20.117  67.255  1.00  0.00    -0.180 A  
HETATM   40  C   UNL     1      -5.231  19.948  68.384  1.00  0.00    -0.210 A  
HETATM   41  C   UNL     1      -5.841  19.767  69.659  1.00  0.00    -0.314 A  
HETATM   42  C   UNL     1      -7.231  19.646  69.869  1.00  0.00     0.050 A  
HETATM   43  C   UNL     1      -8.080  19.706  68.771  1.00  0.00    -0.301 A  
HETATM   44  C   UNL     1      -7.417  20.095  67.394  1.00  0.00    -0.326 A  
HETATM   45  C   UNL     1      -9.832  19.044  68.805  1.00  0.00    -0.485 C  
HETATM   46  C   UNL     1      -9.826  17.783  69.268  1.00  0.00    -0.047 C  
ENDBRANCH  27  29
ENDBRANCH  13  25
TORSDOF 4
ENDMDL
MODEL       14
REMARK 921   NORMALIZED FREE ENERGY PREDICTED BY IDOCK:   -7.68 KCAL/MOL
REMARK 922        TOTAL FREE ENERGY PREDICTED BY IDOCK:  -10.33 KCAL/MOL
REMARK 923 INTER-LIGAND FREE ENERGY PREDICTED BY IDOCK:   -9.62 KCAL/MOL
REMARK 924 INTRA-LIGAND FREE ENERGY PREDICTED BY IDOCK:   -0.71 KCAL/MOL
REMARK 927      BINDING AFFINITY PREDICTED BY RF-SCORE:    0.00 PKD
ROOT
HETATM    1  C   UNL     1     -11.164  12.153  65.026  1.00  0.00    -0.322 A  
HETATM    2  C   UNL     1     -11.792  11.952  63.638  1.00  0.00    -0.573 A  
HETATM    3  C   UNL     1     -12.272  13.397  63.244  1.00  0.00    -0.314 A  
HETATM    4  C   UNL     1     -12.043  14.257  64.481  1.00  0.00    -0.480 A  
HETATM    5  N   UNL     1     -11.888  13.278  65.533  1.00  0.00    -0.350 N  
HETATM    6  C   UNL     1     -11.684  13.708  66.805  1.00  0.00    -0.392 C  
HETATM    7  O   UNL     1     -12.422  14.551  67.311  1.00  0.00    -0.157 OA 
HETATM    8  C   UNL     1     -10.540  12.976  67.554  1.00  0.00    -0.237 C  
HETATM    9  O   UNL     1     -10.613  10.533  67.411  1.00  0.00    -0.226 OA 
HETATM   10  N   UNL     1      -9.541  12.057  66.566  1.00  0.00    -0.219 N  
HETATM   11  C   UNL     1      -8.614  11.049  66.969  1.00  0.00    -0.140 C  
HETATM   12  H   UNL     1      -9.547   9.485  65.806  1.00  0.00     0.000 HD 
HETATM   13  C   UNL     1      -9.189  10.571  68.249  1.00  0.00    -0.152 C  
HETATM   14  O   UNL     1      -7.601  10.683  66.394  1.00  0.00    -0.125 OA 
HETATM   15  O   UNL     1      -9.965  10.090  65.204  1.00  0.00    -0.323 OA 
HETATM   16  C   UNL     1      -8.211  11.666  68.908  1.00  0.00     0.017 C  
HETATM   17  C   UNL     1     -10.446  11.118  66.058  1.00  0.00    -0.256 C  
ENDROOT
BRANCH   8  18
HETATM   18  C   UNL     1     -10.011  14.003  68.555  1.00  0.00    -0.230 C  
BRANCH  18  19
HETATM   19  C   UNL     1      -9.438  15.228  67.929  1.00  0.00    -0.197 A  
HETATM   20  C   UNL     1      -9.480  17.627  67.764  1.00  0.00    -0.260 A  
HETATM   21  C   UNL     1      -8.574  17.556  66.713  1.00  0.00    -0.276 A  
HETATM   22  C   UNL     1      -8.506  15.168  66.892  1.00  0.00    -0.278 A  
HETATM   23  C   UNL     1      -8.076  16.325  66.253  1.00  0.00    -0.267 A  
HETATM   24  C   UNL     1      -9.908  16.465  68.378  1.00  0.00    -0.233 A  
ENDBRANCH  18  19
ENDBRANCH   8  18
BRANCH  13  25
HETATM   25  N   UNL     1      -9.098   9.424  69.134  1.00  0.00    -0.143 N  
HETATM   26  O   UNL     1      -8.994   7.869  67.382  1.00  0.00    -0.126 OA 
HETATM   27  C   UNL     1      -9.159   8.110  68.574  1.00  0.00    -0.136 C  
HETATM   28  H   UNL     1      -8.991   9.554  70.140  1.00  0.00     0.000 HD 
BRANCH  27  29
HETATM   29  C   UNL     1      -9.501   7.012  69.600  1.00  0.00    -0.147 C  
HETATM   30  C   UNL     1      -9.382   7.216  71.203  1.00  0.00    -0.157 C  
HETATM   31  N   UNL     1     -10.631   6.378  72.315  1.00  0.00    -0.208 NA 
HETATM   32  C   UNL     1     -11.656   5.170  72.718  1.00  0.00    -0.163 C  
HETATM   33  C   UNL     1     -11.417   7.384  72.055  1.00  0.00    -0.273 C  
HETATM   34  C   UNL     1     -10.242   7.261  73.586  1.00  0.00    -0.346 C  
HETATM   35  C   UNL     1      -8.907   5.935  73.444  1.00  0.00    -0.126 A  
HETATM   36  C   UNL     1      -7.661   5.761  73.994  1.00  0.00    -0.099 A  
HETATM   37  N   UNL     1      -6.991   4.781  73.247  1.00  0.00    -0.072 NA 
HETATM   38  H   UNL     1      -6.039   4.481  73.455  1.00  0.00     0.000 HD 
HETATM   39  C   UNL     1      -7.739   4.252  72.195  1.00  0.00    -0.081 A  
HETATM   40  C   UNL     1      -7.429   3.351  71.164  1.00  0.00    -0.040 A  
HETATM   41  C   UNL     1      -8.391   3.114  70.139  1.00  0.00    -0.079 A  
HETATM   42  C   UNL     1      -9.619   3.798  70.022  1.00  0.00    -0.259 A  
HETATM   43  C   UNL     1      -9.931   4.773  70.960  1.00  0.00    -0.279 A  
HETATM   44  C   UNL     1      -8.956   4.896  72.194  1.00  0.00    -0.144 A  
HETATM   45  C   UNL     1     -11.215   6.103  70.654  1.00  0.00    -0.387 C  
HETATM   46  C   UNL     1     -10.961   6.709  69.482  1.00  0.00    -0.367 C  
ENDBRANCH  27  29
ENDBRANCH  13  25
TORSDOF 4
ENDMDL
MODEL       15
REMARK 921   NORMALIZED FREE ENERGY PREDICTED BY IDOCK:   -7.67 KCAL/MOL
REMARK 922        TOTAL FREE ENERGY PREDICTED BY IDOCK:  -10.32 KCAL/MOL
REMARK 923 INTER-LIGAND FREE ENERGY PREDICTED BY IDOCK:   -9.72 KCAL/MOL
REMARK 924 INTRA-LIGAND FREE ENERGY PREDICTED BY IDOCK:   -0.60 KCAL/MOL
REMARK 927      BINDING AFFINITY PREDICTED BY RF-SCORE:    0.00 PKD
ROOT
HETATM    1  C   UNL     1      -9.763   8.702  68.974  1.00  0.00    -0.173 A  
HETATM    2  C   UNL     1      -8.975   7.384  69.045  1.00  0.00    -0.131 A  
HETATM    3  C   UNL     1      -9.847   6.491  70.002  1.00  0.00    -0.183 A  
HETATM    4  C   UNL     1     -10.947   7.406  70.528  1.00  0.00    -0.253 A  
HETATM    5  N   UNL     1     -10.438   8.727  70.235  1.00  0.00    -0.201 N  
HETATM    6  C   UNL     1     -11.174   9.809  70.596  1.00  0.00    -0.334 C  
HETATM    7  O   UNL     1     -11.608   9.922  71.741  1.00  0.00    -0.302 OA 
HETATM    8  C   UNL     1     -11.311  10.891  69.492  1.00  0.00    -0.351 C  
HETATM    9  O   UNL     1      -9.209  11.529  68.411  1.00  0.00    -0.182 OA 
HETATM   10  N   UNL     1     -10.842  10.382  67.962  1.00  0.00    -0.249 N  
HETATM   11  C   UNL     1     -10.564  11.199  66.826  1.00  0.00    -0.263 C  
HETATM   12  H   UNL     1      -8.535  10.490  66.600  1.00  0.00     0.000 HD 
HETATM   13  C   UNL     1     -10.147  12.482  67.441  1.00  0.00    -0.210 C  
HETATM   14  O   UNL     1     -10.652  10.903  65.645  1.00  0.00    -0.236 OA 
HETATM   15  O   UNL     1      -8.695   9.679  67.068  1.00  0.00    -0.127 OA 
HETATM   16  C   UNL     1     -11.701  12.873  67.281  1.00  0.00    -0.431 C  
HETATM   17  C   UNL     1      -9.489  10.092  68.171  1.00  0.00    -0.138 C  
ENDROOT
BRANCH   8  18
HETATM   18  C   UNL     1     -12.651  11.568  69.775  1.00  0.00    -0.006 C  
BRANCH  18  19
HETATM   19  C   UNL     1     -12.563  12.740  70.691  1.00  0.00    -0.248 A  
HETATM   20  C   UNL     1     -13.343  13.800  72.703  1.00  0.00    -0.618 A  
HETATM   21  C   UNL     1     -12.612  14.934  72.373  1.00  0.00    -0.425 A  
HETATM   22  C   UNL     1     -11.809  13.872  70.380  1.00  0.00    -0.335 A  
HETATM   23  C   UNL     1     -11.836  14.993  71.202  1.00  0.00    -0.382 A  
HETATM   24  C   UNL     1     -13.315  12.700  71.868  1.00  0.00    -0.485 A  
ENDBRANCH  18  19
ENDBRANCH   8  18
BRANCH  13  25
HETATM   25  N   UNL     1      -9.430  13.691  67.081  1.00  0.00    -0.235 N  
HETATM   26  O   UNL     1      -8.834  14.194  69.292  1.00  0.00     0.145 OA 
HETATM   27  C   UNL     1      -8.945  14.544  68.120  1.00  0.00    -0.182 C  
HETATM   28  H   UNL     1      -9.274  13.928  66.101  1.00  0.00     0.000 HD 
BRANCH  27  29
HETATM   29  C   UNL     1      -8.614  15.973  67.648  1.00  0.00    -0.175 C  
HETATM   30  C   UNL     1      -7.312  16.800  68.144  1.00  0.00    -0.174 C  
HETATM   31  N   UNL     1      -6.455  17.944  66.937  1.00  0.00    -0.167 NA 
HETATM   32  C   UNL     1      -6.420  18.981  65.674  1.00  0.00    -0.261 C  
HETATM   33  C   UNL     1      -5.846  16.883  66.489  1.00  0.00    -0.030 C  
HETATM   34  C   UNL     1      -5.146  18.078  67.838  1.00  0.00    -0.147 C  
HETATM   35  C   UNL     1      -6.429  19.229  68.607  1.00  0.00    -0.286 A  
HETATM   36  C   UNL     1      -6.538  19.882  69.810  1.00  0.00    -0.318 A  
HETATM   37  N   UNL     1      -7.870  20.296  69.958  1.00  0.00     0.711 NA 
HETATM   38  H   UNL     1      -8.206  20.798  70.780  1.00  0.00     0.000 HD 
HETATM   39  C   UNL     1      -8.697  19.963  68.884  1.00  0.00     0.010 A  
HETATM   40  C   UNL     1     -10.078  20.091  68.670  1.00  0.00    -0.465 A  
HETATM   41  C   UNL     1     -10.654  19.514  67.500  1.00  0.00    -0.599 A  
HETATM   42  C   UNL     1      -9.947  18.726  66.568  1.00  0.00    -0.415 A  
HETATM   43  C   UNL     1      -8.597  18.484  66.786  1.00  0.00    -0.290 A  
HETATM   44  C   UNL     1      -7.926  19.278  67.972  1.00  0.00    -0.339 A  
HETATM   45  C   UNL     1      -7.675  17.068  65.976  1.00  0.00    -0.153 C  
HETATM   46  C   UNL     1      -8.348  15.923  66.177  1.00  0.00    -0.085 C  
ENDBRANCH  27  29
ENDBRANCH  13  25
TORSDOF 4
ENDMDL
MODEL       16
REMARK 921   NORMALIZED FREE ENERGY PREDICTED BY IDOCK:   -7.64 KCAL/MOL
REMARK 922        TOTAL FREE ENERGY PREDICTED BY IDOCK:  -10.29 KCAL/MOL
REMARK 923 INTER-LIGAND FREE ENERGY PREDICTED BY IDOCK:   -9.64 KCAL/MOL
REMARK 924 INTRA-LIGAND FREE ENERGY PREDICTED BY IDOCK:   -0.66 KCAL/MOL
REMARK 927      BINDING AFFINITY PREDICTED BY RF-SCORE:    0.00 PKD
ROOT
HETATM    1  C   UNL     1      -6.926   5.593  70.333  1.00  0.00    -0.058 A  
HETATM    2  C   UNL     1      -5.476   5.127  70.540  1.00  0.00    -0.004 A  
HETATM    3  C   UNL     1      -5.615   3.971  71.598  1.00  0.00    -0.008 A  
HETATM    4  C   UNL     1      -7.076   3.983  72.031  1.00  0.00    -0.050 A  
HETATM    5  N   UNL     1      -7.534   5.281  71.590  1.00  0.00    -0.090 N  
HETATM    6  C   UNL     1      -8.819   5.642  71.838  1.00  0.00    -0.135 C  
HETATM    7  O   UNL     1      -9.295   5.545  72.967  1.00  0.00    -0.137 OA 
HETATM    8  C   UNL     1      -9.556   6.266  70.623  1.00  0.00    -0.189 C  
HETATM    9  O   UNL     1      -8.316   8.026  69.458  1.00  0.00    -0.123 OA 
HETATM   10  N   UNL     1      -8.772   6.055  69.153  1.00  0.00    -0.119 N  
HETATM   11  C   UNL     1      -9.021   6.749  67.931  1.00  0.00    -0.113 C  
HETATM   12  H   UNL     1      -7.012   7.527  67.765  1.00  0.00     0.000 HD 
HETATM   13  C   UNL     1      -9.583   8.039  68.398  1.00  0.00    -0.150 C  
HETATM   14  O   UNL     1      -8.819   6.364  66.791  1.00  0.00    -0.118 OA 
HETATM   15  O   UNL     1      -6.634   6.856  68.321  1.00  0.00    -0.053 OA 
HETATM   16  C   UNL     1     -11.001   7.300  68.211  1.00  0.00    -0.041 C  
HETATM   17  C   UNL     1      -7.574   6.743  69.380  1.00  0.00    -0.096 C  
ENDROOT
BRANCH   8  18
HETATM   18  C   UNL     1     -11.029   5.921  70.842  1.00  0.00    -0.335 C  
BRANCH  18  19
HETATM   19  C   UNL     1     -11.871   7.074  71.269  1.00  0.00    -0.371 A  
HETATM   20  C   UNL     1     -14.084   7.931  71.657  1.00  0.00    -0.528 A  
HETATM   21  C   UNL     1     -13.541   9.191  71.878  1.00  0.00    -0.493 A  
HETATM   22  C   UNL     1     -11.332   8.336  71.520  1.00  0.00    -0.320 A  
HETATM   23  C   UNL     1     -12.156   9.418  71.807  1.00  0.00    -0.454 A  
HETATM   24  C   UNL     1     -13.250   6.870  71.360  1.00  0.00    -0.287 A  
ENDBRANCH  18  19
ENDBRANCH   8  18
BRANCH  13  25
HETATM   25  N   UNL     1      -9.807   9.384  67.901  1.00  0.00    -0.158 N  
HETATM   26  O   UNL     1      -9.117  10.413  69.891  1.00  0.00    -0.075 OA 
HETATM   27  C   UNL     1      -9.680  10.486  68.802  1.00  0.00    -0.184 C  
HETATM   28  H   UNL     1     -10.051   9.540  66.923  1.00  0.00     0.000 HD 
BRANCH  27  29
HETATM   29  C   UNL     1     -10.359  11.777  68.306  1.00  0.00    -0.217 C  
HETATM   30  C   UNL     1      -9.888  12.585  66.983  1.00  0.00    -0.217 C  
HETATM   31  N   UNL     1     -11.184  13.425  65.928  1.00  0.00    -0.298 NA 
HETATM   32  C   UNL     1     -12.598  14.209  65.693  1.00  0.00    -0.470 C  
HETATM   33  C   UNL     1     -11.376  12.259  65.379  1.00  0.00    -0.343 C  
HETATM   34  C   UNL     1     -10.194  13.626  64.694  1.00  0.00    -0.311 C  
HETATM   35  C   UNL     1      -9.770  14.986  65.931  1.00  0.00    -0.376 A  
HETATM   36  C   UNL     1      -8.716  15.854  66.084  1.00  0.00    -0.293 A  
HETATM   37  N   UNL     1      -8.776  16.384  67.381  1.00  0.00    -0.180 NA 
HETATM   38  H   UNL     1      -8.092  17.049  67.740  1.00  0.00     0.000 HD 
HETATM   39  C   UNL     1      -9.853  15.921  68.139  1.00  0.00    -0.214 A  
HETATM   40  C   UNL     1     -10.223  16.107  69.480  1.00  0.00    -0.261 A  
HETATM   41  C   UNL     1     -11.326  15.370  70.003  1.00  0.00    -0.322 A  
HETATM   42  C   UNL     1     -12.031  14.376  69.292  1.00  0.00    -0.362 A  
HETATM   43  C   UNL     1     -11.640  14.081  67.992  1.00  0.00    -0.372 A  
HETATM   44  C   UNL     1     -10.550  15.028  67.357  1.00  0.00    -0.271 A  
HETATM   45  C   UNL     1     -12.094  12.479  67.134  1.00  0.00    -0.135 C  
HETATM   46  C   UNL     1     -11.765  11.441  67.921  1.00  0.00    -0.300 C  
ENDBRANCH  27  29
ENDBRANCH  13  25
TORSDOF 4
ENDMDL
MODEL       17
REMARK 921   NORMALIZED FREE ENERGY PREDICTED BY IDOCK:   -7.54 KCAL/MOL
REMARK 922        TOTAL FREE ENERGY PREDICTED BY IDOCK:  -10.16 KCAL/MOL
REMARK 923 INTER-LIGAND FREE ENERGY PREDICTED BY IDOCK:   -9.45 KCAL/MOL
REMARK 924 INTRA-LIGAND FREE ENERGY PREDICTED BY IDOCK:   -0.71 KCAL/MOL
REMARK 927      BINDING AFFINITY PREDICTED BY RF-SCORE:    0.00 PKD
ROOT
HETATM    1  C   UNL     1     -10.867  12.272  65.015  1.00  0.00    -0.298 A  
HETATM    2  C   UNL     1     -11.381  11.805  63.644  1.00  0.00    -0.525 A  
HETATM    3  C   UNL     1     -12.205  13.041  63.126  1.00  0.00    -0.305 A  
HETATM    4  C   UNL     1     -12.242  14.026  64.288  1.00  0.00    -0.418 A  
HETATM    5  N   UNL     1     -11.871  13.208  65.419  1.00  0.00    -0.351 N  
HETATM    6  C   UNL     1     -11.822  13.776  66.652  1.00  0.00    -0.412 C  
HETATM    7  O   UNL     1     -12.766  14.436  67.080  1.00  0.00     0.094 OA 
HETATM    8  C   UNL     1     -10.550  13.426  67.470  1.00  0.00    -0.255 C  
HETATM    9  O   UNL     1      -9.989  11.044  67.532  1.00  0.00    -0.171 OA 
HETATM   10  N   UNL     1      -9.320  12.721  66.570  1.00  0.00    -0.239 N  
HETATM   11  C   UNL     1      -8.177  12.023  67.064  1.00  0.00    -0.169 C  
HETATM   12  H   UNL     1      -8.642  10.183  66.029  1.00  0.00     0.000 HD 
HETATM   13  C   UNL     1      -8.647  11.514  68.375  1.00  0.00    -0.159 C  
HETATM   14  O   UNL     1      -7.088  11.887  66.530  1.00  0.00     0.012 OA 
HETATM   15  O   UNL     1      -9.184  10.609  65.375  1.00  0.00    -0.175 OA 
HETATM   16  C   UNL     1      -8.003  12.874  68.947  1.00  0.00     0.182 C  
HETATM   17  C   UNL     1      -9.938  11.543  66.136  1.00  0.00    -0.224 C  
ENDROOT
BRANCH   8  18
HETATM   18  C   UNL     1     -10.332  14.631  68.385  1.00  0.00    -0.237 C  
BRANCH  18  19
HETATM   19  C   UNL     1     -11.169  14.622  69.618  1.00  0.00    -0.307 A  
HETATM   20  C   UNL     1     -11.873  15.794  71.596  1.00  0.00    -0.539 A  
HETATM   21  C   UNL     1     -12.544  14.653  72.016  1.00  0.00    -0.408 A  
HETATM   22  C   UNL     1     -11.870  13.489  70.033  1.00  0.00    -0.371 A  
HETATM   23  C   UNL     1     -12.550  13.477  71.245  1.00  0.00    -0.427 A  
HETATM   24  C   UNL     1     -11.190  15.783  70.394  1.00  0.00    -0.383 A  
ENDBRANCH  18  19
ENDBRANCH   8  18
BRANCH  13  25
HETATM   25  N   UNL     1      -8.290  10.504  69.354  1.00  0.00    -0.300 N  
HETATM   26  O   UNL     1      -7.258   9.106  67.781  1.00  0.00    -0.079 OA 
HETATM   27  C   UNL     1      -7.729   9.270  68.903  1.00  0.00    -0.079 C  
HETATM   28  H   UNL     1      -8.438  10.674  70.349  1.00  0.00     0.000 HD 
BRANCH  27  29
HETATM   29  C   UNL     1      -7.808   8.134  69.941  1.00  0.00    -0.104 C  
HETATM   30  C   UNL     1      -9.075   7.134  70.080  1.00  0.00    -0.145 C  
HETATM   31  N   UNL     1      -8.770   5.348  70.545  1.00  0.00    -0.121 NA 
HETATM   32  C   UNL     1      -7.961   4.152  71.310  1.00  0.00    -0.072 C  
HETATM   33  C   UNL     1      -8.509   5.149  69.285  1.00  0.00    -0.093 C  
HETATM   34  C   UNL     1     -10.233   4.881  70.116  1.00  0.00    -0.240 C  
HETATM   35  C   UNL     1     -10.420   5.690  71.810  1.00  0.00    -0.284 A  
HETATM   36  C   UNL     1     -11.485   6.147  72.547  1.00  0.00    -0.276 A  
HETATM   37  N   UNL     1     -10.985   6.972  73.565  1.00  0.00    -0.556 NA 
HETATM   38  H   UNL     1     -11.586   7.442  74.242  1.00  0.00     0.000 HD 
HETATM   39  C   UNL     1      -9.595   7.096  73.572  1.00  0.00    -0.225 A  
HETATM   40  C   UNL     1      -8.713   7.881  74.330  1.00  0.00    -0.191 A  
HETATM   41  C   UNL     1      -7.327   7.885  73.994  1.00  0.00    -0.185 A  
HETATM   42  C   UNL     1      -6.774   7.224  72.878  1.00  0.00    -0.064 A  
HETATM   43  C   UNL     1      -7.620   6.514  72.035  1.00  0.00    -0.093 A  
HETATM   44  C   UNL     1      -9.114   6.355  72.516  1.00  0.00    -0.136 A  
HETATM   45  C   UNL     1      -7.154   6.052  70.280  1.00  0.00    -0.074 C  
HETATM   46  C   UNL     1      -6.728   7.147  69.628  1.00  0.00    -0.049 C  
ENDBRANCH  27  29
ENDBRANCH  13  25
TORSDOF 4
ENDMDL
MODEL       18
REMARK 921   NORMALIZED FREE ENERGY PREDICTED BY IDOCK:   -7.40 KCAL/MOL
REMARK 922        TOTAL FREE ENERGY PREDICTED BY IDOCK:   -9.99 KCAL/MOL
REMARK 923 INTER-LIGAND FREE ENERGY PREDICTED BY IDOCK:   -9.29 KCAL/MOL
REMARK 924 INTRA-LIGAND FREE ENERGY PREDICTED BY IDOCK:   -0.70 KCAL/MOL
REMARK 927      BINDING AFFINITY PREDICTED BY RF-SCORE:    0.00 PKD
ROOT
HETATM    1  C   UNL     1     -12.343  13.482  69.908  1.00  0.00    -0.224 A  
HETATM    2  C   UNL     1     -13.120  12.958  71.126  1.00  0.00    -0.170 A  
HETATM    3  C   UNL     1     -13.703  14.268  71.774  1.00  0.00    -0.496 A  
HETATM    4  C   UNL     1     -13.084  15.422  70.995  1.00  0.00    -0.501 A  
HETATM    5  N   UNL     1     -11.967  14.798  70.323  1.00  0.00    -0.290 N  
HETATM    6  C   UNL     1     -11.164  15.561  69.538  1.00  0.00    -0.299 C  
HETATM    7  O   UNL     1     -10.687  16.614  69.958  1.00  0.00    -0.292 OA 
HETATM    8  C   UNL     1     -10.838  14.937  68.155  1.00  0.00    -0.256 C  
HETATM    9  O   UNL     1     -10.104  12.602  68.226  1.00  0.00    -0.224 OA 
HETATM   10  N   UNL     1     -11.806  13.629  67.740  1.00  0.00    -0.360 N  
HETATM   11  C   UNL     1     -11.570  12.671  66.708  1.00  0.00    -0.374 C  
HETATM   12  H   UNL     1     -11.565  10.976  68.049  1.00  0.00     0.000 HD 
HETATM   13  C   UNL     1     -10.093  12.690  66.576  1.00  0.00    -0.248 C  
HETATM   14  O   UNL     1     -12.390  12.008  66.094  1.00  0.00    -0.449 OA 
HETATM   15  O   UNL     1     -12.066  11.422  68.722  1.00  0.00    -0.480 OA 
HETATM   16  C   UNL     1     -10.375  13.784  65.429  1.00  0.00    -0.347 C  
HETATM   17  C   UNL     1     -11.486  12.718  68.754  1.00  0.00    -0.304 C  
ENDROOT
BRANCH   8  18
HETATM   18  C   UNL     1     -10.608  16.134  67.233  1.00  0.00    -0.305 C  
BRANCH  18  19
HETATM   19  C   UNL     1      -9.176  16.516  67.071  1.00  0.00    -0.233 A  
HETATM   20  C   UNL     1      -7.591  18.132  66.261  1.00  0.00    -0.299 A  
HETATM   21  C   UNL     1      -6.560  17.252  66.564  1.00  0.00    -0.283 A  
HETATM   22  C   UNL     1      -8.134  15.649  67.399  1.00  0.00    -0.195 A  
HETATM   23  C   UNL     1      -6.813  15.991  67.133  1.00  0.00    -0.223 A  
HETATM   24  C   UNL     1      -8.900  17.769  66.520  1.00  0.00    -0.283 A  
ENDBRANCH  18  19
ENDBRANCH   8  18
BRANCH  13  25
HETATM   25  N   UNL     1      -9.027  11.866  66.037  1.00  0.00    -0.381 N  
HETATM   26  O   UNL     1     -10.433  10.732  64.543  1.00  0.00    -0.357 OA 
HETATM   27  C   UNL     1      -9.357  10.814  65.128  1.00  0.00    -0.217 C  
HETATM   28  H   UNL     1      -8.057  12.036  66.303  1.00  0.00     0.000 HD 
BRANCH  27  29
HETATM   29  C   UNL     1      -8.251   9.752  64.978  1.00  0.00    -0.142 C  
HETATM   30  C   UNL     1      -8.534   8.221  64.532  1.00  0.00    -0.040 C  
HETATM   31  N   UNL     1      -7.272   7.343  63.465  1.00  0.00    -0.070 NA 
HETATM   32  C   UNL     1      -5.753   7.032  62.949  1.00  0.00    -0.040 C  
HETATM   33  C   UNL     1      -7.831   7.942  62.452  1.00  0.00    -0.139 C  
HETATM   34  C   UNL     1      -8.274   6.165  63.073  1.00  0.00    -0.032 C  
HETATM   35  C   UNL     1      -7.651   5.764  64.808  1.00  0.00    -0.086 A  
HETATM   36  C   UNL     1      -8.049   4.900  65.798  1.00  0.00    -0.112 A  
HETATM   37  N   UNL     1      -7.432   5.297  66.994  1.00  0.00    -0.086 NA 
HETATM   38  H   UNL     1      -7.579   4.814  67.880  1.00  0.00     0.000 HD 
HETATM   39  C   UNL     1      -6.600   6.411  66.867  1.00  0.00    -0.055 A  
HETATM   40  C   UNL     1      -5.891   7.181  67.802  1.00  0.00    -0.029 A  
HETATM   41  C   UNL     1      -5.232   8.367  67.363  1.00  0.00    -0.034 A  
HETATM   42  C   UNL     1      -5.315   8.890  66.056  1.00  0.00    -0.037 A  
HETATM   43  C   UNL     1      -6.087   8.220  65.116  1.00  0.00    -0.045 A  
HETATM   44  C   UNL     1      -6.656   6.814  65.552  1.00  0.00    -0.051 A  
HETATM   45  C   UNL     1      -6.722   9.036  63.554  1.00  0.00    -0.089 C  
HETATM   46  C   UNL     1      -7.343  10.185  63.870  1.00  0.00    -0.111 C  
ENDBRANCH  27  29
ENDBRANCH  13  25
TORSDOF 4
ENDMDL
MODEL       19
REMARK 921   NORMALIZED FREE ENERGY PREDICTED BY IDOCK:   -7.39 KCAL/MOL
REMARK 922        TOTAL FREE ENERGY PREDICTED BY IDOCK:   -9.98 KCAL/MOL
REMARK 923 INTER-LIGAND FREE ENERGY PREDICTED BY IDOCK:   -9.20 KCAL/MOL
REMARK 924 INTRA-LIGAND FREE ENERGY PREDICTED BY IDOCK:   -0.79 KCAL/MOL
REMARK 927      BINDING AFFINITY PREDICTED BY RF-SCORE:    0.00 PKD
ROOT
HETATM    1  C   UNL     1      -7.690   4.810  70.920  1.00  0.00    -0.073 A  
HETATM    2  C   UNL     1      -6.485   4.011  71.442  1.00  0.00    -0.015 A  
HETATM    3  C   UNL     1      -7.133   3.001  72.460  1.00  0.00    -0.039 A  
HETATM    4  C   UNL     1      -8.598   3.410  72.567  1.00  0.00    -0.085 A  
HETATM    5  N   UNL     1      -8.603   4.747  72.020  1.00  0.00    -0.118 N  
HETATM    6  C   UNL     1      -9.773   5.435  71.979  1.00  0.00    -0.161 C  
HETATM    7  O   UNL     1     -10.479   5.538  72.980  1.00  0.00    -0.187 OA 
HETATM    8  C   UNL     1     -10.057   6.139  70.626  1.00  0.00    -0.240 C  
HETATM    9  O   UNL     1      -8.190   7.448  69.733  1.00  0.00    -0.125 OA 
HETATM   10  N   UNL     1      -9.069   5.638  69.363  1.00  0.00    -0.116 N  
HETATM   11  C   UNL     1      -8.874   6.287  68.107  1.00  0.00    -0.113 C  
HETATM   12  H   UNL     1      -6.742   6.523  68.369  1.00  0.00     0.000 HD 
HETATM   13  C   UNL     1      -9.165   7.705  68.425  1.00  0.00    -0.140 C  
HETATM   14  O   UNL     1      -8.548   5.786  67.043  1.00  0.00    -0.111 OA 
HETATM   15  O   UNL     1      -6.673   5.818  69.002  1.00  0.00    -0.055 OA 
HETATM   16  C   UNL     1     -10.657   7.334  67.945  1.00  0.00    -0.266 C  
HETATM   17  C   UNL     1      -7.807   6.017  69.834  1.00  0.00    -0.104 C  
ENDROOT
BRANCH   8  18
HETATM   18  C   UNL     1     -11.581   6.190  70.526  1.00  0.00    -0.261 C  
BRANCH  18  19
HETATM   19  C   UNL     1     -12.192   7.418  71.108  1.00  0.00    -0.357 A  
HETATM   20  C   UNL     1     -14.163   8.477  71.989  1.00  0.00    -0.535 A  
HETATM   21  C   UNL     1     -13.476   9.684  72.037  1.00  0.00    -0.514 A  
HETATM   22  C   UNL     1     -11.500   8.627  71.186  1.00  0.00    -0.332 A  
HETATM   23  C   UNL     1     -12.134   9.782  71.630  1.00  0.00    -0.475 A  
HETATM   24  C   UNL     1     -13.521   7.342  71.532  1.00  0.00    -0.439 A  
ENDBRANCH  18  19
ENDBRANCH   8  18
BRANCH  13  25
HETATM   25  N   UNL     1      -8.925   9.026  67.873  1.00  0.00    -0.132 N  
HETATM   26  O   UNL     1      -8.780  10.059  69.973  1.00  0.00    -0.191 OA 
HETATM   27  C   UNL     1      -8.901  10.151  68.755  1.00  0.00    -0.146 C  
HETATM   28  H   UNL     1      -8.776   9.149  66.872  1.00  0.00     0.000 HD 
BRANCH  27  29
HETATM   29  C   UNL     1      -9.088  11.504  68.042  1.00  0.00    -0.174 C  
HETATM   30  C   UNL     1      -9.242  12.914  68.824  1.00  0.00     0.155 C  
HETATM   31  N   UNL     1      -8.501  14.455  68.063  1.00  0.00    -0.155 NA 
HETATM   32  C   UNL     1      -8.055  15.398  66.805  1.00  0.00    -0.177 C  
HETATM   33  C   UNL     1      -7.371  14.071  68.585  1.00  0.00    -0.120 C  
HETATM   34  C   UNL     1      -8.615  15.298  69.412  1.00  0.00    -0.226 C  
HETATM   35  C   UNL     1     -10.343  15.291  68.654  1.00  0.00    -0.232 A  
HETATM   36  C   UNL     1     -11.598  15.604  69.115  1.00  0.00    -0.383 A  
HETATM   37  N   UNL     1     -12.535  15.063  68.221  1.00  0.00    -0.340 NA 
HETATM   38  H   UNL     1     -13.542  15.154  68.353  1.00  0.00     0.000 HD 
HETATM   39  C   UNL     1     -11.970  14.390  67.137  1.00  0.00    -0.389 A  
HETATM   40  C   UNL     1     -12.524  13.635  66.092  1.00  0.00    -0.449 A  
HETATM   41  C   UNL     1     -11.652  12.943  65.200  1.00  0.00    -0.367 A  
HETATM   42  C   UNL     1     -10.251  12.879  65.343  1.00  0.00    -0.301 A  
HETATM   43  C   UNL     1      -9.659  13.527  66.420  1.00  0.00    -0.268 A  
HETATM   44  C   UNL     1     -10.603  14.444  67.290  1.00  0.00    -0.279 A  
HETATM   45  C   UNL     1      -7.942  13.106  67.042  1.00  0.00     0.001 C  
HETATM   46  C   UNL     1      -7.853  11.780  67.244  1.00  0.00    -0.161 C  
ENDBRANCH  27  29
ENDBRANCH  13  25
TORSDOF 4
ENDMDL
MODEL       20
REMARK 921   NORMALIZED FREE ENERGY PREDICTED BY IDOCK:   -7.37 KCAL/MOL
REMARK 922        TOTAL FREE ENERGY PREDICTED BY IDOCK:   -9.96 KCAL/MOL
REMARK 923 INTER-LIGAND FREE ENERGY PREDICTED BY IDOCK:   -9.12 KCAL/MOL
REMARK 924 INTRA-LIGAND FREE ENERGY PREDICTED BY IDOCK:   -0.83 KCAL/MOL
REMARK 927      BINDING AFFINITY PREDICTED BY RF-SCORE:    0.00 PKD
ROOT
HETATM    1  C   UNL     1     -10.796  12.232  65.133  1.00  0.00    -0.301 A  
HETATM    2  C   UNL     1     -11.388  11.792  63.785  1.00  0.00    -0.524 A  
HETATM    3  C   UNL     1     -12.187  13.060  63.308  1.00  0.00    -0.464 A  
HETATM    4  C   UNL     1     -12.134  14.040  64.474  1.00  0.00    -0.459 A  
HETATM    5  N   UNL     1     -11.744  13.203  65.585  1.00  0.00    -0.346 N  
HETATM    6  C   UNL     1     -11.619  13.763  66.816  1.00  0.00    -0.370 C  
HETATM    7  O   UNL     1     -12.517  14.456  67.288  1.00  0.00    -0.211 OA 
HETATM    8  C   UNL     1     -10.326  13.362  67.575  1.00  0.00    -0.226 C  
HETATM    9  O   UNL     1      -9.852  10.960  67.605  1.00  0.00    -0.168 OA 
HETATM   10  N   UNL     1      -9.165  12.615  66.618  1.00  0.00    -0.228 N  
HETATM   11  C   UNL     1      -8.028  11.872  67.058  1.00  0.00    -0.158 C  
HETATM   12  H   UNL     1      -8.608  10.057  66.039  1.00  0.00     0.000 HD 
HETATM   13  C   UNL     1      -8.458  11.376  68.387  1.00  0.00    -0.155 C  
HETATM   14  O   UNL     1      -6.970  11.698  66.475  1.00  0.00    -0.076 OA 
HETATM   15  O   UNL     1      -9.162  10.506  65.412  1.00  0.00    -0.172 OA 
HETATM   16  C   UNL     1      -7.738  12.708  68.934  1.00  0.00     0.094 C  
HETATM   17  C   UNL     1      -9.845  11.463  66.209  1.00  0.00    -0.218 C  
ENDROOT
BRANCH   8  18
HETATM   18  C   UNL     1     -10.022  14.553  68.482  1.00  0.00    -0.238 C  
BRANCH  18  19
HETATM   19  C   UNL     1      -9.612  15.788  67.754  1.00  0.00    -0.214 A  
HETATM   20  C   UNL     1     -10.082  18.092  67.252  1.00  0.00    -0.346 A  
HETATM   21  C   UNL     1      -9.049  18.085  66.323  1.00  0.00    -0.197 A  
HETATM   22  C   UNL     1      -8.558  15.797  66.840  1.00  0.00    -0.279 A  
HETATM   23  C   UNL     1      -8.272  16.935  66.095  1.00  0.00    -0.295 A  
HETATM   24  C   UNL     1     -10.361  16.947  67.974  1.00  0.00    -0.334 A  
ENDBRANCH  18  19
ENDBRANCH   8  18
BRANCH  13  25
HETATM   25  N   UNL     1      -8.095  10.348  69.346  1.00  0.00    -0.199 N  
HETATM   26  O   UNL     1      -7.432   8.813  67.703  1.00  0.00    -0.091 OA 
HETATM   27  C   UNL     1      -7.737   9.050  68.868  1.00  0.00    -0.094 C  
HETATM   28  H   UNL     1      -8.096  10.551  70.346  1.00  0.00     0.000 HD 
BRANCH  27  29
HETATM   29  C   UNL     1      -7.812   7.949  69.944  1.00  0.00    -0.103 C  
HETATM   30  C   UNL     1      -9.049   6.913  70.080  1.00  0.00    -0.152 C  
HETATM   31  N   UNL     1      -8.701   5.155  70.619  1.00  0.00    -0.125 NA 
HETATM   32  C   UNL     1      -7.878   4.014  71.449  1.00  0.00    -0.071 C  
HETATM   33  C   UNL     1      -8.395   4.921  69.374  1.00  0.00    -0.084 C  
HETATM   34  C   UNL     1     -10.135   4.625  70.163  1.00  0.00    -0.213 C  
HETATM   35  C   UNL     1     -10.399   5.486  71.821  1.00  0.00    -0.272 A  
HETATM   36  C   UNL     1     -11.501   5.933  72.509  1.00  0.00    -0.298 A  
HETATM   37  N   UNL     1     -11.059   6.809  73.512  1.00  0.00    -0.498 NA 
HETATM   38  H   UNL     1     -11.695   7.281  74.153  1.00  0.00     0.000 HD 
HETATM   39  C   UNL     1      -9.675   6.979  73.555  1.00  0.00    -0.233 A  
HETATM   40  C   UNL     1      -8.841   7.818  74.310  1.00  0.00    -0.187 A  
HETATM   41  C   UNL     1      -7.447   7.857  74.016  1.00  0.00    -0.198 A  
HETATM   42  C   UNL     1      -6.839   7.176  72.940  1.00  0.00    -0.068 A  
HETATM   43  C   UNL     1      -7.636   6.409  72.099  1.00  0.00    -0.094 A  
HETATM   44  C   UNL     1      -9.138   6.217  72.541  1.00  0.00    -0.141 A  
HETATM   45  C   UNL     1      -7.101   5.903  70.376  1.00  0.00    -0.070 C  
HETATM   46  C   UNL     1      -6.691   6.988  69.698  1.00  0.00    -0.049 C  
ENDBRANCH  27  29
ENDBRANCH  13  25
TORSDOF 4
ENDMDL
MODEL       21
REMARK 921   NORMALIZED FREE ENERGY PREDICTED BY IDOCK:   -7.37 KCAL/MOL
REMARK 922        TOTAL FREE ENERGY PREDICTED BY IDOCK:   -9.96 KCAL/MOL
REMARK 923 INTER-LIGAND FREE ENERGY PREDICTED BY IDOCK:   -9.35 KCAL/MOL
REMARK 924 INTRA-LIGAND FREE ENERGY PREDICTED BY IDOCK:   -0.61 KCAL/MOL
REMARK 927      BINDING AFFINITY PREDICTED BY RF-SCORE:    0.00 PKD
ROOT
HETATM    1  C   UNL     1      -7.624   4.862  72.426  1.00  0.00    -0.091 A  
HETATM    2  C   UNL     1      -6.407   4.245  73.133  1.00  0.00    -0.036 A  
HETATM    3  C   UNL     1      -7.051   3.222  74.139  1.00  0.00    -0.047 A  
HETATM    4  C   UNL     1      -8.555   3.454  74.053  1.00  0.00    -0.088 A  
HETATM    5  N   UNL     1      -8.648   4.749  73.419  1.00  0.00    -0.102 N  
HETATM    6  C   UNL     1      -9.876   5.287  73.201  1.00  0.00    -0.154 C  
HETATM    7  O   UNL     1     -10.703   5.358  74.107  1.00  0.00    -0.274 OA 
HETATM    8  C   UNL     1     -10.076   5.876  71.779  1.00  0.00    -0.228 C  
HETATM    9  O   UNL     1      -8.278   7.351  71.013  1.00  0.00    -0.108 OA 
HETATM   10  N   UNL     1      -8.894   5.430  70.672  1.00  0.00    -0.130 N  
HETATM   11  C   UNL     1      -8.626   6.028  69.404  1.00  0.00    -0.122 C  
HETATM   12  H   UNL     1      -6.581   6.535  69.886  1.00  0.00     0.000 HD 
HETATM   13  C   UNL     1      -9.113   7.416  69.589  1.00  0.00    -0.140 C  
HETATM   14  O   UNL     1      -8.121   5.513  68.420  1.00  0.00    -0.098 OA 
HETATM   15  O   UNL     1      -6.508   5.880  70.569  1.00  0.00    -0.034 OA 
HETATM   16  C   UNL     1     -10.485   6.840  68.972  1.00  0.00    -0.229 C  
HETATM   17  C   UNL     1      -7.749   5.985  71.254  1.00  0.00    -0.110 C  
ENDROOT
BRANCH   8  18
HETATM   18  C   UNL     1     -11.573   5.735  71.506  1.00  0.00    -0.034 C  
BRANCH  18  19
HETATM   19  C   UNL     1     -12.341   7.005  71.641  1.00  0.00    -0.407 A  
HETATM   20  C   UNL     1     -12.448   9.217  72.577  1.00  0.00    -0.260 A  
HETATM   21  C   UNL     1     -13.747   9.340  72.102  1.00  0.00    -0.517 A  
HETATM   22  C   UNL     1     -13.636   7.147  71.142  1.00  0.00    -0.207 A  
HETATM   23  C   UNL     1     -14.368   8.305  71.380  1.00  0.00    -0.461 A  
HETATM   24  C   UNL     1     -11.740   8.053  72.342  1.00  0.00    -0.444 A  
ENDBRANCH  18  19
ENDBRANCH   8  18
BRANCH  13  25
HETATM   25  N   UNL     1      -8.962   8.724  68.979  1.00  0.00    -0.137 N  
HETATM   26  O   UNL     1     -11.118   9.432  69.567  1.00  0.00    -0.210 OA 
HETATM   27  C   UNL     1     -10.097   9.588  68.903  1.00  0.00    -0.188 C  
HETATM   28  H   UNL     1      -8.059   9.021  68.610  1.00  0.00     0.000 HD 
BRANCH  27  29
HETATM   29  C   UNL     1      -9.949  10.722  67.870  1.00  0.00    -0.196 C  
HETATM   30  C   UNL     1     -10.815  12.089  67.910  1.00  0.00    -0.254 C  
HETATM   31  N   UNL     1     -10.006  13.688  67.372  1.00  0.00    -0.231 NA 
HETATM   32  C   UNL     1      -8.969  14.574  66.472  1.00  0.00    -0.180 C  
HETATM   33  C   UNL     1      -9.507  13.745  68.574  1.00  0.00    -0.162 C  
HETATM   34  C   UNL     1     -11.148  14.599  68.012  1.00  0.00    -0.281 C  
HETATM   35  C   UNL     1     -11.846  13.958  66.381  1.00  0.00    -0.436 A  
HETATM   36  C   UNL     1     -13.100  13.906  65.824  1.00  0.00    -0.087 A  
HETATM   37  N   UNL     1     -13.063  12.999  64.756  1.00  0.00    -0.730 NA 
HETATM   38  H   UNL     1     -13.880  12.779  64.187  1.00  0.00     0.000 HD 
HETATM   39  C   UNL     1     -11.811  12.421  64.538  1.00  0.00    -0.384 A  
HETATM   40  C   UNL     1     -11.365  11.415  63.667  1.00  0.00    -0.299 A  
HETATM   41  C   UNL     1     -10.026  10.939  63.787  1.00  0.00    -0.408 A  
HETATM   42  C   UNL     1      -9.123  11.340  64.794  1.00  0.00    -0.032 A  
HETATM   43  C   UNL     1      -9.548  12.260  65.743  1.00  0.00    -0.185 A  
HETATM   44  C   UNL     1     -10.957  12.923  65.495  1.00  0.00    -0.301 A  
HETATM   45  C   UNL     1      -8.697  12.479  67.398  1.00  0.00    -0.189 C  
HETATM   46  C   UNL     1      -8.567  11.283  67.996  1.00  0.00    -0.140 C  
ENDBRANCH  27  29
ENDBRANCH  13  25
TORSDOF 4
ENDMDL
MODEL       22
REMARK 921   NORMALIZED FREE ENERGY PREDICTED BY IDOCK:   -7.25 KCAL/MOL
REMARK 922        TOTAL FREE ENERGY PREDICTED BY IDOCK:   -9.81 KCAL/MOL
REMARK 923 INTER-LIGAND FREE ENERGY PREDICTED BY IDOCK:   -9.30 KCAL/MOL
REMARK 924 INTRA-LIGAND FREE ENERGY PREDICTED BY IDOCK:   -0.51 KCAL/MOL
REMARK 927      BINDING AFFINITY PREDICTED BY RF-SCORE:    0.00 PKD
ROOT
HETATM    1  C   UNL     1     -10.555  16.099  67.587  1.00  0.00    -0.315 A  
HETATM    2  C   UNL     1     -10.196  17.569  67.857  1.00  0.00    -0.350 A  
HETATM    3  C   UNL     1     -10.606  18.294  66.523  1.00  0.00    -0.313 A  
HETATM    4  C   UNL     1     -10.995  17.183  65.555  1.00  0.00     0.064 A  
HETATM    5  N   UNL     1     -10.422  16.005  66.166  1.00  0.00    -0.319 N  
HETATM    6  C   UNL     1     -10.565  14.807  65.542  1.00  0.00    -0.359 C  
HETATM    7  O   UNL     1     -10.276  14.676  64.354  1.00  0.00    -0.074 OA 
HETATM    8  C   UNL     1     -11.005  13.646  66.474  1.00  0.00    -0.295 C  
HETATM    9  O   UNL     1      -9.727  13.454  68.553  1.00  0.00    -0.218 OA 
HETATM   10  N   UNL     1     -11.567  14.140  67.977  1.00  0.00    -0.315 N  
HETATM   11  C   UNL     1     -11.752  13.333  69.139  1.00  0.00    -0.329 C  
HETATM   12  H   UNL     1     -10.400  14.489  70.367  1.00  0.00     0.000 HD 
HETATM   13  C   UNL     1     -10.777  12.236  68.934  1.00  0.00    -0.172 C  
HETATM   14  O   UNL     1     -12.527  13.513  70.066  1.00  0.00    -0.268 OA 
HETATM   15  O   UNL     1     -10.474  15.270  69.831  1.00  0.00    -0.267 OA 
HETATM   16  C   UNL     1     -12.027  11.473  68.264  1.00  0.00    -0.239 C  
HETATM   17  C   UNL     1     -10.429  14.761  68.505  1.00  0.00    -0.249 C  
ENDROOT
BRANCH   8  18
HETATM   18  C   UNL     1     -11.777  12.690  65.565  1.00  0.00    -0.446 C  
BRANCH  18  19
HETATM   19  C   UNL     1     -10.916  11.745  64.799  1.00  0.00    -0.360 A  
HETATM   20  C   UNL     1      -9.328   9.941  64.872  1.00  0.00    -0.329 A  
HETATM   21  C   UNL     1      -9.154  10.058  63.498  1.00  0.00    -0.303 A  
HETATM   22  C   UNL     1     -10.757  11.837  63.416  1.00  0.00    -0.468 A  
HETATM   23  C   UNL     1      -9.861  11.012  62.746  1.00  0.00    -0.262 A  
HETATM   24  C   UNL     1     -10.213  10.778  65.523  1.00  0.00    -0.330 A  
ENDBRANCH  18  19
ENDBRANCH   8  18
BRANCH  13  25
HETATM   25  N   UNL     1     -10.098  11.211  69.704  1.00  0.00    -0.401 N  
HETATM   26  O   UNL     1      -8.399  10.909  68.117  1.00  0.00    -0.114 OA 
HETATM   27  C   UNL     1      -8.998  10.514  69.113  1.00  0.00    -0.161 C  
HETATM   28  H   UNL     1     -10.400  10.991  70.653  1.00  0.00     0.000 HD 
BRANCH  27  29
HETATM   29  C   UNL     1      -8.654   9.186  69.814  1.00  0.00    -0.144 C  
HETATM   30  C   UNL     1      -8.138   7.867  69.028  1.00  0.00    -0.124 C  
HETATM   31  N   UNL     1      -6.880   6.757  69.856  1.00  0.00    -0.053 NA 
HETATM   32  C   UNL     1      -6.179   6.049  71.152  1.00  0.00    -0.039 C  
HETATM   33  C   UNL     1      -5.979   7.595  69.430  1.00  0.00    -0.030 C  
HETATM   34  C   UNL     1      -6.522   5.986  68.506  1.00  0.00    -0.049 C  
HETATM   35  C   UNL     1      -8.146   5.243  69.116  1.00  0.00    -0.089 A  
HETATM   36  C   UNL     1      -9.113   4.447  68.552  1.00  0.00    -0.124 A  
HETATM   37  N   UNL     1     -10.257   4.517  69.360  1.00  0.00    -0.054 NA 
HETATM   38  H   UNL     1     -11.118   4.016  69.144  1.00  0.00     0.000 HD 
HETATM   39  C   UNL     1     -10.115   5.330  70.485  1.00  0.00    -0.245 A  
HETATM   40  C   UNL     1     -11.016   5.750  71.476  1.00  0.00    -0.304 A  
HETATM   41  C   UNL     1     -10.589   6.715  72.435  1.00  0.00    -0.242 A  
HETATM   42  C   UNL     1      -9.339   7.367  72.411  1.00  0.00    -0.179 A  
HETATM   43  C   UNL     1      -8.446   7.061  71.391  1.00  0.00    -0.114 A  
HETATM   44  C   UNL     1      -8.845   5.860  70.449  1.00  0.00    -0.146 A  
HETATM   45  C   UNL     1      -7.024   8.183  70.915  1.00  0.00    -0.043 C  
HETATM   46  C   UNL     1      -7.484   9.429  70.715  1.00  0.00    -0.132 C  
ENDBRANCH  27  29
ENDBRANCH  13  25
TORSDOF 4
ENDMDL
MODEL       23
REMARK 921   NORMALIZED FREE ENERGY PREDICTED BY IDOCK:   -7.23 KCAL/MOL
REMARK 922        TOTAL FREE ENERGY PREDICTED BY IDOCK:   -9.78 KCAL/MOL
REMARK 923 INTER-LIGAND FREE ENERGY PREDICTED BY IDOCK:   -9.03 KCAL/MOL
REMARK 924 INTRA-LIGAND FREE ENERGY PREDICTED BY IDOCK:   -0.75 KCAL/MOL
REMARK 927      BINDING AFFINITY PREDICTED BY RF-SCORE:    0.00 PKD
ROOT
HETATM    1  C   UNL     1     -11.219  11.988  64.921  1.00  0.00    -0.320 A  
HETATM    2  C   UNL     1     -11.864  11.855  63.532  1.00  0.00    -0.560 A  
HETATM    3  C   UNL     1     -12.370  13.313  63.226  1.00  0.00    -0.317 A  
HETATM    4  C   UNL     1     -12.136  14.106  64.506  1.00  0.00    -0.468 A  
HETATM    5  N   UNL     1     -11.952  13.072  65.499  1.00  0.00    -0.398 N  
HETATM    6  C   UNL     1     -11.736  13.434  66.790  1.00  0.00    -0.385 C  
HETATM    7  O   UNL     1     -12.478  14.236  67.353  1.00  0.00    -0.204 OA 
HETATM    8  C   UNL     1     -10.571  12.677  67.483  1.00  0.00    -0.236 C  
HETATM    9  O   UNL     1     -10.613  10.245  67.204  1.00  0.00    -0.247 OA 
HETATM   10  N   UNL     1      -9.574  11.829  66.431  1.00  0.00    -0.212 N  
HETATM   11  C   UNL     1      -8.628  10.814  66.765  1.00  0.00    -0.136 C  
HETATM   12  H   UNL     1      -9.555   9.304  65.528  1.00  0.00     0.000 HD 
HETATM   13  C   UNL     1      -9.178  10.256  68.023  1.00  0.00    -0.135 C  
HETATM   14  O   UNL     1      -7.618  10.495  66.157  1.00  0.00    -0.124 OA 
HETATM   15  O   UNL     1      -9.990   9.935  64.967  1.00  0.00    -0.316 OA 
HETATM   16  C   UNL     1      -8.205  11.327  68.729  1.00  0.00    -0.122 C  
HETATM   17  C   UNL     1     -10.473  10.907  65.883  1.00  0.00    -0.221 C  
ENDROOT
BRANCH   8  18
HETATM   18  C   UNL     1     -10.042  13.654  68.532  1.00  0.00    -0.219 C  
BRANCH  18  19
HETATM   19  C   UNL     1      -9.644  14.983  67.985  1.00  0.00    -0.208 A  
HETATM   20  C   UNL     1      -8.317  16.201  66.393  1.00  0.00    -0.357 A  
HETATM   21  C   UNL     1      -8.702  17.389  67.002  1.00  0.00    -0.249 A  
HETATM   22  C   UNL     1     -10.049  16.181  68.573  1.00  0.00    -0.241 A  
HETATM   23  C   UNL     1      -9.570  17.400  68.108  1.00  0.00    -0.287 A  
HETATM   24  C   UNL     1      -8.792  14.997  66.878  1.00  0.00    -0.285 A  
ENDBRANCH  18  19
ENDBRANCH   8  18
BRANCH  13  25
HETATM   25  N   UNL     1      -9.059   9.064  68.841  1.00  0.00    -0.139 N  
HETATM   26  O   UNL     1     -10.635   9.785  70.419  1.00  0.00    -0.265 OA 
HETATM   27  C   UNL     1      -9.732   9.016  70.101  1.00  0.00    -0.188 C  
HETATM   28  H   UNL     1      -8.503   8.270  68.521  1.00  0.00     0.000 HD 
BRANCH  27  29
HETATM   29  C   UNL     1      -9.191   7.936  71.056  1.00  0.00    -0.164 C  
HETATM   30  C   UNL     1      -8.309   6.669  70.567  1.00  0.00    -0.130 C  
HETATM   31  N   UNL     1      -6.946   6.033  71.679  1.00  0.00    -0.074 NA 
HETATM   32  C   UNL     1      -6.265   5.726  73.133  1.00  0.00    -0.061 C  
HETATM   33  C   UNL     1      -6.206   6.982  71.180  1.00  0.00    -0.037 C  
HETATM   34  C   UNL     1      -6.270   5.165  70.524  1.00  0.00    -0.022 C  
HETATM   35  C   UNL     1      -7.752   4.166  71.129  1.00  0.00    -0.066 A  
HETATM   36  C   UNL     1      -8.446   3.084  70.644  1.00  0.00    -0.057 A  
HETATM   37  N   UNL     1      -9.666   3.009  71.333  1.00  0.00    -0.157 NA 
HETATM   38  H   UNL     1     -10.365   2.291  71.145  1.00  0.00     0.000 HD 
HETATM   39  C   UNL     1      -9.840   4.000  72.299  1.00  0.00    -0.160 A  
HETATM   40  C   UNL     1     -10.922   4.348  73.123  1.00  0.00    -0.332 A  
HETATM   41  C   UNL     1     -10.835   5.526  73.922  1.00  0.00    -0.182 A  
HETATM   42  C   UNL     1      -9.763   6.442  73.878  1.00  0.00    -0.228 A  
HETATM   43  C   UNL     1      -8.711   6.198  73.005  1.00  0.00    -0.121 A  
HETATM   44  C   UNL     1      -8.722   4.803  72.268  1.00  0.00    -0.125 A  
HETATM   45  C   UNL     1      -7.523   7.534  72.446  1.00  0.00    -0.082 C  
HETATM   46  C   UNL     1      -8.218   8.588  71.987  1.00  0.00    -0.192 C  
ENDBRANCH  27  29
ENDBRANCH  13  25
TORSDOF 4
ENDMDL
MODEL       24
REMARK 921   NORMALIZED FREE ENERGY PREDICTED BY IDOCK:   -7.23 KCAL/MOL
REMARK 922        TOTAL FREE ENERGY PREDICTED BY IDOCK:   -9.78 KCAL/MOL
REMARK 923 INTER-LIGAND FREE ENERGY PREDICTED BY IDOCK:   -8.95 KCAL/MOL
REMARK 924 INTRA-LIGAND FREE ENERGY PREDICTED BY IDOCK:   -0.83 KCAL/MOL
REMARK 927      BINDING AFFINITY PREDICTED BY RF-SCORE:    0.00 PKD
ROOT
HETATM    1  C   UNL     1     -10.739  11.990  65.089  1.00  0.00    -0.288 A  
HETATM    2  C   UNL     1     -11.260  11.390  63.773  1.00  0.00    -0.375 A  
HETATM    3  C   UNL     1     -12.053  12.582  63.121  1.00  0.00    -0.360 A  
HETATM    4  C   UNL     1     -12.071  13.686  64.170  1.00  0.00    -0.435 A  
HETATM    5  N   UNL     1     -11.723  12.986  65.385  1.00  0.00    -0.345 N  
HETATM    6  C   UNL     1     -11.665  13.681  66.550  1.00  0.00    -0.382 C  
HETATM    7  O   UNL     1     -12.596  14.405  66.899  1.00  0.00    -0.173 OA 
HETATM    8  C   UNL     1     -10.404  13.393  67.408  1.00  0.00    -0.240 C  
HETATM    9  O   UNL     1      -9.898  11.019  67.729  1.00  0.00    -0.169 OA 
HETATM   10  N   UNL     1      -9.188  12.568  66.596  1.00  0.00    -0.227 N  
HETATM   11  C   UNL     1      -8.063  11.902  67.168  1.00  0.00    -0.172 C  
HETATM   12  H   UNL     1      -8.566   9.973  66.334  1.00  0.00     0.000 HD 
HETATM   13  C   UNL     1      -8.549  11.548  68.523  1.00  0.00    -0.140 C  
HETATM   14  O   UNL     1      -6.976  11.685  66.658  1.00  0.00    -0.115 OA 
HETATM   15  O   UNL     1      -9.096  10.338  65.635  1.00  0.00    -0.159 OA 
HETATM   16  C   UNL     1      -7.876  12.947  68.950  1.00  0.00     0.139 C  
HETATM   17  C   UNL     1      -9.831  11.364  66.287  1.00  0.00    -0.218 C  
ENDROOT
BRANCH   8  18
HETATM   18  C   UNL     1     -10.162  14.684  68.189  1.00  0.00    -0.231 C  
BRANCH  18  19
HETATM   19  C   UNL     1     -10.962  14.801  69.441  1.00  0.00    -0.282 A  
HETATM   20  C   UNL     1     -11.672  16.194  71.268  1.00  0.00    -0.480 A  
HETATM   21  C   UNL     1     -12.270  15.088  71.860  1.00  0.00    -0.427 A  
HETATM   22  C   UNL     1     -11.590  13.701  70.028  1.00  0.00    -0.250 A  
HETATM   23  C   UNL     1     -12.234  13.820  71.254  1.00  0.00    -0.314 A  
HETATM   24  C   UNL     1     -11.024  16.054  70.056  1.00  0.00    -0.365 A  
ENDBRANCH  18  19
ENDBRANCH   8  18
BRANCH  13  25
HETATM   25  N   UNL     1      -8.218  10.641  69.607  1.00  0.00    -0.382 N  
HETATM   26  O   UNL     1      -7.736   8.845  68.180  1.00  0.00    -0.098 OA 
HETATM   27  C   UNL     1      -7.973   9.265  69.309  1.00  0.00    -0.098 C  
HETATM   28  H   UNL     1      -8.162  10.981  70.567  1.00  0.00     0.000 HD 
BRANCH  27  29
HETATM   29  C   UNL     1      -8.077   8.334  70.533  1.00  0.00    -0.105 C  
HETATM   30  C   UNL     1      -7.550   6.803  70.541  1.00  0.00    -0.091 C  
HETATM   31  N   UNL     1      -6.806   6.112  72.112  1.00  0.00    -0.071 NA 
HETATM   32  C   UNL     1      -6.668   5.987  73.735  1.00  0.00    -0.079 C  
HETATM   33  C   UNL     1      -5.698   6.691  71.746  1.00  0.00    -0.036 C  
HETATM   34  C   UNL     1      -6.164   4.852  71.374  1.00  0.00    -0.018 C  
HETATM   35  C   UNL     1      -7.992   4.445  71.606  1.00  0.00    -0.091 A  
HETATM   36  C   UNL     1      -8.841   3.500  71.085  1.00  0.00    -0.082 A  
HETATM   37  N   UNL     1     -10.157   3.909  71.348  1.00  0.00    -0.116 NA 
HETATM   38  H   UNL     1     -10.973   3.375  71.050  1.00  0.00     0.000 HD 
HETATM   39  C   UNL     1     -10.254   5.109  72.054  1.00  0.00    -0.202 A  
HETATM   40  C   UNL     1     -11.345   5.909  72.427  1.00  0.00    -0.358 A  
HETATM   41  C   UNL     1     -11.099   7.176  73.032  1.00  0.00    -0.323 A  
HETATM   42  C   UNL     1      -9.820   7.745  73.204  1.00  0.00    -0.361 A  
HETATM   43  C   UNL     1      -8.710   7.037  72.761  1.00  0.00    -0.136 A  
HETATM   44  C   UNL     1      -8.971   5.561  72.269  1.00  0.00    -0.143 A  
HETATM   45  C   UNL     1      -7.054   7.848  72.428  1.00  0.00    -0.095 C  
HETATM   46  C   UNL     1      -7.229   8.909  71.623  1.00  0.00    -0.057 C  
ENDBRANCH  27  29
ENDBRANCH  13  25
TORSDOF 4
ENDMDL
MODEL       25
REMARK 921   NORMALIZED FREE ENERGY PREDICTED BY IDOCK:   -7.15 KCAL/MOL
REMARK 922        TOTAL FREE ENERGY PREDICTED BY IDOCK:   -9.68 KCAL/MOL
REMARK 923 INTER-LIGAND FREE ENERGY PREDICTED BY IDOCK:   -9.18 KCAL/MOL
REMARK 924 INTRA-LIGAND FREE ENERGY PREDICTED BY IDOCK:   -0.50 KCAL/MOL
REMARK 927      BINDING AFFINITY PREDICTED BY RF-SCORE:    0.00 PKD
ROOT
HETATM    1  C   UNL     1      -7.127   7.776  72.676  1.00  0.00    -0.080 A  
HETATM    2  C   UNL     1      -5.790   8.043  73.386  1.00  0.00    -0.059 A  
HETATM    3  C   UNL     1      -5.792   7.002  74.565  1.00  0.00    -0.070 A  
HETATM    4  C   UNL     1      -7.173   6.358  74.542  1.00  0.00    -0.100 A  
HETATM    5  N   UNL     1      -7.946   7.276  73.737  1.00  0.00    -0.106 N  
HETATM    6  C   UNL     1      -9.261   7.013  73.522  1.00  0.00    -0.163 C  
HETATM    7  O   UNL     1     -10.015   6.758  74.460  1.00  0.00    -0.319 OA 
HETATM    8  C   UNL     1      -9.715   7.170  72.046  1.00  0.00    -0.173 C  
HETATM    9  O   UNL     1      -9.004   9.250  70.967  1.00  0.00    -0.225 OA 
HETATM   10  N   UNL     1      -8.454   7.280  70.942  1.00  0.00    -0.127 N  
HETATM   11  C   UNL     1      -8.526   7.724  69.588  1.00  0.00    -0.133 C  
HETATM   12  H   UNL     1      -7.110   9.334  69.863  1.00  0.00     0.000 HD 
HETATM   13  C   UNL     1      -9.701   8.628  69.603  1.00  0.00    -0.179 C  
HETATM   14  O   UNL     1      -7.795   7.425  68.657  1.00  0.00    -0.117 OA 
HETATM   15  O   UNL     1      -6.707   8.939  70.627  1.00  0.00    -0.042 OA 
HETATM   16  C   UNL     1     -10.513   7.310  69.162  1.00  0.00    -0.222 C  
HETATM   17  C   UNL     1      -7.818   8.452  71.366  1.00  0.00    -0.116 C  
ENDROOT
BRANCH   8  18
HETATM   18  C   UNL     1     -10.880   6.194  71.891  1.00  0.00    -0.295 C  
BRANCH  18  19
HETATM   19  C   UNL     1     -10.477   4.759  71.871  1.00  0.00    -0.201 A  
HETATM   20  C   UNL     1     -10.336   2.679  73.070  1.00  0.00    -0.235 A  
HETATM   21  C   UNL     1      -9.618   2.135  72.012  1.00  0.00    -0.189 A  
HETATM   22  C   UNL     1      -9.781   4.197  70.802  1.00  0.00    -0.266 A  
HETATM   23  C   UNL     1      -9.322   2.886  70.861  1.00  0.00    -0.220 A  
HETATM   24  C   UNL     1     -10.773   3.988  72.999  1.00  0.00    -0.251 A  
ENDBRANCH  18  19
ENDBRANCH   8  18
BRANCH  13  25
HETATM   25  N   UNL     1     -10.278   9.694  68.805  1.00  0.00    -0.189 N  
HETATM   26  O   UNL     1      -8.264  10.881  68.630  1.00  0.00    -0.130 OA 
HETATM   27  C   UNL     1      -9.485  10.846  68.509  1.00  0.00    -0.185 C  
HETATM   28  H   UNL     1     -11.235   9.621  68.460  1.00  0.00     0.000 HD 
BRANCH  27  29
HETATM   29  C   UNL     1     -10.308  12.070  68.063  1.00  0.00    -0.206 C  
HETATM   30  C   UNL     1      -9.882  13.035  66.834  1.00  0.00    -0.240 C  
HETATM   31  N   UNL     1     -11.223  13.774  65.760  1.00  0.00    -0.295 NA 
HETATM   32  C   UNL     1     -12.718  14.378  65.491  1.00  0.00    -0.293 C  
HETATM   33  C   UNL     1     -11.222  12.641  65.118  1.00  0.00    -0.301 C  
HETATM   34  C   UNL     1     -10.205  14.204  64.609  1.00  0.00    -0.161 C  
HETATM   35  C   UNL     1     -10.041  15.506  65.964  1.00  0.00    -0.354 A  
HETATM   36  C   UNL     1      -9.127  16.492  66.245  1.00  0.00    -0.313 A  
HETATM   37  N   UNL     1      -9.330  16.905  67.571  1.00  0.00    -0.230 NA 
HETATM   38  H   UNL     1      -8.765  17.626  68.019  1.00  0.00     0.000 HD 
HETATM   39  C   UNL     1     -10.371  16.244  68.224  1.00  0.00    -0.272 A  
HETATM   40  C   UNL     1     -10.836  16.272  69.548  1.00  0.00    -0.342 A  
HETATM   41  C   UNL     1     -11.852  15.355  69.945  1.00  0.00    -0.373 A  
HETATM   42  C   UNL     1     -12.374  14.335  69.122  1.00  0.00    -0.165 A  
HETATM   43  C   UNL     1     -11.876  14.199  67.832  1.00  0.00    -0.405 A  
HETATM   44  C   UNL     1     -10.895  15.330  67.336  1.00  0.00    -0.304 A  
HETATM   45  C   UNL     1     -12.057  12.623  66.834  1.00  0.00    -0.213 C  
HETATM   46  C   UNL     1     -11.631  11.580  67.565  1.00  0.00    -0.322 C  
ENDBRANCH  27  29
ENDBRANCH  13  25
TORSDOF 4
ENDMDL
MODEL       26
REMARK 921   NORMALIZED FREE ENERGY PREDICTED BY IDOCK:   -7.07 KCAL/MOL
REMARK 922        TOTAL FREE ENERGY PREDICTED BY IDOCK:   -9.59 KCAL/MOL
REMARK 923 INTER-LIGAND FREE ENERGY PREDICTED BY IDOCK:   -8.76 KCAL/MOL
REMARK 924 INTRA-LIGAND FREE ENERGY PREDICTED BY IDOCK:   -0.83 KCAL/MOL
REMARK 927      BINDING AFFINITY PREDICTED BY RF-SCORE:    0.00 PKD
ROOT
HETATM    1  C   UNL     1      -7.057   4.821  68.240  1.00  0.00    -0.061 A  
HETATM    2  C   UNL     1      -6.238   3.851  67.373  1.00  0.00    -0.036 A  
HETATM    3  C   UNL     1      -5.585   2.885  68.430  1.00  0.00    -0.018 A  
HETATM    4  C   UNL     1      -5.933   3.472  69.792  1.00  0.00    -0.023 A  
HETATM    5  N   UNL     1      -6.331   4.824  69.472  1.00  0.00    -0.027 N  
HETATM    6  C   UNL     1      -6.696   5.657  70.480  1.00  0.00    -0.048 C  
HETATM    7  O   UNL     1      -5.980   5.802  71.469  1.00  0.00    -0.024 OA 
HETATM    8  C   UNL     1      -8.000   6.455  70.214  1.00  0.00    -0.112 C  
HETATM    9  O   UNL     1      -8.106   7.555  68.029  1.00  0.00    -0.120 OA 
HETATM   10  N   UNL     1      -8.904   5.892  68.915  1.00  0.00    -0.115 N  
HETATM   11  C   UNL     1      -9.962   6.570  68.239  1.00  0.00    -0.143 C  
HETATM   12  H   UNL     1      -8.990   6.518  66.310  1.00  0.00     0.000 HD 
HETATM   13  C   UNL     1      -9.636   7.997  68.471  1.00  0.00    -0.155 C  
HETATM   14  O   UNL     1     -10.899   6.082  67.627  1.00  0.00    -0.281 OA 
HETATM   15  O   UNL     1      -8.435   5.781  66.534  1.00  0.00    -0.113 OA 
HETATM   16  C   UNL     1     -10.612   7.843  69.742  1.00  0.00    -0.242 C  
HETATM   17  C   UNL     1      -8.010   6.084  67.855  1.00  0.00    -0.106 C  
ENDROOT
BRANCH   8  18
HETATM   18  C   UNL     1      -8.593   6.704  71.601  1.00  0.00    -0.123 C  
BRANCH  18  19
HETATM   19  C   UNL     1      -9.427   5.583  72.120  1.00  0.00    -0.169 A  
HETATM   20  C   UNL     1     -11.329   4.913  73.429  1.00  0.00    -0.379 A  
HETATM   21  C   UNL     1     -10.947   3.586  73.278  1.00  0.00    -0.271 A  
HETATM   22  C   UNL     1      -9.066   4.247  71.949  1.00  0.00    -0.162 A  
HETATM   23  C   UNL     1      -9.805   3.229  72.541  1.00  0.00    -0.217 A  
HETATM   24  C   UNL     1     -10.575   5.913  72.845  1.00  0.00    -0.265 A  
ENDBRANCH  18  19
ENDBRANCH   8  18
BRANCH  13  25
HETATM   25  N   UNL     1      -9.959   9.301  67.922  1.00  0.00    -0.178 N  
HETATM   26  O   UNL     1      -8.546  10.455  69.394  1.00  0.00    -0.165 OA 
HETATM   27  C   UNL     1      -9.461  10.471  68.575  1.00  0.00    -0.164 C  
HETATM   28  H   UNL     1     -10.533   9.381  67.082  1.00  0.00     0.000 HD 
BRANCH  27  29
HETATM   29  C   UNL     1     -10.209  11.763  68.194  1.00  0.00    -0.210 C  
HETATM   30  C   UNL     1      -9.816  12.682  66.920  1.00  0.00    -0.234 C  
HETATM   31  N   UNL     1     -11.181  13.537  65.968  1.00  0.00    -0.294 NA 
HETATM   32  C   UNL     1     -12.634  14.272  65.833  1.00  0.00    -0.352 C  
HETATM   33  C   UNL     1     -11.341  12.406  65.342  1.00  0.00    -0.337 C  
HETATM   34  C   UNL     1     -10.241  13.869  64.722  1.00  0.00    -0.324 C  
HETATM   35  C   UNL     1      -9.834  15.156  66.042  1.00  0.00    -0.349 A  
HETATM   36  C   UNL     1      -8.814  16.056  66.226  1.00  0.00    -0.344 A  
HETATM   37  N   UNL     1      -8.854  16.489  67.559  1.00  0.00    -0.190 NA 
HETATM   38  H   UNL     1      -8.187  17.157  67.945  1.00  0.00     0.000 HD 
HETATM   39  C   UNL     1      -9.884  15.926  68.314  1.00  0.00    -0.217 A  
HETATM   40  C   UNL     1     -10.217  15.999  69.675  1.00  0.00    -0.265 A  
HETATM   41  C   UNL     1     -11.270  15.179  70.175  1.00  0.00    -0.299 A  
HETATM   42  C   UNL     1     -11.956  14.208  69.416  1.00  0.00    -0.382 A  
HETATM   43  C   UNL     1     -11.596  14.024  68.087  1.00  0.00    -0.369 A  
HETATM   44  C   UNL     1     -10.568  15.061  67.490  1.00  0.00    -0.265 A  
HETATM   45  C   UNL     1     -12.010  12.468  67.128  1.00  0.00    -0.285 C  
HETATM   46  C   UNL     1     -11.611  11.392  67.828  1.00  0.00    -0.325 C  
ENDBRANCH  27  29
ENDBRANCH  13  25
TORSDOF 4
ENDMDL
MODEL       27
REMARK 921   NORMALIZED FREE ENERGY PREDICTED BY IDOCK:   -7.05 KCAL/MOL
REMARK 922        TOTAL FREE ENERGY PREDICTED BY IDOCK:   -9.56 KCAL/MOL
REMARK 923 INTER-LIGAND FREE ENERGY PREDICTED BY IDOCK:   -9.25 KCAL/MOL
REMARK 924 INTRA-LIGAND FREE ENERGY PREDICTED BY IDOCK:   -0.31 KCAL/MOL
REMARK 927      BINDING AFFINITY PREDICTED BY RF-SCORE:    0.00 PKD
ROOT
HETATM    1  C   UNL     1     -11.466  14.157  69.558  1.00  0.00    -0.281 A  
HETATM    2  C   UNL     1     -12.455  14.322  70.723  1.00  0.00    -0.428 A  
HETATM    3  C   UNL     1     -12.306  15.839  71.113  1.00  0.00    -0.480 A  
HETATM    4  C   UNL     1     -11.146  16.366  70.278  1.00  0.00    -0.256 A  
HETATM    5  N   UNL     1     -10.483  15.157  69.844  1.00  0.00    -0.243 N  
HETATM    6  C   UNL     1      -9.367  15.260  69.076  1.00  0.00    -0.231 C  
HETATM    7  O   UNL     1      -8.435  15.987  69.414  1.00  0.00    -0.247 OA 
HETATM    8  C   UNL     1      -9.349  14.321  67.841  1.00  0.00    -0.198 C  
HETATM    9  O   UNL     1      -9.929  11.989  68.311  1.00  0.00    -0.194 OA 
HETATM   10  N   UNL     1     -10.833  13.625  67.478  1.00  0.00    -0.262 N  
HETATM   11  C   UNL     1     -11.080  12.511  66.619  1.00  0.00    -0.283 C  
HETATM   12  H   UNL     1     -12.011  11.314  68.159  1.00  0.00     0.000 HD 
HETATM   13  C   UNL     1      -9.802  11.764  66.679  1.00  0.00    -0.202 C  
HETATM   14  O   UNL     1     -12.097  12.252  65.996  1.00  0.00    -0.623 OA 
HETATM   15  O   UNL     1     -12.239  12.062  68.697  1.00  0.00    -0.299 OA 
HETATM   16  C   UNL     1      -9.427  12.626  65.372  1.00  0.00     0.126 C  
HETATM   17  C   UNL     1     -11.075  12.875  68.634  1.00  0.00    -0.269 C  
ENDROOT
BRANCH   8  18
HETATM   18  C   UNL     1      -8.493  15.054  66.808  1.00  0.00    -0.239 C  
BRANCH  18  19
HETATM   19  C   UNL     1      -8.918  16.459  66.549  1.00  0.00    -0.311 A  
HETATM   20  C   UNL     1      -8.279  18.773  66.406  1.00  0.00    -0.299 A  
HETATM   21  C   UNL     1      -9.617  19.118  66.255  1.00  0.00    -0.386 A  
HETATM   22  C   UNL     1     -10.255  16.811  66.368  1.00  0.00    -0.329 A  
HETATM   23  C   UNL     1     -10.630  18.143  66.240  1.00  0.00    -0.291 A  
HETATM   24  C   UNL     1      -7.927  17.444  66.546  1.00  0.00    -0.317 A  
ENDBRANCH  18  19
ENDBRANCH   8  18
BRANCH  13  25
HETATM   25  N   UNL     1      -9.291  10.435  66.395  1.00  0.00    -0.161 N  
HETATM   26  O   UNL     1     -11.031   9.344  67.526  1.00  0.00    -0.223 OA 
HETATM   27  C   UNL     1      -9.918   9.306  67.007  1.00  0.00    -0.224 C  
HETATM   28  H   UNL     1      -8.497  10.310  65.768  1.00  0.00     0.000 HD 
BRANCH  27  29
HETATM   29  C   UNL     1      -9.050   8.034  67.003  1.00  0.00    -0.170 C  
HETATM   30  C   UNL     1      -8.893   7.061  65.718  1.00  0.00    -0.088 C  
HETATM   31  N   UNL     1      -7.244   6.232  65.408  1.00  0.00    -0.068 NA 
HETATM   32  C   UNL     1      -5.836   5.551  65.880  1.00  0.00    -0.018 C  
HETATM   33  C   UNL     1      -6.880   7.349  64.846  1.00  0.00    -0.050 C  
HETATM   34  C   UNL     1      -7.616   5.826  63.911  1.00  0.00    -0.083 C  
HETATM   35  C   UNL     1      -8.474   4.565  65.022  1.00  0.00    -0.128 A  
HETATM   36  C   UNL     1      -9.463   3.631  64.834  1.00  0.00    -0.161 A  
HETATM   37  N   UNL     1      -9.936   3.241  66.095  1.00  0.00    -0.352 NA 
HETATM   38  H   UNL     1     -10.684   2.559  66.220  1.00  0.00     0.000 HD 
HETATM   39  C   UNL     1      -9.295   3.866  67.166  1.00  0.00    -0.191 A  
HETATM   40  C   UNL     1      -9.517   3.847  68.552  1.00  0.00    -0.213 A  
HETATM   41  C   UNL     1      -8.762   4.723  69.386  1.00  0.00    -0.107 A  
HETATM   42  C   UNL     1      -7.859   5.696  68.912  1.00  0.00    -0.096 A  
HETATM   43  C   UNL     1      -7.676   5.826  67.541  1.00  0.00    -0.097 A  
HETATM   44  C   UNL     1      -8.365   4.732  66.636  1.00  0.00    -0.106 A  
HETATM   45  C   UNL     1      -6.959   7.367  66.752  1.00  0.00    -0.077 C  
HETATM   46  C   UNL     1      -7.624   8.447  67.195  1.00  0.00    -0.093 C  
ENDBRANCH  27  29
ENDBRANCH  13  25
TORSDOF 4
ENDMDL
MODEL       28
REMARK 921   NORMALIZED FREE ENERGY PREDICTED BY IDOCK:   -7.02 KCAL/MOL
REMARK 922        TOTAL FREE ENERGY PREDICTED BY IDOCK:   -9.53 KCAL/MOL
REMARK 923 INTER-LIGAND FREE ENERGY PREDICTED BY IDOCK:   -8.94 KCAL/MOL
REMARK 924 INTRA-LIGAND FREE ENERGY PREDICTED BY IDOCK:   -0.59 KCAL/MOL
REMARK 927      BINDING AFFINITY PREDICTED BY RF-SCORE:    0.00 PKD
ROOT
HETATM    1  C   UNL     1     -10.513  15.981  67.439  1.00  0.00    -0.308 A  
HETATM    2  C   UNL     1     -10.244  17.478  67.663  1.00  0.00    -0.343 A  
HETATM    3  C   UNL     1     -10.663  18.130  66.294  1.00  0.00    -0.157 A  
HETATM    4  C   UNL     1     -10.966  16.964  65.360  1.00  0.00    -0.026 A  
HETATM    5  N   UNL     1     -10.342  15.844  66.026  1.00  0.00    -0.329 N  
HETATM    6  C   UNL     1     -10.402  14.618  65.444  1.00  0.00    -0.383 C  
HETATM    7  O   UNL     1     -10.079  14.462  64.268  1.00  0.00     0.068 OA 
HETATM    8  C   UNL     1     -10.797  13.469  66.408  1.00  0.00    -0.291 C  
HETATM    9  O   UNL     1      -9.560  13.424  68.520  1.00  0.00    -0.212 OA 
HETATM   10  N   UNL     1     -11.421  13.983  67.880  1.00  0.00    -0.298 N  
HETATM   11  C   UNL     1     -11.588  13.208  69.067  1.00  0.00    -0.312 C  
HETATM   12  H   UNL     1     -10.333  14.483  70.279  1.00  0.00     0.000 HD 
HETATM   13  C   UNL     1     -10.548  12.162  68.923  1.00  0.00    -0.146 C  
HETATM   14  O   UNL     1     -12.393  13.376  69.969  1.00  0.00    -0.296 OA 
HETATM   15  O   UNL     1     -10.438  15.239  69.713  1.00  0.00    -0.260 OA 
HETATM   16  C   UNL     1     -11.737  11.305  68.255  1.00  0.00    -0.344 C  
HETATM   17  C   UNL     1     -10.333  14.686  68.409  1.00  0.00    -0.237 C  
ENDROOT
BRANCH   8  18
HETATM   18  C   UNL     1     -11.493  12.438  65.519  1.00  0.00    -0.404 C  
BRANCH  18  19
HETATM   19  C   UNL     1     -10.564  11.487  64.844  1.00  0.00    -0.360 A  
HETATM   20  C   UNL     1      -9.718  10.612  62.770  1.00  0.00    -0.279 A  
HETATM   21  C   UNL     1      -9.010   9.651  63.482  1.00  0.00    -0.247 A  
HETATM   22  C   UNL     1      -9.827  10.537  65.552  1.00  0.00    -0.324 A  
HETATM   23  C   UNL     1      -9.056   9.592  64.885  1.00  0.00    -0.284 A  
HETATM   24  C   UNL     1     -10.490  11.535  63.450  1.00  0.00    -0.466 A  
ENDBRANCH  18  19
ENDBRANCH   8  18
BRANCH  13  25
HETATM   25  N   UNL     1      -9.830  11.206  69.745  1.00  0.00    -0.152 N  
HETATM   26  O   UNL     1      -8.237  10.728  68.092  1.00  0.00    -0.111 OA 
HETATM   27  C   UNL     1      -8.776  10.440  69.157  1.00  0.00    -0.166 C  
HETATM   28  H   UNL     1     -10.073  11.083  70.728  1.00  0.00     0.000 HD 
BRANCH  27  29
HETATM   29  C   UNL     1      -8.399   9.180  69.960  1.00  0.00    -0.156 C  
HETATM   30  C   UNL     1      -8.535   7.674  69.379  1.00  0.00    -0.132 C  
HETATM   31  N   UNL     1      -7.262   6.396  69.875  1.00  0.00    -0.072 NA 
HETATM   32  C   UNL     1      -6.195   5.716  70.910  1.00  0.00    -0.031 C  
HETATM   33  C   UNL     1      -6.513   6.895  68.933  1.00  0.00    -0.036 C  
HETATM   34  C   UNL     1      -7.690   5.376  68.726  1.00  0.00    -0.083 C  
HETATM   35  C   UNL     1      -8.974   5.187  70.096  1.00  0.00    -0.151 A  
HETATM   36  C   UNL     1     -10.216   4.607  70.178  1.00  0.00    -0.127 A  
HETATM   37  N   UNL     1     -10.845   5.092  71.335  1.00  0.00    -0.086 NA 
HETATM   38  H   UNL     1     -11.786   4.815  71.611  1.00  0.00     0.000 HD 
HETATM   39  C   UNL     1     -10.071   5.988  72.074  1.00  0.00    -0.186 A  
HETATM   40  C   UNL     1     -10.342   6.769  73.209  1.00  0.00    -0.293 A  
HETATM   41  C   UNL     1      -9.366   7.709  73.651  1.00  0.00    -0.344 A  
HETATM   42  C   UNL     1      -8.164   7.993  72.970  1.00  0.00    -0.234 A  
HETATM   43  C   UNL     1      -7.893   7.320  71.785  1.00  0.00    -0.091 A  
HETATM   44  C   UNL     1      -8.879   6.149  71.404  1.00  0.00    -0.139 A  
HETATM   45  C   UNL     1      -6.658   7.943  70.522  1.00  0.00    -0.037 C  
HETATM   46  C   UNL     1      -6.928   9.226  70.227  1.00  0.00    -0.076 C  
ENDBRANCH  27  29
ENDBRANCH  13  25
TORSDOF 4
ENDMDL
MODEL       29
REMARK 921   NORMALIZED FREE ENERGY PREDICTED BY IDOCK:   -7.00 KCAL/MOL
REMARK 922        TOTAL FREE ENERGY PREDICTED BY IDOCK:   -9.50 KCAL/MOL
REMARK 923 INTER-LIGAND FREE ENERGY PREDICTED BY IDOCK:   -9.00 KCAL/MOL
REMARK 924 INTRA-LIGAND FREE ENERGY PREDICTED BY IDOCK:   -0.50 KCAL/MOL
REMARK 927      BINDING AFFINITY PREDICTED BY RF-SCORE:    0.00 PKD
ROOT
HETATM    1  C   UNL     1      -8.556   8.232  69.519  1.00  0.00    -0.134 A  
HETATM    2  C   UNL     1      -8.501   7.214  70.669  1.00  0.00    -0.138 A  
HETATM    3  C   UNL     1      -8.825   5.848  69.960  1.00  0.00    -0.139 A  
HETATM    4  C   UNL     1      -9.202   6.208  68.528  1.00  0.00    -0.115 A  
HETATM    5  N   UNL     1      -9.480   7.624  68.611  1.00  0.00    -0.151 N  
HETATM    6  C   UNL     1      -9.874   8.282  67.491  1.00  0.00    -0.177 C  
HETATM    7  O   UNL     1     -10.797   7.855  66.801  1.00  0.00    -0.234 OA 
HETATM    8  C   UNL     1      -9.143   9.629  67.247  1.00  0.00    -0.150 C  
HETATM    9  O   UNL     1      -9.034  11.110  69.193  1.00  0.00    -0.074 OA 
HETATM   10  N   UNL     1      -7.771   9.853  68.189  1.00  0.00    -0.082 N  
HETATM   11  C   UNL     1      -7.070  11.075  68.420  1.00  0.00    -0.074 C  
HETATM   12  H   UNL     1      -7.325  11.012  70.565  1.00  0.00     0.000 HD 
HETATM   13  C   UNL     1      -8.125  12.097  68.229  1.00  0.00    -0.166 C  
HETATM   14  O   UNL     1      -5.892  11.226  68.703  1.00  0.00    -0.043 OA 
HETATM   15  O   UNL     1      -7.464  10.073  70.589  1.00  0.00    -0.302 OA 
HETATM   16  C   UNL     1      -7.586  12.132  66.713  1.00  0.00     0.052 C  
HETATM   17  C   UNL     1      -8.317   9.842  69.477  1.00  0.00    -0.168 C  
ENDROOT
BRANCH   8  18
HETATM   18  C   UNL     1      -9.154   9.808  65.729  1.00  0.00    -0.221 C  
BRANCH  18  19
HETATM   19  C   UNL     1     -10.211  10.732  65.229  1.00  0.00    -0.351 A  
HETATM   20  C   UNL     1     -11.122  11.947  63.365  1.00  0.00    -0.463 A  
HETATM   21  C   UNL     1     -12.015  12.571  64.227  1.00  0.00    -0.484 A  
HETATM   22  C   UNL     1     -11.130  11.342  66.084  1.00  0.00    -0.259 A  
HETATM   23  C   UNL     1     -12.031  12.285  65.603  1.00  0.00    -0.373 A  
HETATM   24  C   UNL     1     -10.223  11.022  63.863  1.00  0.00    -0.425 A  
ENDBRANCH  18  19
ENDBRANCH   8  18
BRANCH  13  25
HETATM   25  N   UNL     1      -8.380  13.488  68.556  1.00  0.00    -0.273 N  
HETATM   26  O   UNL     1      -9.280  13.992  66.451  1.00  0.00    -0.246 OA 
HETATM   27  C   UNL     1      -8.822  14.373  67.524  1.00  0.00    -0.193 C  
HETATM   28  H   UNL     1      -8.245  13.829  69.508  1.00  0.00     0.000 HD 
BRANCH  27  29
HETATM   29  C   UNL     1      -8.629  15.865  67.859  1.00  0.00    -0.164 C  
HETATM   30  C   UNL     1      -9.009  17.067  66.841  1.00  0.00    -0.248 C  
HETATM   31  N   UNL     1      -9.684  18.664  67.543  1.00  0.00    -0.303 NA 
HETATM   32  C   UNL     1      -9.810  19.824  68.687  1.00  0.00    -0.393 C  
HETATM   33  C   UNL     1     -10.842  18.068  67.571  1.00  0.00    -0.234 C  
HETATM   34  C   UNL     1     -10.204  19.184  66.127  1.00  0.00    -0.463 C  
HETATM   35  C   UNL     1      -8.346  19.511  66.152  1.00  0.00    -0.333 A  
HETATM   36  C   UNL     1      -7.411  19.826  65.197  1.00  0.00     0.167 A  
HETATM   37  N   UNL     1      -6.140  19.594  65.743  1.00  0.00    -0.181 NA 
HETATM   38  H   UNL     1      -5.277  19.745  65.221  1.00  0.00     0.000 HD 
HETATM   39  C   UNL     1      -6.157  19.137  67.062  1.00  0.00    -0.174 A  
HETATM   40  C   UNL     1      -5.147  18.695  67.930  1.00  0.00    -0.167 A  
HETATM   41  C   UNL     1      -5.512  18.148  69.195  1.00  0.00    -0.200 A  
HETATM   42  C   UNL     1      -6.839  17.922  69.615  1.00  0.00     0.069 A  
HETATM   43  C   UNL     1      -7.877  18.249  68.751  1.00  0.00    -0.277 A  
HETATM   44  C   UNL     1      -7.477  19.027  67.439  1.00  0.00    -0.247 A  
HETATM   45  C   UNL     1      -9.602  17.539  68.921  1.00  0.00    -0.224 C  
HETATM   46  C   UNL     1      -9.528  16.200  69.007  1.00  0.00    -0.246 C  
ENDBRANCH  27  29
ENDBRANCH  13  25
TORSDOF 4
ENDMDL
MODEL       30
REMARK 921   NORMALIZED FREE ENERGY PREDICTED BY IDOCK:   -6.96 KCAL/MOL
REMARK 922        TOTAL FREE ENERGY PREDICTED BY IDOCK:   -9.45 KCAL/MOL
REMARK 923 INTER-LIGAND FREE ENERGY PREDICTED BY IDOCK:   -9.55 KCAL/MOL
REMARK 924 INTRA-LIGAND FREE ENERGY PREDICTED BY IDOCK:    0.10 KCAL/MOL
REMARK 927      BINDING AFFINITY PREDICTED BY RF-SCORE:    0.00 PKD
ROOT
HETATM    1  C   UNL     1     -11.300  14.473  69.657  1.00  0.00    -0.273 A  
HETATM    2  C   UNL     1     -12.090  14.490  70.976  1.00  0.00    -0.409 A  
HETATM    3  C   UNL     1     -11.948  15.978  71.464  1.00  0.00    -0.539 A  
HETATM    4  C   UNL     1     -10.967  16.635  70.500  1.00  0.00     0.072 A  
HETATM    5  N   UNL     1     -10.330  15.504  69.864  1.00  0.00    -0.304 N  
HETATM    6  C   UNL     1      -9.363  15.730  68.938  1.00  0.00    -0.228 C  
HETATM    7  O   UNL     1      -8.421  16.483  69.181  1.00  0.00    -0.232 OA 
HETATM    8  C   UNL     1      -9.506  14.891  67.641  1.00  0.00    -0.199 C  
HETATM    9  O   UNL     1      -9.894  12.500  67.999  1.00  0.00    -0.201 OA 
HETATM   10  N   UNL     1     -10.997  14.138  67.464  1.00  0.00    -0.278 N  
HETATM   11  C   UNL     1     -11.331  13.081  66.566  1.00  0.00    -0.320 C  
HETATM   12  H   UNL     1     -11.939  11.717  68.128  1.00  0.00     0.000 HD 
HETATM   13  C   UNL     1     -10.027  12.407  66.355  1.00  0.00    -0.242 C  
HETATM   14  O   UNL     1     -12.424  12.810  66.094  1.00  0.00    -0.512 OA 
HETATM   15  O   UNL     1     -12.109  12.407  68.758  1.00  0.00    -0.269 OA 
HETATM   16  C   UNL     1      -9.914  13.387  65.082  1.00  0.00    -0.190 C  
HETATM   17  C   UNL     1     -11.010  13.289  68.577  1.00  0.00    -0.266 C  
ENDROOT
BRANCH   8  18
HETATM   18  C   UNL     1      -8.868  15.749  66.550  1.00  0.00    -0.345 C  
BRANCH  18  19
HETATM   19  C   UNL     1      -9.258  17.187  66.596  1.00  0.00    -0.280 A  
HETATM   20  C   UNL     1      -8.541  19.482  66.539  1.00  0.00    -0.374 A  
HETATM   21  C   UNL     1      -9.838  19.879  66.839  1.00  0.00    -0.540 A  
HETATM   22  C   UNL     1     -10.563  17.596  66.869  1.00  0.00    -0.235 A  
HETATM   23  C   UNL     1     -10.872  18.943  67.017  1.00  0.00    -0.392 A  
HETATM   24  C   UNL     1      -8.250  18.137  66.410  1.00  0.00    -0.282 A  
ENDBRANCH  18  19
ENDBRANCH   8  18
BRANCH  13  25
HETATM   25  N   UNL     1      -9.511  11.137  65.881  1.00  0.00    -0.207 N  
HETATM   26  O   UNL     1     -10.961   9.861  67.211  1.00  0.00    -0.251 OA 
HETATM   27  C   UNL     1      -9.960   9.930  66.503  1.00  0.00    -0.228 C  
HETATM   28  H   UNL     1      -8.838  11.105  65.115  1.00  0.00     0.000 HD 
BRANCH  27  29
HETATM   29  C   UNL     1      -9.044   8.719  66.245  1.00  0.00    -0.240 C  
HETATM   30  C   UNL     1      -8.414   8.365  64.795  1.00  0.00    -0.120 C  
HETATM   31  N   UNL     1      -6.697   7.628  64.711  1.00  0.00    -0.050 NA 
HETATM   32  C   UNL     1      -5.466   6.715  65.277  1.00  0.00    -0.026 C  
HETATM   33  C   UNL     1      -6.255   8.850  64.816  1.00  0.00    -0.065 C  
HETATM   34  C   UNL     1      -6.541   7.913  63.149  1.00  0.00    -0.079 C  
HETATM   35  C   UNL     1      -7.613   6.366  63.294  1.00  0.00    -0.083 A  
HETATM   36  C   UNL     1      -8.419   5.669  62.428  1.00  0.00    -0.084 A  
HETATM   37  N   UNL     1      -9.239   4.821  63.187  1.00  0.00    -0.324 NA 
HETATM   38  H   UNL     1      -9.935   4.205  62.769  1.00  0.00     0.000 HD 
HETATM   39  C   UNL     1      -9.020   4.894  64.564  1.00  0.00    -0.096 A  
HETATM   40  C   UNL     1      -9.669   4.313  65.663  1.00  0.00    -0.207 A  
HETATM   41  C   UNL     1      -9.286   4.704  66.980  1.00  0.00    -0.153 A  
HETATM   42  C   UNL     1      -8.353   5.720  67.271  1.00  0.00    -0.104 A  
HETATM   43  C   UNL     1      -7.754   6.399  66.218  1.00  0.00    -0.099 A  
HETATM   44  C   UNL     1      -8.036   5.835  64.772  1.00  0.00    -0.124 A  
HETATM   45  C   UNL     1      -6.939   8.073  66.420  1.00  0.00    -0.070 C  
HETATM   46  C   UNL     1      -7.788   8.913  67.035  1.00  0.00    -0.102 C  
ENDBRANCH  27  29
ENDBRANCH  13  25
TORSDOF 4
ENDMDL
MODEL       31
REMARK 921   NORMALIZED FREE ENERGY PREDICTED BY IDOCK:   -6.92 KCAL/MOL
REMARK 922        TOTAL FREE ENERGY PREDICTED BY IDOCK:   -9.40 KCAL/MOL
REMARK 923 INTER-LIGAND FREE ENERGY PREDICTED BY IDOCK:   -8.81 KCAL/MOL
REMARK 924 INTRA-LIGAND FREE ENERGY PREDICTED BY IDOCK:   -0.59 KCAL/MOL
REMARK 927      BINDING AFFINITY PREDICTED BY RF-SCORE:    0.00 PKD
ROOT
HETATM    1  C   UNL     1      -8.701   9.065  65.615  1.00  0.00    -0.175 A  
HETATM    2  C   UNL     1      -8.518   8.240  64.331  1.00  0.00    -0.022 A  
HETATM    3  C   UNL     1      -8.215   6.793  64.870  1.00  0.00    -0.082 A  
HETATM    4  C   UNL     1      -8.080   6.938  66.381  1.00  0.00    -0.113 A  
HETATM    5  N   UNL     1      -7.885   8.359  66.555  1.00  0.00    -0.092 N  
HETATM    6  C   UNL     1      -7.705   8.849  67.809  1.00  0.00    -0.101 C  
HETATM    7  O   UNL     1      -6.869   8.356  68.564  1.00  0.00    -0.062 OA 
HETATM    8  C   UNL     1      -8.550  10.109  68.134  1.00  0.00    -0.118 C  
HETATM    9  O   UNL     1      -8.463  11.873  66.438  1.00  0.00    -0.145 OA 
HETATM   10  N   UNL     1      -9.778  10.422  67.032  1.00  0.00    -0.173 N  
HETATM   11  C   UNL     1     -10.514  11.636  66.879  1.00  0.00    -0.227 C  
HETATM   12  H   UNL     1      -9.939  11.923  64.816  1.00  0.00     0.000 HD 
HETATM   13  C   UNL     1      -9.567  12.658  67.384  1.00  0.00    -0.194 C  
HETATM   14  O   UNL     1     -11.644  11.781  66.440  1.00  0.00    -0.462 OA 
HETATM   15  O   UNL     1      -9.738  11.006  64.674  1.00  0.00    -0.230 OA 
HETATM   16  C   UNL     1     -10.327  12.431  68.785  1.00  0.00    -0.142 C  
HETATM   17  C   UNL     1      -9.046  10.637  65.859  1.00  0.00    -0.180 C  
ENDROOT
BRANCH   8  18
HETATM   18  C   UNL     1      -8.777  10.046  69.644  1.00  0.00    -0.210 C  
BRANCH  18  19
HETATM   19  C   UNL     1      -9.877   9.131  70.060  1.00  0.00    -0.217 A  
HETATM   20  C   UNL     1     -11.705   8.716  71.566  1.00  0.00    -0.369 A  
HETATM   21  C   UNL     1     -11.839   7.441  71.030  1.00  0.00    -0.336 A  
HETATM   22  C   UNL     1     -10.036   7.860  69.507  1.00  0.00    -0.195 A  
HETATM   23  C   UNL     1     -11.002   6.988  69.995  1.00  0.00    -0.303 A  
HETATM   24  C   UNL     1     -10.730   9.565  71.078  1.00  0.00    -0.411 A  
ENDBRANCH  18  19
ENDBRANCH   8  18
BRANCH  13  25
HETATM   25  N   UNL     1      -9.357  14.092  67.313  1.00  0.00    -0.216 N  
HETATM   26  O   UNL     1      -7.142  13.974  68.070  1.00  0.00    -0.110 OA 
HETATM   27  C   UNL     1      -8.144  14.642  67.831  1.00  0.00    -0.145 C  
HETATM   28  H   UNL     1     -10.065  14.698  66.899  1.00  0.00     0.000 HD 
BRANCH  27  29
HETATM   29  C   UNL     1      -8.216  16.155  68.112  1.00  0.00    -0.157 C  
HETATM   30  C   UNL     1      -8.708  17.246  67.021  1.00  0.00    -0.248 C  
HETATM   31  N   UNL     1      -9.678  18.735  67.605  1.00  0.00    -0.302 NA 
HETATM   32  C   UNL     1     -10.069  19.896  68.687  1.00  0.00    -0.406 C  
HETATM   33  C   UNL     1     -10.725  17.960  67.583  1.00  0.00    -0.331 C  
HETATM   34  C   UNL     1     -10.170  19.117  66.137  1.00  0.00    -0.463 C  
HETATM   35  C   UNL     1      -8.395  19.742  66.271  1.00  0.00    -0.383 A  
HETATM   36  C   UNL     1      -7.455  20.173  65.367  1.00  0.00    -0.078 A  
HETATM   37  N   UNL     1      -6.206  20.167  66.006  1.00  0.00    -0.188 NA 
HETATM   38  H   UNL     1      -5.343  20.439  65.536  1.00  0.00     0.000 HD 
HETATM   39  C   UNL     1      -6.246  19.757  67.339  1.00  0.00    -0.185 A  
HETATM   40  C   UNL     1      -5.244  19.513  68.291  1.00  0.00    -0.195 A  
HETATM   41  C   UNL     1      -5.607  18.955  69.552  1.00  0.00    -0.228 A  
HETATM   42  C   UNL     1      -6.909  18.531  69.892  1.00  0.00     0.242 A  
HETATM   43  C   UNL     1      -7.920  18.657  68.948  1.00  0.00    -0.252 A  
HETATM   44  C   UNL     1      -7.555  19.447  67.632  1.00  0.00    -0.292 A  
HETATM   45  C   UNL     1      -9.518  17.683  69.034  1.00  0.00    -0.099 C  
HETATM   46  C   UNL     1      -9.238  16.377  69.183  1.00  0.00    -0.216 C  
ENDBRANCH  27  29
ENDBRANCH  13  25
TORSDOF 4
ENDMDL
MODEL       32
REMARK 921   NORMALIZED FREE ENERGY PREDICTED BY IDOCK:   -6.91 KCAL/MOL
REMARK 922        TOTAL FREE ENERGY PREDICTED BY IDOCK:   -9.38 KCAL/MOL
REMARK 923 INTER-LIGAND FREE ENERGY PREDICTED BY IDOCK:   -8.50 KCAL/MOL
REMARK 924 INTRA-LIGAND FREE ENERGY PREDICTED BY IDOCK:   -0.89 KCAL/MOL
REMARK 927      BINDING AFFINITY PREDICTED BY RF-SCORE:    0.00 PKD
ROOT
HETATM    1  C   UNL     1      -7.070  18.380  66.255  1.00  0.00    -0.252 A  
HETATM    2  C   UNL     1      -6.361  19.266  65.218  1.00  0.00    -0.314 A  
HETATM    3  C   UNL     1      -7.225  20.581  65.214  1.00  0.00    -0.035 A  
HETATM    4  C   UNL     1      -8.430  20.283  66.099  1.00  0.00    -0.086 A  
HETATM    5  N   UNL     1      -8.422  18.840  66.183  1.00  0.00    -0.230 N  
HETATM    6  C   UNL     1      -9.396  18.219  66.897  1.00  0.00    -0.286 C  
HETATM    7  O   UNL     1     -10.582  18.484  66.708  1.00  0.00    -0.391 OA 
HETATM    8  C   UNL     1      -8.884  17.111  67.854  1.00  0.00    -0.226 C  
HETATM    9  O   UNL     1      -7.327  15.515  66.843  1.00  0.00    -0.175 OA 
HETATM   10  N   UNL     1      -7.223  17.124  68.102  1.00  0.00    -0.187 N  
HETATM   11  C   UNL     1      -6.424  16.084  68.665  1.00  0.00    -0.118 C  
HETATM   12  H   UNL     1      -5.164  15.877  66.921  1.00  0.00     0.000 HD 
HETATM   13  C   UNL     1      -7.211  14.866  68.358  1.00  0.00    -0.116 C  
HETATM   14  O   UNL     1      -5.358  16.186  69.252  1.00  0.00    -0.110 OA 
HETATM   15  O   UNL     1      -5.351  16.751  66.599  1.00  0.00    -0.320 OA 
HETATM   16  C   UNL     1      -7.841  15.105  69.820  1.00  0.00    -0.042 C  
HETATM   17  C   UNL     1      -6.750  16.882  66.808  1.00  0.00    -0.227 C  
ENDROOT
BRANCH   8  18
HETATM   18  C   UNL     1      -9.900  17.083  68.996  1.00  0.00    -0.240 C  
BRANCH  18  19
HETATM   19  C   UNL     1     -10.785  15.884  68.996  1.00  0.00    -0.251 A  
HETATM   20  C   UNL     1     -11.897  14.189  70.290  1.00  0.00    -0.373 A  
HETATM   21  C   UNL     1     -12.277  13.559  69.112  1.00  0.00    -0.236 A  
HETATM   22  C   UNL     1     -11.195  15.261  67.817  1.00  0.00    -0.327 A  
HETATM   23  C   UNL     1     -11.927  14.080  67.854  1.00  0.00    -0.387 A  
HETATM   24  C   UNL     1     -11.157  15.355  70.235  1.00  0.00    -0.331 A  
ENDBRANCH  18  19
ENDBRANCH   8  18
BRANCH  13  25
HETATM   25  N   UNL     1      -7.024  13.429  68.274  1.00  0.00    -0.095 N  
HETATM   26  O   UNL     1      -9.044  13.065  67.141  1.00  0.00    -0.209 OA 
HETATM   27  C   UNL     1      -8.090  12.620  67.774  1.00  0.00    -0.166 C  
HETATM   28  H   UNL     1      -6.144  13.004  68.567  1.00  0.00     0.000 HD 
BRANCH  27  29
HETATM   29  C   UNL     1      -7.964  11.128  68.141  1.00  0.00    -0.125 C  
HETATM   30  C   UNL     1      -8.400   9.923  67.151  1.00  0.00    -0.121 C  
HETATM   31  N   UNL     1      -7.401   8.341  67.159  1.00  0.00    -0.087 NA 
HETATM   32  C   UNL     1      -6.482   7.194  67.872  1.00  0.00    -0.048 C  
HETATM   33  C   UNL     1      -6.575   8.954  66.359  1.00  0.00    -0.067 C  
HETATM   34  C   UNL     1      -8.031   7.817  65.791  1.00  0.00    -0.114 C  
HETATM   35  C   UNL     1      -9.316   7.463  67.127  1.00  0.00    -0.172 A  
HETATM   36  C   UNL     1     -10.648   7.127  67.117  1.00  0.00    -0.347 A  
HETATM   37  N   UNL     1     -11.159   7.347  68.405  1.00  0.00    -0.438 NA 
HETATM   38  H   UNL     1     -12.135   7.179  68.649  1.00  0.00     0.000 HD 
HETATM   39  C   UNL     1     -10.218   7.815  69.323  1.00  0.00    -0.211 A  
HETATM   40  C   UNL     1     -10.320   8.251  70.653  1.00  0.00    -0.220 A  
HETATM   41  C   UNL     1      -9.174   8.814  71.287  1.00  0.00    -0.309 A  
HETATM   42  C   UNL     1      -7.945   9.062  70.641  1.00  0.00    -0.159 A  
HETATM   43  C   UNL     1      -7.822   8.742  69.295  1.00  0.00    -0.100 A  
HETATM   44  C   UNL     1      -9.023   7.947  68.652  1.00  0.00    -0.134 A  
HETATM   45  C   UNL     1      -6.498   9.478  68.193  1.00  0.00    -0.057 C  
HETATM   46  C   UNL     1      -6.511  10.816  68.310  1.00  0.00    -0.058 C  
ENDBRANCH  27  29
ENDBRANCH  13  25
TORSDOF 4
ENDMDL
MODEL       33
REMARK 921   NORMALIZED FREE ENERGY PREDICTED BY IDOCK:   -6.88 KCAL/MOL
REMARK 922        TOTAL FREE ENERGY PREDICTED BY IDOCK:   -9.35 KCAL/MOL
REMARK 923 INTER-LIGAND FREE ENERGY PREDICTED BY IDOCK:   -8.95 KCAL/MOL
REMARK 924 INTRA-LIGAND FREE ENERGY PREDICTED BY IDOCK:   -0.39 KCAL/MOL
REMARK 927      BINDING AFFINITY PREDICTED BY RF-SCORE:    0.00 PKD
ROOT
HETATM    1  C   UNL     1      -8.969   9.185  65.939  1.00  0.00    -0.189 A  
HETATM    2  C   UNL     1      -8.052   8.045  65.469  1.00  0.00    -0.128 A  
HETATM    3  C   UNL     1      -8.833   6.750  65.901  1.00  0.00    -0.127 A  
HETATM    4  C   UNL     1     -10.021   7.241  66.720  1.00  0.00    -0.217 A  
HETATM    5  N   UNL     1      -9.648   8.597  67.053  1.00  0.00    -0.168 N  
HETATM    6  C   UNL     1     -10.491   9.341  67.813  1.00  0.00    -0.255 C  
HETATM    7  O   UNL     1     -10.938   8.905  68.872  1.00  0.00    -0.083 OA 
HETATM    8  C   UNL     1     -10.733  10.780  67.283  1.00  0.00    -0.325 C  
HETATM    9  O   UNL     1      -8.703  12.012  66.686  1.00  0.00    -0.194 OA 
HETATM   10  N   UNL     1     -10.210  11.034  65.707  1.00  0.00    -0.252 N  
HETATM   11  C   UNL     1     -10.012  12.287  65.053  1.00  0.00    -0.205 C  
HETATM   12  H   UNL     1      -7.921  11.932  64.637  1.00  0.00     0.000 HD 
HETATM   13  C   UNL     1      -9.730  13.204  66.182  1.00  0.00    -0.248 C  
HETATM   14  O   UNL     1     -10.067  12.529  63.858  1.00  0.00    -0.384 OA 
HETATM   15  O   UNL     1      -8.000  10.988  64.699  1.00  0.00     0.190 OA 
HETATM   16  C   UNL     1     -11.315  13.485  66.135  1.00  0.00    -0.325 C  
HETATM   17  C   UNL     1      -8.835  10.804  65.833  1.00  0.00    -0.179 C  
ENDROOT
BRANCH   8  18
HETATM   18  C   UNL     1     -12.136  11.143  67.768  1.00  0.00     0.347 C  
BRANCH  18  19
HETATM   19  C   UNL     1     -12.160  11.982  68.999  1.00  0.00    -0.223 A  
HETATM   20  C   UNL     1     -12.637  12.111  71.352  1.00  0.00    -0.314 A  
HETATM   21  C   UNL     1     -12.407  13.480  71.309  1.00  0.00    -0.325 A  
HETATM   22  C   UNL     1     -11.903  13.353  68.970  1.00  0.00    -0.378 A  
HETATM   23  C   UNL     1     -12.043  14.127  70.116  1.00  0.00    -0.411 A  
HETATM   24  C   UNL     1     -12.507  11.358  70.200  1.00  0.00    -0.271 A  
ENDBRANCH  18  19
ENDBRANCH   8  18
BRANCH  13  25
HETATM   25  N   UNL     1      -9.138  14.508  66.417  1.00  0.00    -0.451 N  
HETATM   26  O   UNL     1      -8.797  14.126  68.705  1.00  0.00    -0.154 OA 
HETATM   27  C   UNL     1      -8.851  14.907  67.759  1.00  0.00    -0.173 C  
HETATM   28  H   UNL     1      -8.929  15.130  65.636  1.00  0.00     0.000 HD 
BRANCH  27  29
HETATM   29  C   UNL     1      -8.657  16.426  67.929  1.00  0.00    -0.175 C  
HETATM   30  C   UNL     1      -8.943  17.502  66.752  1.00  0.00    -0.272 C  
HETATM   31  N   UNL     1      -9.638  19.177  67.210  1.00  0.00    -0.308 NA 
HETATM   32  C   UNL     1      -9.825  20.466  68.197  1.00  0.00    -0.180 C  
HETATM   33  C   UNL     1     -10.805  18.599  67.224  1.00  0.00    -0.310 C  
HETATM   34  C   UNL     1     -10.047  19.529  65.709  1.00  0.00    -0.245 C  
HETATM   35  C   UNL     1      -8.190  19.842  65.830  1.00  0.00    -0.236 A  
HETATM   36  C   UNL     1      -7.184  20.032  64.915  1.00  0.00     0.228 A  
HETATM   37  N   UNL     1      -5.959  19.856  65.576  1.00  0.00    -0.180 NA 
HETATM   38  H   UNL     1      -5.059  19.937  65.104  1.00  0.00     0.000 HD 
HETATM   39  C   UNL     1      -6.078  19.559  66.934  1.00  0.00    -0.176 A  
HETATM   40  C   UNL     1      -5.140  19.215  67.920  1.00  0.00    -0.169 A  
HETATM   41  C   UNL     1      -5.603  18.825  69.210  1.00  0.00    -0.216 A  
HETATM   42  C   UNL     1      -6.961  18.662  69.556  1.00  0.00    -0.070 A  
HETATM   43  C   UNL     1      -7.929  18.893  68.587  1.00  0.00    -0.381 A  
HETATM   44  C   UNL     1      -7.423  19.506  67.224  1.00  0.00    -0.260 A  
HETATM   45  C   UNL     1      -9.674  18.223  68.714  1.00  0.00    -0.348 C  
HETATM   46  C   UNL     1      -9.629  16.903  68.962  1.00  0.00    -0.216 C  
ENDBRANCH  27  29
ENDBRANCH  13  25
TORSDOF 4
ENDMDL
MODEL       34
REMARK 921   NORMALIZED FREE ENERGY PREDICTED BY IDOCK:   -6.84 KCAL/MOL
REMARK 922        TOTAL FREE ENERGY PREDICTED BY IDOCK:   -9.30 KCAL/MOL
REMARK 923 INTER-LIGAND FREE ENERGY PREDICTED BY IDOCK:   -8.70 KCAL/MOL
REMARK 924 INTRA-LIGAND FREE ENERGY PREDICTED BY IDOCK:   -0.60 KCAL/MOL
REMARK 927      BINDING AFFINITY PREDICTED BY RF-SCORE:    0.00 PKD
ROOT
HETATM    1  C   UNL     1     -10.787  12.253  65.236  1.00  0.00    -0.293 A  
HETATM    2  C   UNL     1     -11.422  11.722  63.941  1.00  0.00    -0.481 A  
HETATM    3  C   UNL     1     -12.185  12.974  63.372  1.00  0.00    -0.552 A  
HETATM    4  C   UNL     1     -12.075  14.046  64.449  1.00  0.00    -0.458 A  
HETATM    5  N   UNL     1     -11.692  13.292  65.621  1.00  0.00    -0.340 N  
HETATM    6  C   UNL     1     -11.522  13.948  66.797  1.00  0.00    -0.352 C  
HETATM    7  O   UNL     1     -12.386  14.712  67.224  1.00  0.00    -0.203 OA 
HETATM    8  C   UNL     1     -10.229  13.566  67.565  1.00  0.00    -0.234 C  
HETATM    9  O   UNL     1      -9.839  11.159  67.790  1.00  0.00    -0.168 OA 
HETATM   10  N   UNL     1      -9.114  12.699  66.655  1.00  0.00    -0.217 N  
HETATM   11  C   UNL     1      -7.996  11.955  67.137  1.00  0.00    -0.172 C  
HETATM   12  H   UNL     1      -8.659  10.083  66.286  1.00  0.00     0.000 HD 
HETATM   13  C   UNL     1      -8.415  11.589  68.511  1.00  0.00    -0.143 C  
HETATM   14  O   UNL     1      -6.956  11.694  66.553  1.00  0.00    -0.076 OA 
HETATM   15  O   UNL     1      -9.209  10.497  65.633  1.00  0.00    -0.170 OA 
HETATM   16  C   UNL     1      -7.638  12.935  68.930  1.00  0.00     0.054 C  
HETATM   17  C   UNL     1      -9.843  11.543  66.357  1.00  0.00    -0.205 C  
ENDROOT
BRANCH   8  18
HETATM   18  C   UNL     1      -9.865  14.818  68.362  1.00  0.00    -0.220 C  
BRANCH  18  19
HETATM   19  C   UNL     1      -9.455  15.980  67.524  1.00  0.00    -0.223 A  
HETATM   20  C   UNL     1      -7.754  16.990  66.157  1.00  0.00    -0.292 A  
HETATM   21  C   UNL     1      -8.518  18.148  66.088  1.00  0.00    -0.142 A  
HETATM   22  C   UNL     1     -10.229  17.136  67.426  1.00  0.00    -0.321 A  
HETATM   23  C   UNL     1      -9.766  18.245  66.726  1.00  0.00    -0.322 A  
HETATM   24  C   UNL     1      -8.223  15.902  66.869  1.00  0.00    -0.283 A  
ENDBRANCH  18  19
ENDBRANCH   8  18
BRANCH  13  25
HETATM   25  N   UNL     1      -8.070  10.633  69.547  1.00  0.00    -0.351 N  
HETATM   26  O   UNL     1      -7.931   8.823  68.064  1.00  0.00    -0.105 OA 
HETATM   27  C   UNL     1      -8.002   9.245  69.215  1.00  0.00    -0.098 C  
HETATM   28  H   UNL     1      -7.878  10.948  70.498  1.00  0.00     0.000 HD 
BRANCH  27  29
HETATM   29  C   UNL     1      -8.075   8.308  70.437  1.00  0.00    -0.108 C  
HETATM   30  C   UNL     1      -7.543   6.779  70.425  1.00  0.00    -0.095 C  
HETATM   31  N   UNL     1      -6.760   6.084  71.976  1.00  0.00    -0.062 NA 
HETATM   32  C   UNL     1      -6.583   5.952  73.595  1.00  0.00    -0.075 C  
HETATM   33  C   UNL     1      -5.663   6.668  71.587  1.00  0.00    -0.036 C  
HETATM   34  C   UNL     1      -6.130   4.830  71.217  1.00  0.00    -0.018 C  
HETATM   35  C   UNL     1      -7.951   4.414  71.490  1.00  0.00    -0.083 A  
HETATM   36  C   UNL     1      -8.809   3.469  70.984  1.00  0.00    -0.083 A  
HETATM   37  N   UNL     1     -10.119   3.872  71.281  1.00  0.00    -0.104 NA 
HETATM   38  H   UNL     1     -10.940   3.336  70.999  1.00  0.00     0.000 HD 
HETATM   39  C   UNL     1     -10.204   5.068  71.993  1.00  0.00    -0.201 A  
HETATM   40  C   UNL     1     -11.289   5.863  72.395  1.00  0.00    -0.358 A  
HETATM   41  C   UNL     1     -11.033   7.128  73.001  1.00  0.00    -0.357 A  
HETATM   42  C   UNL     1      -9.752   7.700  73.146  1.00  0.00    -0.327 A  
HETATM   43  C   UNL     1      -8.651   6.999  72.673  1.00  0.00    -0.133 A  
HETATM   44  C   UNL     1      -8.918   5.524  72.180  1.00  0.00    -0.142 A  
HETATM   45  C   UNL     1      -7.006   7.817  72.305  1.00  0.00    -0.071 C  
HETATM   46  C   UNL     1      -7.204   8.882  71.510  1.00  0.00    -0.079 C  
ENDBRANCH  27  29
ENDBRANCH  13  25
TORSDOF 4
ENDMDL
MODEL       35
REMARK 921   NORMALIZED FREE ENERGY PREDICTED BY IDOCK:   -6.69 KCAL/MOL
REMARK 922        TOTAL FREE ENERGY PREDICTED BY IDOCK:   -9.12 KCAL/MOL
REMARK 923 INTER-LIGAND FREE ENERGY PREDICTED BY IDOCK:   -8.17 KCAL/MOL
REMARK 924 INTRA-LIGAND FREE ENERGY PREDICTED BY IDOCK:   -0.95 KCAL/MOL
REMARK 927      BINDING AFFINITY PREDICTED BY RF-SCORE:    0.00 PKD
ROOT
HETATM    1  C   UNL     1     -10.250   5.364  72.724  1.00  0.00    -0.187 A  
HETATM    2  C   UNL     1     -11.122   4.957  73.922  1.00  0.00    -0.187 A  
HETATM    3  C   UNL     1     -10.829   3.420  74.078  1.00  0.00    -0.270 A  
HETATM    4  C   UNL     1      -9.968   3.042  72.879  1.00  0.00    -0.135 A  
HETATM    5  N   UNL     1     -10.170   4.150  71.972  1.00  0.00    -0.163 N  
HETATM    6  C   UNL     1      -9.550   4.131  70.764  1.00  0.00    -0.190 C  
HETATM    7  O   UNL     1      -9.630   3.148  70.030  1.00  0.00    -0.166 OA 
HETATM    8  C   UNL     1      -8.853   5.463  70.379  1.00  0.00    -0.144 C  
HETATM    9  O   UNL     1     -10.228   7.467  70.675  1.00  0.00    -0.198 OA 
HETATM   10  N   UNL     1      -8.682   6.547  71.650  1.00  0.00    -0.132 N  
HETATM   11  C   UNL     1      -8.372   7.938  71.564  1.00  0.00    -0.113 C  
HETATM   12  H   UNL     1     -10.176   8.576  72.568  1.00  0.00     0.000 HD 
HETATM   13  C   UNL     1      -8.877   8.303  70.220  1.00  0.00    -0.141 C  
HETATM   14  O   UNL     1      -7.824   8.640  72.399  1.00  0.00    -0.316 OA 
HETATM   15  O   UNL     1     -10.311   7.741  73.001  1.00  0.00    -0.295 OA 
HETATM   16  C   UNL     1      -7.370   7.988  69.749  1.00  0.00    -0.074 C  
HETATM   17  C   UNL     1     -10.019   6.795  71.982  1.00  0.00    -0.171 C  
ENDROOT
BRANCH   8  18
HETATM   18  C   UNL     1      -7.696   5.048  69.471  1.00  0.00    -0.067 C  
BRANCH  18  19
HETATM   19  C   UNL     1      -8.083   4.825  68.049  1.00  0.00    -0.089 A  
HETATM   20  C   UNL     1      -7.630   3.681  65.983  1.00  0.00    -0.081 A  
HETATM   21  C   UNL     1      -8.600   4.456  65.359  1.00  0.00    -0.122 A  
HETATM   22  C   UNL     1      -9.075   5.578  67.422  1.00  0.00    -0.110 A  
HETATM   23  C   UNL     1      -9.336   5.423  66.065  1.00  0.00    -0.167 A  
HETATM   24  C   UNL     1      -7.375   3.859  67.330  1.00  0.00    -0.068 A  
ENDBRANCH  18  19
ENDBRANCH   8  18
BRANCH  13  25
HETATM   25  N   UNL     1      -9.251   9.488  69.471  1.00  0.00    -0.176 N  
HETATM   26  O   UNL     1     -10.496   8.296  67.882  1.00  0.00    -0.224 OA 
HETATM   27  C   UNL     1      -9.940   9.335  68.228  1.00  0.00    -0.173 C  
HETATM   28  H   UNL     1      -9.025  10.418  69.827  1.00  0.00     0.000 HD 
BRANCH  27  29
HETATM   29  C   UNL     1      -9.886  10.584  67.328  1.00  0.00    -0.209 C  
HETATM   30  C   UNL     1     -10.771  11.915  67.590  1.00  0.00    -0.253 C  
HETATM   31  N   UNL     1     -10.030  13.586  67.189  1.00  0.00    -0.242 NA 
HETATM   32  C   UNL     1      -9.077  14.597  66.330  1.00  0.00    -0.160 C  
HETATM   33  C   UNL     1      -9.447  13.516  68.352  1.00  0.00    -0.185 C  
HETATM   34  C   UNL     1     -11.138  14.387  68.011  1.00  0.00    -0.272 C  
HETATM   35  C   UNL     1     -11.942  13.922  66.368  1.00  0.00    -0.467 A  
HETATM   36  C   UNL     1     -13.233  13.904  65.899  1.00  0.00     0.327 A  
HETATM   37  N   UNL     1     -13.257  13.128  64.731  1.00  0.00    -0.506 NA 
HETATM   38  H   UNL     1     -14.110  12.955  64.199  1.00  0.00     0.000 HD 
HETATM   39  C   UNL     1     -12.015  12.612  64.360  1.00  0.00    -0.400 A  
HETATM   40  C   UNL     1     -11.616  11.726  63.347  1.00  0.00    -0.419 A  
HETATM   41  C   UNL     1     -10.264  11.274  63.315  1.00  0.00    -0.417 A  
HETATM   42  C   UNL     1      -9.297  11.577  64.296  1.00  0.00    -0.020 A  
HETATM   43  C   UNL     1      -9.668  12.370  65.376  1.00  0.00    -0.129 A  
HETATM   44  C   UNL     1     -11.103  13.021  65.306  1.00  0.00    -0.311 A  
HETATM   45  C   UNL     1      -8.702  12.416  66.981  1.00  0.00    -0.207 C  
HETATM   46  C   UNL     1      -8.509  11.162  67.423  1.00  0.00    -0.134 C  
ENDBRANCH  27  29
ENDBRANCH  13  25
TORSDOF 4
ENDMDL
MODEL       36
REMARK 921   NORMALIZED FREE ENERGY PREDICTED BY IDOCK:   -6.68 KCAL/MOL
REMARK 922        TOTAL FREE ENERGY PREDICTED BY IDOCK:   -9.10 KCAL/MOL
REMARK 923 INTER-LIGAND FREE ENERGY PREDICTED BY IDOCK:   -8.34 KCAL/MOL
REMARK 924 INTRA-LIGAND FREE ENERGY PREDICTED BY IDOCK:   -0.76 KCAL/MOL
REMARK 927      BINDING AFFINITY PREDICTED BY RF-SCORE:    0.00 PKD
ROOT
HETATM    1  C   UNL     1      -6.775  18.392  67.211  1.00  0.00    -0.196 A  
HETATM    2  C   UNL     1      -5.729  19.492  66.967  1.00  0.00    -0.174 A  
HETATM    3  C   UNL     1      -6.603  20.784  66.762  1.00  0.00    -0.346 A  
HETATM    4  C   UNL     1      -8.048  20.302  66.731  1.00  0.00    -0.272 A  
HETATM    5  N   UNL     1      -7.912  18.883  66.494  1.00  0.00    -0.268 N  
HETATM    6  C   UNL     1      -9.034  18.125  66.387  1.00  0.00    -0.239 C  
HETATM    7  O   UNL     1      -9.945  18.451  65.629  1.00  0.00    -0.477 OA 
HETATM    8  C   UNL     1      -8.998  16.806  67.204  1.00  0.00    -0.218 C  
HETATM    9  O   UNL     1      -6.961  15.477  66.924  1.00  0.00    -0.223 OA 
HETATM   10  N   UNL     1      -7.759  16.725  68.335  1.00  0.00    -0.198 N  
HETATM   11  C   UNL     1      -7.279  15.563  69.010  1.00  0.00    -0.156 C  
HETATM   12  H   UNL     1      -5.256  15.765  68.275  1.00  0.00     0.000 HD 
HETATM   13  C   UNL     1      -7.615  14.473  68.063  1.00  0.00    -0.134 C  
HETATM   14  O   UNL     1      -6.730  15.497  70.098  1.00  0.00    -0.099 OA 
HETATM   15  O   UNL     1      -5.341  16.695  68.100  1.00  0.00    -0.109 OA 
HETATM   16  C   UNL     1      -8.966  14.359  68.931  1.00  0.00    -0.067 C  
HETATM   17  C   UNL     1      -6.630  16.799  67.512  1.00  0.00    -0.147 C  
ENDROOT
BRANCH   8  18
HETATM   18  C   UNL     1     -10.461  16.518  67.542  1.00  0.00    -0.310 C  
BRANCH  18  19
HETATM   19  C   UNL     1     -11.083  15.452  66.708  1.00  0.00    -0.244 A  
HETATM   20  C   UNL     1     -11.537  14.616  64.500  1.00  0.00    -0.377 A  
HETATM   21  C   UNL     1     -12.342  13.628  65.054  1.00  0.00    -0.462 A  
HETATM   22  C   UNL     1     -11.870  14.440  67.259  1.00  0.00    -0.434 A  
HETATM   23  C   UNL     1     -12.528  13.527  66.444  1.00  0.00    -0.349 A  
HETATM   24  C   UNL     1     -10.901  15.524  65.324  1.00  0.00    -0.425 A  
ENDBRANCH  18  19
ENDBRANCH   8  18
BRANCH  13  25
HETATM   25  N   UNL     1      -7.240  13.098  67.793  1.00  0.00    -0.130 N  
HETATM   26  O   UNL     1      -9.063  12.704  66.373  1.00  0.00    -0.202 OA 
HETATM   27  C   UNL     1      -8.135  12.268  67.049  1.00  0.00    -0.141 C  
HETATM   28  H   UNL     1      -6.350  12.728  68.129  1.00  0.00     0.000 HD 
BRANCH  27  29
HETATM   29  C   UNL     1      -7.861  10.760  67.205  1.00  0.00    -0.124 C  
HETATM   30  C   UNL     1      -9.027   9.655  67.411  1.00  0.00    -0.141 C  
HETATM   31  N   UNL     1      -8.816   7.964  66.639  1.00  0.00    -0.139 NA 
HETATM   32  C   UNL     1      -7.934   6.687  66.130  1.00  0.00    -0.110 C  
HETATM   33  C   UNL     1      -9.257   8.501  65.538  1.00  0.00    -0.041 C  
HETATM   34  C   UNL     1     -10.350   7.573  66.834  1.00  0.00    -0.309 C  
HETATM   35  C   UNL     1      -9.532   7.329  68.517  1.00  0.00    -0.140 A  
HETATM   36  C   UNL     1      -9.997   7.158  69.798  1.00  0.00    -0.178 A  
HETATM   37  N   UNL     1      -8.931   7.389  70.679  1.00  0.00    -0.154 NA 
HETATM   38  H   UNL     1      -9.029   7.333  71.693  1.00  0.00     0.000 HD 
HETATM   39  C   UNL     1      -7.725   7.705  70.051  1.00  0.00    -0.092 A  
HETATM   40  C   UNL     1      -6.470   8.098  70.540  1.00  0.00    -0.036 A  
HETATM   41  C   UNL     1      -5.459   8.493  69.616  1.00  0.00    -0.030 A  
HETATM   42  C   UNL     1      -5.653   8.614  68.224  1.00  0.00    -0.038 A  
HETATM   43  C   UNL     1      -6.907   8.332  67.698  1.00  0.00    -0.070 A  
HETATM   44  C   UNL     1      -7.962   7.715  68.694  1.00  0.00    -0.122 A  
HETATM   45  C   UNL     1      -7.463   8.942  66.016  1.00  0.00    -0.090 C  
HETATM   46  C   UNL     1      -7.255  10.267  65.929  1.00  0.00    -0.131 C  
ENDBRANCH  27  29
ENDBRANCH  13  25
TORSDOF 4
ENDMDL
MODEL       37
REMARK 921   NORMALIZED FREE ENERGY PREDICTED BY IDOCK:   -6.64 KCAL/MOL
REMARK 922        TOTAL FREE ENERGY PREDICTED BY IDOCK:   -9.05 KCAL/MOL
REMARK 923 INTER-LIGAND FREE ENERGY PREDICTED BY IDOCK:   -8.13 KCAL/MOL
REMARK 924 INTRA-LIGAND FREE ENERGY PREDICTED BY IDOCK:   -0.92 KCAL/MOL
REMARK 927      BINDING AFFINITY PREDICTED BY RF-SCORE:    0.00 PKD
ROOT
HETATM    1  C   UNL     1      -6.838  18.332  66.101  1.00  0.00    -0.256 A  
HETATM    2  C   UNL     1      -6.103  19.153  65.029  1.00  0.00    -0.316 A  
HETATM    3  C   UNL     1      -6.875  20.524  65.030  1.00  0.00    -0.217 A  
HETATM    4  C   UNL     1      -8.069  20.322  65.955  1.00  0.00    -0.040 A  
HETATM    5  N   UNL     1      -8.158  18.884  66.062  1.00  0.00    -0.214 N  
HETATM    6  C   UNL     1      -9.150  18.342  66.814  1.00  0.00    -0.284 C  
HETATM    7  O   UNL     1     -10.320  18.684  66.657  1.00  0.00    -0.372 OA 
HETATM    8  C   UNL     1      -8.685  17.214  67.774  1.00  0.00    -0.220 C  
HETATM    9  O   UNL     1      -7.273  15.501  66.742  1.00  0.00    -0.165 OA 
HETATM   10  N   UNL     1      -7.020  17.116  67.972  1.00  0.00    -0.167 N  
HETATM   11  C   UNL     1      -6.277  16.031  68.527  1.00  0.00    -0.111 C  
HETATM   12  H   UNL     1      -5.089  15.713  66.750  1.00  0.00     0.000 HD 
HETATM   13  C   UNL     1      -7.155  14.866  68.263  1.00  0.00    -0.112 C  
HETATM   14  O   UNL     1      -5.189  16.067  69.080  1.00  0.00    -0.108 OA 
HETATM   15  O   UNL     1      -5.225  16.593  66.420  1.00  0.00    -0.339 OA 
HETATM   16  C   UNL     1      -7.722  15.169  69.740  1.00  0.00    -0.066 C  
HETATM   17  C   UNL     1      -6.605  16.824  66.668  1.00  0.00    -0.181 C  
ENDROOT
BRANCH   8  18
HETATM   18  C   UNL     1      -9.665  17.272  68.946  1.00  0.00    -0.251 C  
BRANCH  18  19
HETATM   19  C   UNL     1     -10.647  16.152  68.977  1.00  0.00    -0.273 A  
HETATM   20  C   UNL     1     -12.025  14.704  70.314  1.00  0.00    -0.370 A  
HETATM   21  C   UNL     1     -12.341  13.976  69.174  1.00  0.00    -0.169 A  
HETATM   22  C   UNL     1     -10.993  15.433  67.832  1.00  0.00    -0.310 A  
HETATM   23  C   UNL     1     -11.826  14.324  67.913  1.00  0.00    -0.393 A  
HETATM   24  C   UNL     1     -11.184  15.796  70.217  1.00  0.00    -0.377 A  
ENDBRANCH  18  19
ENDBRANCH   8  18
BRANCH  13  25
HETATM   25  N   UNL     1      -7.070  13.419  68.197  1.00  0.00    -0.100 N  
HETATM   26  O   UNL     1      -9.007  13.198  66.895  1.00  0.00    -0.224 OA 
HETATM   27  C   UNL     1      -8.147  12.687  67.608  1.00  0.00    -0.173 C  
HETATM   28  H   UNL     1      -6.253  12.931  68.566  1.00  0.00     0.000 HD 
BRANCH  27  29
HETATM   29  C   UNL     1      -8.165  11.194  67.985  1.00  0.00    -0.125 C  
HETATM   30  C   UNL     1      -9.222  10.546  69.028  1.00  0.00    -0.193 C  
HETATM   31  N   UNL     1      -9.848   8.810  68.719  1.00  0.00    -0.167 NA 
HETATM   32  C   UNL     1      -9.700   7.274  68.181  1.00  0.00    -0.145 C  
HETATM   33  C   UNL     1     -10.700   9.351  67.896  1.00  0.00    -0.210 C  
HETATM   34  C   UNL     1     -11.053   8.952  69.754  1.00  0.00    -0.089 C  
HETATM   35  C   UNL     1      -9.511   8.623  70.791  1.00  0.00    -0.231 A  
HETATM   36  C   UNL     1      -9.205   8.736  72.125  1.00  0.00    -0.178 A  
HETATM   37  N   UNL     1      -7.809   8.698  72.254  1.00  0.00    -0.338 NA 
HETATM   38  H   UNL     1      -7.334   8.774  73.153  1.00  0.00     0.000 HD 
HETATM   39  C   UNL     1      -7.126   8.547  71.046  1.00  0.00    -0.068 A  
HETATM   40  C   UNL     1      -5.762   8.563  70.715  1.00  0.00    -0.032 A  
HETATM   41  C   UNL     1      -5.382   8.522  69.342  1.00  0.00    -0.031 A  
HETATM   42  C   UNL     1      -6.288   8.562  68.261  1.00  0.00    -0.055 A  
HETATM   43  C   UNL     1      -7.648   8.648  68.533  1.00  0.00    -0.095 A  
HETATM   44  C   UNL     1      -8.070   8.501  70.046  1.00  0.00    -0.111 A  
HETATM   45  C   UNL     1      -8.901   9.238  67.271  1.00  0.00    -0.132 C  
HETATM   46  C   UNL     1      -8.497  10.411  66.755  1.00  0.00    -0.125 C  
ENDBRANCH  27  29
ENDBRANCH  13  25
TORSDOF 4
ENDMDL
MODEL       38
REMARK 921   NORMALIZED FREE ENERGY PREDICTED BY IDOCK:   -6.61 KCAL/MOL
REMARK 922        TOTAL FREE ENERGY PREDICTED BY IDOCK:   -9.02 KCAL/MOL
REMARK 923 INTER-LIGAND FREE ENERGY PREDICTED BY IDOCK:   -8.28 KCAL/MOL
REMARK 924 INTRA-LIGAND FREE ENERGY PREDICTED BY IDOCK:   -0.74 KCAL/MOL
REMARK 927      BINDING AFFINITY PREDICTED BY RF-SCORE:    0.00 PKD
ROOT
HETATM    1  C   UNL     1      -9.031  14.308  67.104  1.00  0.00    -0.225 A  
HETATM    2  C   UNL     1      -8.440  15.667  66.697  1.00  0.00    -0.323 A  
HETATM    3  C   UNL     1      -9.650  16.657  66.874  1.00  0.00    -0.259 A  
HETATM    4  C   UNL     1     -10.854  15.780  67.193  1.00  0.00    -0.289 A  
HETATM    5  N   UNL     1     -10.416  14.465  66.782  1.00  0.00    -0.271 N  
HETATM    6  C   UNL     1     -11.272  13.419  66.910  1.00  0.00    -0.308 C  
HETATM    7  O   UNL     1     -12.418  13.484  66.469  1.00  0.00    -0.359 OA 
HETATM    8  C   UNL     1     -10.644  12.149  67.544  1.00  0.00    -0.240 C  
HETATM    9  O   UNL     1      -8.499  11.470  66.579  1.00  0.00    -0.170 OA 
HETATM   10  N   UNL     1      -9.155  12.406  68.277  1.00  0.00    -0.197 N  
HETATM   11  C   UNL     1      -8.202  11.418  68.669  1.00  0.00    -0.142 C  
HETATM   12  H   UNL     1      -6.617  12.209  67.432  1.00  0.00     0.000 HD 
HETATM   13  C   UNL     1      -8.494  10.297  67.744  1.00  0.00    -0.114 C  
HETATM   14  O   UNL     1      -7.362  11.490  69.552  1.00  0.00    -0.018 OA 
HETATM   15  O   UNL     1      -6.997  13.078  67.384  1.00  0.00    -0.159 OA 
HETATM   16  C   UNL     1      -9.448   9.780  68.934  1.00  0.00    -0.161 C  
HETATM   17  C   UNL     1      -8.380  12.818  67.187  1.00  0.00    -0.164 C  
ENDROOT
BRANCH   8  18
HETATM   18  C   UNL     1     -11.809  11.445  68.240  1.00  0.00    -0.320 C  
BRANCH  18  19
HETATM   19  C   UNL     1     -12.134  11.990  69.589  1.00  0.00    -0.295 A  
HETATM   20  C   UNL     1     -12.912  11.541  71.820  1.00  0.00    -0.500 A  
HETATM   21  C   UNL     1     -12.930  12.907  72.073  1.00  0.00    -0.385 A  
HETATM   22  C   UNL     1     -12.128  13.358  69.860  1.00  0.00    -0.389 A  
HETATM   23  C   UNL     1     -12.544  13.841  71.096  1.00  0.00    -0.452 A  
HETATM   24  C   UNL     1     -12.508  11.080  70.581  1.00  0.00    -0.465 A  
ENDBRANCH  18  19
ENDBRANCH   8  18
BRANCH  13  25
HETATM   25  N   UNL     1      -7.858   9.094  67.241  1.00  0.00    -0.099 N  
HETATM   26  O   UNL     1      -9.732   8.420  66.003  1.00  0.00    -0.195 OA 
HETATM   27  C   UNL     1      -8.639   8.156  66.497  1.00  0.00    -0.138 C  
HETATM   28  H   UNL     1      -6.868   8.921  67.415  1.00  0.00     0.000 HD 
BRANCH  27  29
HETATM   29  C   UNL     1      -8.007   6.754  66.406  1.00  0.00    -0.106 C  
HETATM   30  C   UNL     1      -8.024   5.850  65.062  1.00  0.00    -0.123 C  
HETATM   31  N   UNL     1      -6.547   4.766  64.684  1.00  0.00    -0.042 NA 
HETATM   32  C   UNL     1      -5.280   3.820  65.098  1.00  0.00    -0.009 C  
HETATM   33  C   UNL     1      -5.992   5.834  64.186  1.00  0.00    -0.025 C  
HETATM   34  C   UNL     1      -6.985   4.524  63.169  1.00  0.00    -0.039 C  
HETATM   35  C   UNL     1      -8.050   3.366  64.212  1.00  0.00    -0.086 A  
HETATM   36  C   UNL     1      -9.188   2.634  63.979  1.00  0.00    -0.113 A  
HETATM   37  N   UNL     1      -9.721   2.255  65.219  1.00  0.00    -0.347 NA 
HETATM   38  H   UNL     1     -10.577   1.709  65.311  1.00  0.00     0.000 HD 
HETATM   39  C   UNL     1      -8.979   2.691  66.319  1.00  0.00    -0.137 A  
HETATM   40  C   UNL     1      -9.200   2.626  67.703  1.00  0.00    -0.232 A  
HETATM   41  C   UNL     1      -8.304   3.303  68.580  1.00  0.00    -0.091 A  
HETATM   42  C   UNL     1      -7.244   4.131  68.155  1.00  0.00    -0.060 A  
HETATM   43  C   UNL     1      -7.042   4.311  66.793  1.00  0.00    -0.067 A  
HETATM   44  C   UNL     1      -7.912   3.412  65.832  1.00  0.00    -0.092 A  
HETATM   45  C   UNL     1      -6.066   5.748  66.091  1.00  0.00    -0.029 C  
HETATM   46  C   UNL     1      -6.532   6.899  66.606  1.00  0.00    -0.047 C  
ENDBRANCH  27  29
ENDBRANCH  13  25
TORSDOF 4
ENDMDL
MODEL       39
REMARK 921   NORMALIZED FREE ENERGY PREDICTED BY IDOCK:   -6.59 KCAL/MOL
REMARK 922        TOTAL FREE ENERGY PREDICTED BY IDOCK:   -9.00 KCAL/MOL
REMARK 923 INTER-LIGAND FREE ENERGY PREDICTED BY IDOCK:   -8.28 KCAL/MOL
REMARK 924 INTRA-LIGAND FREE ENERGY PREDICTED BY IDOCK:   -0.72 KCAL/MOL
REMARK 927      BINDING AFFINITY PREDICTED BY RF-SCORE:    0.00 PKD
ROOT
HETATM    1  C   UNL     1      -9.214   4.132  70.099  1.00  0.00    -0.140 A  
HETATM    2  C   UNL     1      -9.145   2.755  69.420  1.00  0.00    -0.189 A  
HETATM    3  C   UNL     1      -8.312   1.890  70.437  1.00  0.00    -0.068 A  
HETATM    4  C   UNL     1      -7.833   2.864  71.507  1.00  0.00    -0.052 A  
HETATM    5  N   UNL     1      -8.014   4.153  70.878  1.00  0.00    -0.062 N  
HETATM    6  C   UNL     1      -7.660   5.272  71.561  1.00  0.00    -0.102 C  
HETATM    7  O   UNL     1      -6.552   5.367  72.084  1.00  0.00    -0.052 OA 
HETATM    8  C   UNL     1      -8.715   6.410  71.520  1.00  0.00    -0.134 C  
HETATM    9  O   UNL     1      -9.581   6.930  69.290  1.00  0.00    -0.150 OA 
HETATM   10  N   UNL     1     -10.225   5.935  70.958  1.00  0.00    -0.202 N  
HETATM   11  C   UNL     1     -11.290   6.779  70.521  1.00  0.00    -0.343 C  
HETATM   12  H   UNL     1     -11.380   5.924  68.538  1.00  0.00     0.000 HD 
HETATM   13  C   UNL     1     -10.576   7.996  70.066  1.00  0.00    -0.242 C  
HETATM   14  O   UNL     1     -12.488   6.544  70.527  1.00  0.00    -0.173 OA 
HETATM   15  O   UNL     1     -10.970   5.108  68.798  1.00  0.00     0.160 OA 
HETATM   16  C   UNL     1     -10.846   8.514  71.567  1.00  0.00    -0.332 C  
HETATM   17  C   UNL     1      -9.918   5.531  69.654  1.00  0.00    -0.214 C  
ENDROOT
BRANCH   8  18
HETATM   18  C   UNL     1      -8.511   7.176  72.826  1.00  0.00    -0.125 C  
BRANCH  18  19
HETATM   19  C   UNL     1      -7.362   8.126  72.806  1.00  0.00    -0.151 A  
HETATM   20  C   UNL     1      -5.886   9.489  71.486  1.00  0.00    -0.051 A  
HETATM   21  C   UNL     1      -5.138   9.758  72.625  1.00  0.00    -0.041 A  
HETATM   22  C   UNL     1      -6.623   8.423  73.951  1.00  0.00    -0.143 A  
HETATM   23  C   UNL     1      -5.490   9.224  73.878  1.00  0.00    -0.083 A  
HETATM   24  C   UNL     1      -7.002   8.679  71.575  1.00  0.00    -0.091 A  
ENDBRANCH  18  19
ENDBRANCH   8  18
BRANCH  13  25
HETATM   25  N   UNL     1     -10.811   9.160  69.233  1.00  0.00    -0.373 N  
HETATM   26  O   UNL     1      -8.786  10.190  69.811  1.00  0.00    -0.193 OA 
HETATM   27  C   UNL     1      -9.905  10.263  69.311  1.00  0.00    -0.228 C  
HETATM   28  H   UNL     1     -11.611   9.191  68.600  1.00  0.00     0.000 HD 
BRANCH  27  29
HETATM   29  C   UNL     1     -10.476  11.579  68.748  1.00  0.00    -0.227 C  
HETATM   30  C   UNL     1      -9.852  12.351  67.469  1.00  0.00    -0.194 C  
HETATM   31  N   UNL     1     -11.009  13.239  66.297  1.00  0.00    -0.283 NA 
HETATM   32  C   UNL     1     -12.359  14.084  65.932  1.00  0.00    -0.486 C  
HETATM   33  C   UNL     1     -11.204  12.078  65.739  1.00  0.00    -0.334 C  
HETATM   34  C   UNL     1      -9.904  13.383  65.155  1.00  0.00    -0.068 C  
HETATM   35  C   UNL     1      -9.530  14.735  66.418  1.00  0.00    -0.328 A  
HETATM   36  C   UNL     1      -8.455  15.555  66.660  1.00  0.00    -0.279 A  
HETATM   37  N   UNL     1      -8.607  16.099  67.944  1.00  0.00    -0.167 NA 
HETATM   38  H   UNL     1      -7.928  16.737  68.359  1.00  0.00     0.000 HD 
HETATM   39  C   UNL     1      -9.767  15.693  68.605  1.00  0.00    -0.204 A  
HETATM   40  C   UNL     1     -10.247  15.909  69.906  1.00  0.00    -0.233 A  
HETATM   41  C   UNL     1     -11.425  15.228  70.332  1.00  0.00    -0.330 A  
HETATM   42  C   UNL     1     -12.108  14.260  69.566  1.00  0.00    -0.376 A  
HETATM   43  C   UNL     1     -11.617  13.935  68.308  1.00  0.00    -0.372 A  
HETATM   44  C   UNL     1     -10.432  14.825  67.768  1.00  0.00    -0.254 A  
HETATM   45  C   UNL     1     -12.065  12.347  67.421  1.00  0.00    -0.075 C  
HETATM   46  C   UNL     1     -11.856  11.303  68.240  1.00  0.00    -0.299 C  
ENDBRANCH  27  29
ENDBRANCH  13  25
TORSDOF 4
ENDMDL
MODEL       40
REMARK 921   NORMALIZED FREE ENERGY PREDICTED BY IDOCK:   -6.56 KCAL/MOL
REMARK 922        TOTAL FREE ENERGY PREDICTED BY IDOCK:   -8.96 KCAL/MOL
REMARK 923 INTER-LIGAND FREE ENERGY PREDICTED BY IDOCK:   -7.95 KCAL/MOL
REMARK 924 INTRA-LIGAND FREE ENERGY PREDICTED BY IDOCK:   -1.01 KCAL/MOL
REMARK 927      BINDING AFFINITY PREDICTED BY RF-SCORE:    0.00 PKD
ROOT
HETATM    1  C   UNL     1     -10.361   5.275  72.440  1.00  0.00    -0.209 A  
HETATM    2  C   UNL     1     -11.284   4.688  73.520  1.00  0.00    -0.400 A  
HETATM    3  C   UNL     1     -10.927   3.156  73.507  1.00  0.00    -0.323 A  
HETATM    4  C   UNL     1      -9.978   2.965  72.331  1.00  0.00    -0.165 A  
HETATM    5  N   UNL     1     -10.177   4.167  71.554  1.00  0.00    -0.104 N  
HETATM    6  C   UNL     1      -9.485   4.323  70.396  1.00  0.00    -0.174 C  
HETATM    7  O   UNL     1      -9.473   3.437  69.544  1.00  0.00    -0.165 OA 
HETATM    8  C   UNL     1      -8.830   5.719  70.223  1.00  0.00    -0.145 C  
HETATM    9  O   UNL     1     -10.314   7.615  70.668  1.00  0.00    -0.203 OA 
HETATM   10  N   UNL     1      -8.788   6.644  71.624  1.00  0.00    -0.134 N  
HETATM   11  C   UNL     1      -8.540   8.045  71.729  1.00  0.00    -0.133 C  
HETATM   12  H   UNL     1     -10.431   8.481  72.680  1.00  0.00     0.000 HD 
HETATM   13  C   UNL     1      -8.979   8.554  70.408  1.00  0.00    -0.152 C  
HETATM   14  O   UNL     1      -8.078   8.660  72.677  1.00  0.00    -0.367 OA 
HETATM   15  O   UNL     1     -10.552   7.595  72.999  1.00  0.00    -0.314 OA 
HETATM   16  C   UNL     1      -7.433   8.360  70.003  1.00  0.00    -0.063 C  
HETATM   17  C   UNL     1     -10.153   6.795  71.894  1.00  0.00    -0.180 C  
ENDROOT
BRANCH   8  18
HETATM   18  C   UNL     1      -7.601   5.467  69.350  1.00  0.00    -0.077 C  
BRANCH  18  19
HETATM   19  C   UNL     1      -7.764   5.884  67.928  1.00  0.00    -0.100 A  
HETATM   20  C   UNL     1      -6.985   7.267  66.123  1.00  0.00    -0.065 A  
HETATM   21  C   UNL     1      -8.073   6.860  65.360  1.00  0.00    -0.133 A  
HETATM   22  C   UNL     1      -8.838   5.458  67.146  1.00  0.00    -0.109 A  
HETATM   23  C   UNL     1      -9.023   5.952  65.861  1.00  0.00    -0.149 A  
HETATM   24  C   UNL     1      -6.825   6.776  67.404  1.00  0.00    -0.073 A  
ENDBRANCH  18  19
ENDBRANCH   8  18
BRANCH  13  25
HETATM   25  N   UNL     1      -9.363   9.808  69.785  1.00  0.00    -0.213 N  
HETATM   26  O   UNL     1      -9.895   8.816  67.729  1.00  0.00    -0.159 OA 
HETATM   27  C   UNL     1      -9.659   9.825  68.387  1.00  0.00    -0.148 C  
HETATM   28  H   UNL     1      -9.420  10.663  70.338  1.00  0.00     0.000 HD 
BRANCH  27  29
HETATM   29  C   UNL     1      -9.610  11.231  67.758  1.00  0.00    -0.181 C  
HETATM   30  C   UNL     1      -9.594  12.599  68.625  1.00  0.00    -0.028 C  
HETATM   31  N   UNL     1      -8.599  14.054  67.997  1.00  0.00    -0.169 NA 
HETATM   32  C   UNL     1      -7.958  14.992  66.822  1.00  0.00     0.044 C  
HETATM   33  C   UNL     1      -7.564  13.476  68.537  1.00  0.00    -0.129 C  
HETATM   34  C   UNL     1      -8.654  14.824  69.393  1.00  0.00     0.025 C  
HETATM   35  C   UNL     1     -10.325  15.120  68.568  1.00  0.00    -0.230 A  
HETATM   36  C   UNL     1     -11.541  15.589  68.998  1.00  0.00    -0.365 A  
HETATM   37  N   UNL     1     -12.502  15.248  68.035  1.00  0.00    -0.073 NA 
HETATM   38  H   UNL     1     -13.490  15.481  68.132  1.00  0.00     0.000 HD 
HETATM   39  C   UNL     1     -11.990  14.564  66.932  1.00  0.00    -0.346 A  
HETATM   40  C   UNL     1     -12.597  13.963  65.818  1.00  0.00    -0.533 A  
HETATM   41  C   UNL     1     -11.793  13.203  64.918  1.00  0.00    -0.399 A  
HETATM   42  C   UNL     1     -10.425  12.921  65.112  1.00  0.00    -0.326 A  
HETATM   43  C   UNL     1      -9.798  13.409  66.252  1.00  0.00    -0.295 A  
HETATM   44  C   UNL     1     -10.639  14.404  67.142  1.00  0.00    -0.277 A  
HETATM   45  C   UNL     1      -8.195  12.699  66.912  1.00  0.00    -0.048 C  
HETATM   46  C   UNL     1      -8.311  11.366  67.030  1.00  0.00    -0.161 C  
ENDBRANCH  27  29
ENDBRANCH  13  25
TORSDOF 4
ENDMDL
MODEL       41
REMARK 921   NORMALIZED FREE ENERGY PREDICTED BY IDOCK:   -6.56 KCAL/MOL
REMARK 922        TOTAL FREE ENERGY PREDICTED BY IDOCK:   -8.95 KCAL/MOL
REMARK 923 INTER-LIGAND FREE ENERGY PREDICTED BY IDOCK:   -8.87 KCAL/MOL
REMARK 924 INTRA-LIGAND FREE ENERGY PREDICTED BY IDOCK:   -0.08 KCAL/MOL
REMARK 927      BINDING AFFINITY PREDICTED BY RF-SCORE:    0.00 PKD
ROOT
HETATM    1  C   UNL     1     -10.447   5.770  72.337  1.00  0.00    -0.211 A  
HETATM    2  C   UNL     1     -11.180   5.404  73.637  1.00  0.00    -0.082 A  
HETATM    3  C   UNL     1     -10.803   3.892  73.852  1.00  0.00    -0.308 A  
HETATM    4  C   UNL     1     -10.045   3.475  72.597  1.00  0.00    -0.165 A  
HETATM    5  N   UNL     1     -10.385   4.515  71.653  1.00  0.00    -0.140 N  
HETATM    6  C   UNL     1      -9.884   4.445  70.392  1.00  0.00    -0.216 C  
HETATM    7  O   UNL     1      -9.990   3.416  69.728  1.00  0.00     0.035 OA 
HETATM    8  C   UNL     1      -9.290   5.777  69.863  1.00  0.00    -0.177 C  
HETATM    9  O   UNL     1     -10.720   7.740  70.177  1.00  0.00    -0.234 OA 
HETATM   10  N   UNL     1      -9.046   6.945  71.046  1.00  0.00    -0.155 N  
HETATM   11  C   UNL     1      -8.809   8.339  70.849  1.00  0.00    -0.150 C  
HETATM   12  H   UNL     1     -10.536   8.965  71.988  1.00  0.00     0.000 HD 
HETATM   13  C   UNL     1      -9.459   8.599  69.543  1.00  0.00    -0.162 C  
HETATM   14  O   UNL     1      -8.216   9.113  71.583  1.00  0.00    -0.343 OA 
HETATM   15  O   UNL     1     -10.590   8.155  72.480  1.00  0.00    -0.293 OA 
HETATM   16  C   UNL     1      -7.992   8.316  68.943  1.00  0.00    -0.113 C  
HETATM   17  C   UNL     1     -10.354   7.160  71.494  1.00  0.00    -0.202 C  
ENDROOT
BRANCH   8  18
HETATM   18  C   UNL     1      -8.208   5.353  68.870  1.00  0.00    -0.100 C  
BRANCH  18  19
HETATM   19  C   UNL     1      -7.194   4.417  69.434  1.00  0.00    -0.051 A  
HETATM   20  C   UNL     1      -5.569   3.988  71.153  1.00  0.00    -0.012 A  
HETATM   21  C   UNL     1      -5.175   2.842  70.474  1.00  0.00    -0.004 A  
HETATM   22  C   UNL     1      -6.812   3.249  68.773  1.00  0.00    -0.045 A  
HETATM   23  C   UNL     1      -5.784   2.455  69.268  1.00  0.00    -0.022 A  
HETATM   24  C   UNL     1      -6.583   4.773  70.639  1.00  0.00    -0.031 A  
ENDBRANCH  18  19
ENDBRANCH   8  18
BRANCH  13  25
HETATM   25  N   UNL     1      -9.957   9.720  68.767  1.00  0.00    -0.163 N  
HETATM   26  O   UNL     1      -8.090  11.068  69.205  1.00  0.00    -0.110 OA 
HETATM   27  C   UNL     1      -9.245  10.959  68.802  1.00  0.00    -0.183 C  
HETATM   28  H   UNL     1     -10.803   9.625  68.204  1.00  0.00     0.000 HD 
BRANCH  27  29
HETATM   29  C   UNL     1     -10.075  12.168  68.329  1.00  0.00    -0.210 C  
HETATM   30  C   UNL     1      -9.734  13.020  66.995  1.00  0.00    -0.235 C  
HETATM   31  N   UNL     1     -11.146  13.712  65.981  1.00  0.00    -0.293 NA 
HETATM   32  C   UNL     1     -12.644  14.337  65.790  1.00  0.00    -0.384 C  
HETATM   33  C   UNL     1     -11.226  12.532  65.435  1.00  0.00    -0.307 C  
HETATM   34  C   UNL     1     -10.221  14.019  64.718  1.00  0.00    -0.301 C  
HETATM   35  C   UNL     1      -9.911  15.419  65.944  1.00  0.00    -0.387 A  
HETATM   36  C   UNL     1      -8.954  16.397  66.067  1.00  0.00    -0.272 A  
HETATM   37  N   UNL     1      -9.033  16.918  67.367  1.00  0.00    -0.208 NA 
HETATM   38  H   UNL     1      -8.415  17.655  67.707  1.00  0.00     0.000 HD 
HETATM   39  C   UNL     1     -10.029  16.342  68.157  1.00  0.00    -0.239 A  
HETATM   40  C   UNL     1     -10.377  16.488  69.508  1.00  0.00    -0.266 A  
HETATM   41  C   UNL     1     -11.376  15.635  70.062  1.00  0.00    -0.341 A  
HETATM   42  C   UNL     1     -11.990  14.570  69.371  1.00  0.00    -0.362 A  
HETATM   43  C   UNL     1     -11.608  14.318  68.059  1.00  0.00    -0.364 A  
HETATM   44  C   UNL     1     -10.648  15.377  67.393  1.00  0.00    -0.289 A  
HETATM   45  C   UNL     1     -11.910  12.674  67.211  1.00  0.00    -0.395 C  
HETATM   46  C   UNL     1     -11.447  11.679  67.986  1.00  0.00    -0.385 C  
ENDBRANCH  27  29
ENDBRANCH  13  25
TORSDOF 4
ENDMDL
MODEL       42
REMARK 921   NORMALIZED FREE ENERGY PREDICTED BY IDOCK:   -6.55 KCAL/MOL
REMARK 922        TOTAL FREE ENERGY PREDICTED BY IDOCK:   -8.95 KCAL/MOL
REMARK 923 INTER-LIGAND FREE ENERGY PREDICTED BY IDOCK:   -8.05 KCAL/MOL
REMARK 924 INTRA-LIGAND FREE ENERGY PREDICTED BY IDOCK:   -0.90 KCAL/MOL
REMARK 927      BINDING AFFINITY PREDICTED BY RF-SCORE:    0.00 PKD
ROOT
HETATM    1  C   UNL     1     -10.277  14.018  66.526  1.00  0.00    -0.279 A  
HETATM    2  C   UNL     1     -11.268  15.149  66.206  1.00  0.00    -0.273 A  
HETATM    3  C   UNL     1     -10.335  16.334  65.759  1.00  0.00    -0.393 A  
HETATM    4  C   UNL     1      -8.912  15.856  66.020  1.00  0.00    -0.302 A  
HETATM    5  N   UNL     1      -9.103  14.738  66.915  1.00  0.00    -0.234 N  
HETATM    6  C   UNL     1      -8.013  14.072  67.376  1.00  0.00    -0.175 C  
HETATM    7  O   UNL     1      -7.071  14.679  67.882  1.00  0.00    -0.123 OA 
HETATM    8  C   UNL     1      -8.125  12.526  67.302  1.00  0.00    -0.179 C  
HETATM    9  O   UNL     1     -10.211  11.601  68.190  1.00  0.00    -0.184 OA 
HETATM   10  N   UNL     1      -9.393  11.969  66.351  1.00  0.00    -0.225 N  
HETATM   11  C   UNL     1      -9.940  10.651  66.324  1.00  0.00    -0.222 C  
HETATM   12  H   UNL     1     -11.933  11.284  66.869  1.00  0.00     0.000 HD 
HETATM   13  C   UNL     1      -9.629  10.141  67.681  1.00  0.00    -0.148 C  
HETATM   14  O   UNL     1     -10.517  10.093  65.405  1.00  0.00    -0.197 OA 
HETATM   15  O   UNL     1     -11.804  12.176  66.571  1.00  0.00    -0.569 OA 
HETATM   16  C   UNL     1      -8.305   9.554  66.977  1.00  0.00    -0.124 C  
HETATM   17  C   UNL     1     -10.498  12.488  67.036  1.00  0.00    -0.231 C  
ENDROOT
BRANCH   8  18
HETATM   18  C   UNL     1      -6.685  12.039  67.145  1.00  0.00    -0.136 C  
BRANCH  18  19
HETATM   19  C   UNL     1      -6.107  11.435  68.379  1.00  0.00    -0.045 A  
HETATM   20  C   UNL     1      -5.201   9.477  69.442  1.00  0.00    -0.035 A  
HETATM   21  C   UNL     1      -5.180  10.161  70.651  1.00  0.00    -0.050 A  
HETATM   22  C   UNL     1      -6.056  12.123  69.591  1.00  0.00    -0.129 A  
HETATM   23  C   UNL     1      -5.614  11.495  70.749  1.00  0.00    -0.111 A  
HETATM   24  C   UNL     1      -5.657  10.114  68.303  1.00  0.00    -0.041 A  
ENDBRANCH  18  19
ENDBRANCH   8  18
BRANCH  13  25
HETATM   25  N   UNL     1     -10.057   9.089  68.584  1.00  0.00    -0.184 N  
HETATM   26  O   UNL     1      -8.772   9.877  70.379  1.00  0.00    -0.138 OA 
HETATM   27  C   UNL     1      -9.435   8.980  69.866  1.00  0.00    -0.177 C  
HETATM   28  H   UNL     1     -10.791   8.437  68.308  1.00  0.00     0.000 HD 
BRANCH  27  29
HETATM   29  C   UNL     1      -9.630   7.608  70.539  1.00  0.00    -0.167 C  
HETATM   30  C   UNL     1      -9.192   7.288  72.065  1.00  0.00    -0.149 C  
HETATM   31  N   UNL     1     -10.245   6.124  73.083  1.00  0.00    -0.189 NA 
HETATM   32  C   UNL     1     -11.237   4.840  73.281  1.00  0.00    -0.340 C  
HETATM   33  C   UNL     1     -11.010   7.152  73.318  1.00  0.00    -0.286 C  
HETATM   34  C   UNL     1      -9.569   6.557  74.461  1.00  0.00    -0.282 C  
HETATM   35  C   UNL     1      -8.362   5.360  73.642  1.00  0.00    -0.112 A  
HETATM   36  C   UNL     1      -7.044   5.032  73.846  1.00  0.00    -0.082 A  
HETATM   37  N   UNL     1      -6.587   4.351  72.708  1.00  0.00    -0.043 NA 
HETATM   38  H   UNL     1      -5.631   4.010  72.614  1.00  0.00     0.000 HD 
HETATM   39  C   UNL     1      -7.553   4.180  71.716  1.00  0.00    -0.066 A  
HETATM   40  C   UNL     1      -7.499   3.660  70.413  1.00  0.00    -0.041 A  
HETATM   41  C   UNL     1      -8.653   3.754  69.581  1.00  0.00    -0.110 A  
HETATM   42  C   UNL     1      -9.840   4.427  69.936  1.00  0.00    -0.290 A  
HETATM   43  C   UNL     1      -9.911   5.047  71.178  1.00  0.00    -0.254 A  
HETATM   44  C   UNL     1      -8.710   4.777  72.164  1.00  0.00    -0.131 A  
HETATM   45  C   UNL     1     -11.155   6.390  71.574  1.00  0.00    -0.322 C  
HETATM   46  C   UNL     1     -11.100   7.343  70.628  1.00  0.00    -0.285 C  
ENDBRANCH  27  29
ENDBRANCH  13  25
TORSDOF 4
ENDMDL
MODEL       43
REMARK 921   NORMALIZED FREE ENERGY PREDICTED BY IDOCK:   -6.41 KCAL/MOL
REMARK 922        TOTAL FREE ENERGY PREDICTED BY IDOCK:   -8.77 KCAL/MOL
REMARK 923 INTER-LIGAND FREE ENERGY PREDICTED BY IDOCK:   -8.09 KCAL/MOL
REMARK 924 INTRA-LIGAND FREE ENERGY PREDICTED BY IDOCK:   -0.69 KCAL/MOL
REMARK 927      BINDING AFFINITY PREDICTED BY RF-SCORE:    0.00 PKD
ROOT
HETATM    1  C   UNL     1      -9.032  14.263  67.077  1.00  0.00    -0.236 A  
HETATM    2  C   UNL     1      -8.459  15.624  66.652  1.00  0.00    -0.323 A  
HETATM    3  C   UNL     1      -9.680  16.601  66.820  1.00  0.00    -0.271 A  
HETATM    4  C   UNL     1     -10.873  15.713  67.152  1.00  0.00    -0.297 A  
HETATM    5  N   UNL     1     -10.420  14.399  66.756  1.00  0.00    -0.271 N  
HETATM    6  C   UNL     1     -11.263  13.343  66.899  1.00  0.00    -0.308 C  
HETATM    7  O   UNL     1     -12.410  13.389  66.460  1.00  0.00    -0.376 OA 
HETATM    8  C   UNL     1     -10.618  12.090  67.547  1.00  0.00    -0.250 C  
HETATM    9  O   UNL     1      -8.466  11.425  66.586  1.00  0.00    -0.163 OA 
HETATM   10  N   UNL     1      -9.130  12.373  68.273  1.00  0.00    -0.197 N  
HETATM   11  C   UNL     1      -8.164  11.402  68.675  1.00  0.00    -0.142 C  
HETATM   12  H   UNL     1      -6.592  12.198  67.424  1.00  0.00     0.000 HD 
HETATM   13  C   UNL     1      -8.444  10.267  67.764  1.00  0.00    -0.114 C  
HETATM   14  O   UNL     1      -7.323  11.495  69.555  1.00  0.00    -0.018 OA 
HETATM   15  O   UNL     1      -6.983  13.061  67.367  1.00  0.00    -0.159 OA 
HETATM   16  C   UNL     1      -9.389   9.753  68.963  1.00  0.00    -0.161 C  
HETATM   17  C   UNL     1      -8.363  12.782  67.176  1.00  0.00    -0.164 C  
ENDROOT
BRANCH   8  18
HETATM   18  C   UNL     1     -11.772  11.380  68.254  1.00  0.00    -0.359 C  
BRANCH  18  19
HETATM   19  C   UNL     1     -12.115  11.950  69.588  1.00  0.00    -0.304 A  
HETATM   20  C   UNL     1     -12.926  11.545  71.815  1.00  0.00    -0.500 A  
HETATM   21  C   UNL     1     -12.943  12.915  72.043  1.00  0.00    -0.385 A  
HETATM   22  C   UNL     1     -12.108  13.323  69.834  1.00  0.00    -0.377 A  
HETATM   23  C   UNL     1     -12.540  13.830  71.054  1.00  0.00    -0.446 A  
HETATM   24  C   UNL     1     -12.506  11.060  70.591  1.00  0.00    -0.465 A  
ENDBRANCH  18  19
ENDBRANCH   8  18
BRANCH  13  25
HETATM   25  N   UNL     1      -7.794   9.065  67.274  1.00  0.00    -0.099 N  
HETATM   26  O   UNL     1      -9.567   8.484  65.855  1.00  0.00    -0.197 OA 
HETATM   27  C   UNL     1      -8.529   8.175  66.431  1.00  0.00    -0.130 C  
HETATM   28  H   UNL     1      -6.828   8.860  67.527  1.00  0.00     0.000 HD 
BRANCH  27  29
HETATM   29  C   UNL     1      -7.924   6.760  66.344  1.00  0.00    -0.106 C  
HETATM   30  C   UNL     1      -8.814   5.411  66.232  1.00  0.00    -0.131 C  
HETATM   31  N   UNL     1      -8.173   3.990  65.197  1.00  0.00    -0.101 NA 
HETATM   32  C   UNL     1      -6.992   3.058  64.560  1.00  0.00    -0.049 C  
HETATM   33  C   UNL     1      -8.662   4.625  64.169  1.00  0.00    -0.145 C  
HETATM   34  C   UNL     1      -9.584   3.247  65.163  1.00  0.00    -0.107 C  
HETATM   35  C   UNL     1      -8.832   2.860  66.849  1.00  0.00    -0.157 A  
HETATM   36  C   UNL     1      -9.319   2.346  68.026  1.00  0.00    -0.202 A  
HETATM   37  N   UNL     1      -8.388   2.624  69.038  1.00  0.00    -0.058 NA 
HETATM   38  H   UNL     1      -8.529   2.350  70.010  1.00  0.00     0.000 HD 
HETATM   39  C   UNL     1      -7.253   3.309  68.600  1.00  0.00    -0.050 A  
HETATM   40  C   UNL     1      -6.154   3.860  69.276  1.00  0.00    -0.027 A  
HETATM   41  C   UNL     1      -5.209   4.637  68.544  1.00  0.00    -0.007 A  
HETATM   42  C   UNL     1      -5.343   4.983  67.183  1.00  0.00    -0.012 A  
HETATM   43  C   UNL     1      -6.466   4.547  66.491  1.00  0.00    -0.041 A  
HETATM   44  C   UNL     1      -7.407   3.533  67.250  1.00  0.00    -0.063 A  
HETATM   45  C   UNL     1      -7.049   5.340  64.897  1.00  0.00    -0.058 C  
HETATM   46  C   UNL     1      -7.147   6.669  65.068  1.00  0.00    -0.064 C  
ENDBRANCH  27  29
ENDBRANCH  13  25
TORSDOF 4
ENDMDL
MODEL       44
REMARK 921   NORMALIZED FREE ENERGY PREDICTED BY IDOCK:   -6.40 KCAL/MOL
REMARK 922        TOTAL FREE ENERGY PREDICTED BY IDOCK:   -8.76 KCAL/MOL
REMARK 923 INTER-LIGAND FREE ENERGY PREDICTED BY IDOCK:   -8.56 KCAL/MOL
REMARK 924 INTRA-LIGAND FREE ENERGY PREDICTED BY IDOCK:   -0.21 KCAL/MOL
REMARK 927      BINDING AFFINITY PREDICTED BY RF-SCORE:    0.00 PKD
ROOT
HETATM    1  C   UNL     1     -11.613  13.942  69.547  1.00  0.00    -0.301 A  
HETATM    2  C   UNL     1     -12.669  14.087  70.655  1.00  0.00    -0.373 A  
HETATM    3  C   UNL     1     -12.599  15.614  71.024  1.00  0.00    -0.515 A  
HETATM    4  C   UNL     1     -11.417  16.173  70.240  1.00  0.00    -0.308 A  
HETATM    5  N   UNL     1     -10.686  14.984  69.864  1.00  0.00    -0.242 N  
HETATM    6  C   UNL     1      -9.536  15.118  69.155  1.00  0.00    -0.232 C  
HETATM    7  O   UNL     1      -8.652  15.887  69.527  1.00  0.00    -0.237 OA 
HETATM    8  C   UNL     1      -9.416  14.160  67.940  1.00  0.00    -0.211 C  
HETATM    9  O   UNL     1      -9.931  11.815  68.422  1.00  0.00    -0.194 OA 
HETATM   10  N   UNL     1     -10.852  13.400  67.513  1.00  0.00    -0.260 N  
HETATM   11  C   UNL     1     -11.009  12.264  66.664  1.00  0.00    -0.278 C  
HETATM   12  H   UNL     1     -11.974  11.056  68.174  1.00  0.00     0.000 HD 
HETATM   13  C   UNL     1      -9.708  11.568  66.804  1.00  0.00    -0.199 C  
HETATM   14  O   UNL     1     -11.981  11.954  65.992  1.00  0.00    -0.511 OA 
HETATM   15  O   UNL     1     -12.259  11.804  68.686  1.00  0.00    -0.405 OA 
HETATM   16  C   UNL     1      -9.298  12.423  65.502  1.00  0.00     0.106 C  
HETATM   17  C   UNL     1     -11.125  12.660  68.669  1.00  0.00    -0.266 C  
ENDROOT
BRANCH   8  18
HETATM   18  C   UNL     1      -8.536  14.909  66.939  1.00  0.00    -0.269 C  
BRANCH  18  19
HETATM   19  C   UNL     1      -9.008  16.287  66.621  1.00  0.00    -0.283 A  
HETATM   20  C   UNL     1      -8.479  18.629  66.497  1.00  0.00    -0.302 A  
HETATM   21  C   UNL     1      -9.814  18.901  66.225  1.00  0.00    -0.401 A  
HETATM   22  C   UNL     1     -10.341  16.566  66.320  1.00  0.00    -0.327 A  
HETATM   23  C   UNL     1     -10.771  17.875  66.138  1.00  0.00    -0.123 A  
HETATM   24  C   UNL     1      -8.072  17.322  66.689  1.00  0.00    -0.300 A  
ENDBRANCH  18  19
ENDBRANCH   8  18
BRANCH  13  25
HETATM   25  N   UNL     1      -9.133  10.256  66.572  1.00  0.00    -0.147 N  
HETATM   26  O   UNL     1     -10.791   9.130  67.788  1.00  0.00    -0.217 OA 
HETATM   27  C   UNL     1      -9.687   9.126  67.249  1.00  0.00    -0.173 C  
HETATM   28  H   UNL     1      -8.344  10.143  65.935  1.00  0.00     0.000 HD 
BRANCH  27  29
HETATM   29  C   UNL     1      -8.752   7.902  67.286  1.00  0.00    -0.131 C  
HETATM   30  C   UNL     1      -9.138   6.462  66.655  1.00  0.00    -0.155 C  
HETATM   31  N   UNL     1      -7.791   5.434  65.862  1.00  0.00    -0.102 NA 
HETATM   32  C   UNL     1      -6.255   4.896  65.711  1.00  0.00    -0.034 C  
HETATM   33  C   UNL     1      -7.975   6.162  64.797  1.00  0.00    -0.124 C  
HETATM   34  C   UNL     1      -8.824   4.458  65.136  1.00  0.00    -0.138 C  
HETATM   35  C   UNL     1      -8.735   3.882  66.930  1.00  0.00    -0.114 A  
HETATM   36  C   UNL     1      -9.499   3.053  67.714  1.00  0.00    -0.146 A  
HETATM   37  N   UNL     1      -9.159   3.289  69.054  1.00  0.00    -0.131 NA 
HETATM   38  H   UNL     1      -9.599   2.798  69.832  1.00  0.00     0.000 HD 
HETATM   39  C   UNL     1      -8.165   4.252  69.232  1.00  0.00    -0.070 A  
HETATM   40  C   UNL     1      -7.612   4.851  70.375  1.00  0.00    -0.059 A  
HETATM   41  C   UNL     1      -6.692   5.928  70.215  1.00  0.00    -0.048 A  
HETATM   42  C   UNL     1      -6.356   6.516  68.978  1.00  0.00    -0.035 A  
HETATM   43  C   UNL     1      -6.953   6.026  67.823  1.00  0.00    -0.069 A  
HETATM   44  C   UNL     1      -7.819   4.717  67.983  1.00  0.00    -0.082 A  
HETATM   45  C   UNL     1      -7.035   7.005  66.228  1.00  0.00    -0.069 C  
HETATM   46  C   UNL     1      -7.536   8.226  66.478  1.00  0.00    -0.081 C  
ENDBRANCH  27  29
ENDBRANCH  13  25
TORSDOF 4
ENDMDL
MODEL       45
REMARK 921   NORMALIZED FREE ENERGY PREDICTED BY IDOCK:   -6.25 KCAL/MOL
REMARK 922        TOTAL FREE ENERGY PREDICTED BY IDOCK:   -8.58 KCAL/MOL
REMARK 923 INTER-LIGAND FREE ENERGY PREDICTED BY IDOCK:   -8.29 KCAL/MOL
REMARK 924 INTRA-LIGAND FREE ENERGY PREDICTED BY IDOCK:   -0.29 KCAL/MOL
REMARK 927      BINDING AFFINITY PREDICTED BY RF-SCORE:    0.00 PKD
ROOT
HETATM    1  C   UNL     1     -10.598  14.758  66.095  1.00  0.00    -0.311 A  
HETATM    2  C   UNL     1     -11.518  15.024  64.893  1.00  0.00    -0.399 A  
HETATM    3  C   UNL     1     -11.416  16.582  64.697  1.00  0.00     0.021 A  
HETATM    4  C   UNL     1     -10.605  17.093  65.881  1.00  0.00    -0.215 A  
HETATM    5  N   UNL     1     -10.666  15.992  66.816  1.00  0.00    -0.298 N  
HETATM    6  C   UNL     1     -10.050  16.118  68.019  1.00  0.00    -0.242 C  
HETATM    7  O   UNL     1     -10.248  17.101  68.730  1.00  0.00    -0.294 OA 
HETATM    8  C   UNL     1      -9.193  14.892  68.433  1.00  0.00    -0.189 C  
HETATM    9  O   UNL     1     -10.312  12.727  68.195  1.00  0.00    -0.225 OA 
HETATM   10  N   UNL     1      -8.893  13.804  67.188  1.00  0.00    -0.225 N  
HETATM   11  C   UNL     1      -8.414  12.465  67.306  1.00  0.00    -0.183 C  
HETATM   12  H   UNL     1     -10.130  11.585  66.330  1.00  0.00     0.000 HD 
HETATM   13  C   UNL     1      -8.867  12.075  68.662  1.00  0.00    -0.021 C  
HETATM   14  O   UNL     1      -7.787  11.815  66.486  1.00  0.00    -0.100 OA 
HETATM   15  O   UNL     1     -10.367  12.386  65.877  1.00  0.00    -0.246 OA 
HETATM   16  C   UNL     1      -7.409  12.585  69.116  1.00  0.00     0.127 C  
HETATM   17  C   UNL     1     -10.190  13.386  66.871  1.00  0.00    -0.252 C  
ENDROOT
BRANCH   8  18
HETATM   18  C   UNL     1      -8.093  15.468  69.323  1.00  0.00    -0.248 C  
BRANCH  18  19
HETATM   19  C   UNL     1      -7.185  16.427  68.631  1.00  0.00    -0.178 A  
HETATM   20  C   UNL     1      -5.917  18.465  68.757  1.00  0.00    -0.203 A  
HETATM   21  C   UNL     1      -5.638  18.359  67.400  1.00  0.00    -0.145 A  
HETATM   22  C   UNL     1      -6.877  16.312  67.275  1.00  0.00    -0.230 A  
HETATM   23  C   UNL     1      -6.119  17.284  66.633  1.00  0.00    -0.247 A  
HETATM   24  C   UNL     1      -6.684  17.497  69.376  1.00  0.00    -0.179 A  
ENDBRANCH  18  19
ENDBRANCH   8  18
BRANCH  13  25
HETATM   25  N   UNL     1      -9.089  10.872  69.443  1.00  0.00    -0.400 N  
HETATM   26  O   UNL     1      -7.544   9.596  68.226  1.00  0.00    -0.078 OA 
HETATM   27  C   UNL     1      -8.475   9.651  69.025  1.00  0.00    -0.131 C  
HETATM   28  H   UNL     1      -9.676  10.897  70.277  1.00  0.00     0.000 HD 
BRANCH  27  29
HETATM   29  C   UNL     1      -9.118   8.390  69.634  1.00  0.00    -0.153 C  
HETATM   30  C   UNL     1      -9.079   8.040  71.215  1.00  0.00    -0.168 C  
HETATM   31  N   UNL     1     -10.558   7.194  71.989  1.00  0.00    -0.209 NA 
HETATM   32  C   UNL     1     -11.843   6.185  71.972  1.00  0.00    -0.280 C  
HETATM   33  C   UNL     1     -11.091   8.380  72.071  1.00  0.00    -0.327 C  
HETATM   34  C   UNL     1     -10.088   7.515  73.479  1.00  0.00    -0.323 C  
HETATM   35  C   UNL     1      -9.058   6.039  72.914  1.00  0.00    -0.131 A  
HETATM   36  C   UNL     1      -7.922   5.423  73.379  1.00  0.00    -0.111 A  
HETATM   37  N   UNL     1      -7.421   4.608  72.353  1.00  0.00    -0.081 NA 
HETATM   38  H   UNL     1      -6.572   4.051  72.453  1.00  0.00     0.000 HD 
HETATM   39  C   UNL     1      -8.182   4.625  71.184  1.00  0.00    -0.092 A  
HETATM   40  C   UNL     1      -7.993   4.054  69.916  1.00  0.00    -0.056 A  
HETATM   41  C   UNL     1      -8.903   4.379  68.867  1.00  0.00    -0.134 A  
HETATM   42  C   UNL     1      -9.946   5.323  68.979  1.00  0.00    -0.260 A  
HETATM   43  C   UNL     1     -10.114   5.992  70.184  1.00  0.00    -0.249 A  
HETATM   44  C   UNL     1      -9.231   5.492  71.392  1.00  0.00    -0.167 A  
HETATM   45  C   UNL     1     -11.060   7.602  70.329  1.00  0.00    -0.256 C  
HETATM   46  C   UNL     1     -10.596   8.477  69.421  1.00  0.00    -0.203 C  
ENDBRANCH  27  29
ENDBRANCH  13  25
TORSDOF 4
ENDMDL
MODEL       46
REMARK 921   NORMALIZED FREE ENERGY PREDICTED BY IDOCK:   -6.24 KCAL/MOL
REMARK 922        TOTAL FREE ENERGY PREDICTED BY IDOCK:   -8.56 KCAL/MOL
REMARK 923 INTER-LIGAND FREE ENERGY PREDICTED BY IDOCK:   -7.82 KCAL/MOL
REMARK 924 INTRA-LIGAND FREE ENERGY PREDICTED BY IDOCK:   -0.74 KCAL/MOL
REMARK 927      BINDING AFFINITY PREDICTED BY RF-SCORE:    0.00 PKD
ROOT
HETATM    1  C   UNL     1      -8.679  14.600  67.032  1.00  0.00    -0.235 A  
HETATM    2  C   UNL     1      -7.851  15.764  66.466  1.00  0.00    -0.098 A  
HETATM    3  C   UNL     1      -8.817  16.998  66.607  1.00  0.00    -0.282 A  
HETATM    4  C   UNL     1     -10.151  16.425  67.069  1.00  0.00    -0.272 A  
HETATM    5  N   UNL     1     -10.022  15.017  66.767  1.00  0.00    -0.242 N  
HETATM    6  C   UNL     1     -11.063  14.189  67.038  1.00  0.00    -0.307 C  
HETATM    7  O   UNL     1     -12.199  14.457  66.652  1.00  0.00    -0.424 OA 
HETATM    8  C   UNL     1     -10.667  12.874  67.760  1.00  0.00    -0.238 C  
HETATM    9  O   UNL     1      -8.779  11.679  66.759  1.00  0.00    -0.178 OA 
HETATM   10  N   UNL     1      -9.109  12.871  68.388  1.00  0.00    -0.167 N  
HETATM   11  C   UNL     1      -8.355  11.742  68.826  1.00  0.00    -0.009 C  
HETATM   12  H   UNL     1      -6.731  12.074  67.439  1.00  0.00     0.000 HD 
HETATM   13  C   UNL     1      -8.934  10.634  68.030  1.00  0.00    -0.140 C  
HETATM   14  O   UNL     1      -7.458  11.709  69.654  1.00  0.00     0.144 OA 
HETATM   15  O   UNL     1      -6.927  12.997  67.327  1.00  0.00    -0.142 OA 
HETATM   16  C   UNL     1      -9.888  10.432  69.311  1.00  0.00    -0.243 C  
HETATM   17  C   UNL     1      -8.344  13.018  67.226  1.00  0.00    -0.185 C  
ENDROOT
BRANCH   8  18
HETATM   18  C   UNL     1     -11.900  12.493  68.579  1.00  0.00    -0.341 C  
BRANCH  18  19
HETATM   19  C   UNL     1     -12.027  13.226  69.871  1.00  0.00    -0.400 A  
HETATM   20  C   UNL     1     -12.979  13.289  72.078  1.00  0.00    -0.401 A  
HETATM   21  C   UNL     1     -12.475  14.573  72.243  1.00  0.00    -0.353 A  
HETATM   22  C   UNL     1     -11.500  14.505  70.055  1.00  0.00    -0.311 A  
HETATM   23  C   UNL     1     -11.732  15.207  71.232  1.00  0.00    -0.409 A  
HETATM   24  C   UNL     1     -12.750  12.611  70.895  1.00  0.00    -0.274 A  
ENDBRANCH  18  19
ENDBRANCH   8  18
BRANCH  13  25
HETATM   25  N   UNL     1      -8.595   9.286  67.614  1.00  0.00    -0.116 N  
HETATM   26  O   UNL     1     -10.540   9.013  66.334  1.00  0.00    -0.148 OA 
HETATM   27  C   UNL     1      -9.559   8.522  66.885  1.00  0.00    -0.197 C  
HETATM   28  H   UNL     1      -7.682   8.889  67.838  1.00  0.00     0.000 HD 
BRANCH  27  29
HETATM   29  C   UNL     1      -9.284   7.006  66.891  1.00  0.00    -0.174 C  
HETATM   30  C   UNL     1      -8.060   6.320  67.699  1.00  0.00    -0.117 C  
HETATM   31  N   UNL     1      -8.317   4.635  68.470  1.00  0.00    -0.086 NA 
HETATM   32  C   UNL     1      -8.972   3.140  68.536  1.00  0.00    -0.137 C  
HETATM   33  C   UNL     1      -8.871   5.266  69.466  1.00  0.00    -0.104 C  
HETATM   34  C   UNL     1      -7.013   4.742  69.382  1.00  0.00    -0.051 C  
HETATM   35  C   UNL     1      -6.406   4.282  67.655  1.00  0.00    -0.037 A  
HETATM   36  C   UNL     1      -5.182   4.284  67.033  1.00  0.00    -0.012 A  
HETATM   37  N   UNL     1      -5.399   4.187  65.650  1.00  0.00    -0.009 NA 
HETATM   38  H   UNL     1      -4.640   4.179  64.970  1.00  0.00     0.000 HD 
HETATM   39  C   UNL     1      -6.744   4.103  65.286  1.00  0.00    -0.049 A  
HETATM   40  C   UNL     1      -7.395   4.096  64.043  1.00  0.00    -0.055 A  
HETATM   41  C   UNL     1      -8.820   4.143  64.008  1.00  0.00    -0.126 A  
HETATM   42  C   UNL     1      -9.642   4.296  65.143  1.00  0.00    -0.185 A  
HETATM   43  C   UNL     1      -9.043   4.410  66.391  1.00  0.00    -0.126 A  
HETATM   44  C   UNL     1      -7.486   4.165  66.445  1.00  0.00    -0.084 A  
HETATM   45  C   UNL     1      -9.922   5.136  67.878  1.00  0.00    -0.202 C  
HETATM   46  C   UNL     1     -10.445   6.329  67.550  1.00  0.00    -0.295 C  
ENDBRANCH  27  29
ENDBRANCH  13  25
TORSDOF 4
ENDMDL
MODEL       47
REMARK 921   NORMALIZED FREE ENERGY PREDICTED BY IDOCK:   -6.18 KCAL/MOL
REMARK 922        TOTAL FREE ENERGY PREDICTED BY IDOCK:   -8.49 KCAL/MOL
REMARK 923 INTER-LIGAND FREE ENERGY PREDICTED BY IDOCK:   -7.73 KCAL/MOL
REMARK 924 INTRA-LIGAND FREE ENERGY PREDICTED BY IDOCK:   -0.75 KCAL/MOL
REMARK 927      BINDING AFFINITY PREDICTED BY RF-SCORE:    0.00 PKD
ROOT
HETATM    1  C   UNL     1      -9.879   7.160  72.764  1.00  0.00    -0.179 A  
HETATM    2  C   UNL     1      -9.749   6.733  74.235  1.00  0.00    -0.328 A  
HETATM    3  C   UNL     1     -10.604   5.414  74.306  1.00  0.00    -0.232 A  
HETATM    4  C   UNL     1     -11.281   5.290  72.947  1.00  0.00    -0.312 A  
HETATM    5  N   UNL     1     -11.152   6.620  72.396  1.00  0.00    -0.249 N  
HETATM    6  C   UNL     1     -11.677   6.877  71.171  1.00  0.00    -0.336 C  
HETATM    7  O   UNL     1     -12.839   6.575  70.907  1.00  0.00    -0.050 OA 
HETATM    8  C   UNL     1     -10.732   7.656  70.218  1.00  0.00    -0.244 C  
HETATM    9  O   UNL     1      -9.682   9.637  71.202  1.00  0.00    -0.163 OA 
HETATM   10  N   UNL     1      -9.134   7.724  70.730  1.00  0.00    -0.148 N  
HETATM   11  C   UNL     1      -8.109   8.596  70.254  1.00  0.00    -0.109 C  
HETATM   12  H   UNL     1      -7.729   9.481  72.189  1.00  0.00     0.000 HD 
HETATM   13  C   UNL     1      -8.877   9.765  69.765  1.00  0.00    -0.224 C  
HETATM   14  O   UNL     1      -6.902   8.412  70.255  1.00  0.00    -0.036 OA 
HETATM   15  O   UNL     1      -8.089   8.746  72.671  1.00  0.00    -0.390 OA 
HETATM   16  C   UNL     1      -8.818   9.003  68.348  1.00  0.00    -0.134 C  
HETATM   17  C   UNL     1      -9.261   8.419  71.938  1.00  0.00    -0.238 C  
ENDROOT
BRANCH   8  18
HETATM   18  C   UNL     1     -11.143   7.213  68.814  1.00  0.00    -0.019 C  
BRANCH  18  19
HETATM   19  C   UNL     1     -10.505   5.943  68.363  1.00  0.00    -0.294 A  
HETATM   20  C   UNL     1     -10.112   4.407  66.556  1.00  0.00    -0.217 A  
HETATM   21  C   UNL     1      -9.514   3.529  67.451  1.00  0.00    -0.234 A  
HETATM   22  C   UNL     1      -9.878   5.069  69.250  1.00  0.00    -0.266 A  
HETATM   23  C   UNL     1      -9.392   3.841  68.816  1.00  0.00    -0.230 A  
HETATM   24  C   UNL     1     -10.602   5.617  67.007  1.00  0.00    -0.358 A  
ENDBRANCH  18  19
ENDBRANCH   8  18
BRANCH  13  25
HETATM   25  N   UNL     1      -8.661  11.162  69.435  1.00  0.00    -0.362 N  
HETATM   26  O   UNL     1     -10.911  11.559  68.909  1.00  0.00    -0.202 OA 
HETATM   27  C   UNL     1      -9.736  11.915  68.871  1.00  0.00     0.058 C  
HETATM   28  H   UNL     1      -7.755  11.599  69.603  1.00  0.00     0.000 HD 
BRANCH  27  29
HETATM   29  C   UNL     1      -9.287  13.207  68.161  1.00  0.00    -0.217 C  
HETATM   30  C   UNL     1      -8.897  14.570  68.944  1.00  0.00    -0.103 C  
HETATM   31  N   UNL     1      -7.525  15.643  68.262  1.00  0.00    -0.113 NA 
HETATM   32  C   UNL     1      -6.631  16.285  67.054  1.00  0.00    -0.158 C  
HETATM   33  C   UNL     1      -6.701  14.835  68.867  1.00  0.00    -0.098 C  
HETATM   34  C   UNL     1      -7.379  16.487  69.607  1.00  0.00     0.154 C  
HETATM   35  C   UNL     1      -8.888  17.185  68.715  1.00  0.00    -0.235 A  
HETATM   36  C   UNL     1      -9.929  18.003  69.080  1.00  0.00    -0.284 A  
HETATM   37  N   UNL     1     -10.935  17.882  68.109  1.00  0.00    -0.178 NA 
HETATM   38  H   UNL     1     -11.819  18.388  68.163  1.00  0.00     0.000 HD 
HETATM   39  C   UNL     1     -10.622  17.011  67.065  1.00  0.00    -0.226 A  
HETATM   40  C   UNL     1     -11.359  16.532  65.971  1.00  0.00     0.564 A  
HETATM   41  C   UNL     1     -10.791  15.520  65.143  1.00  0.00    -0.452 A  
HETATM   42  C   UNL     1      -9.560  14.880  65.395  1.00  0.00    -0.085 A  
HETATM   43  C   UNL     1      -8.835  15.246  66.522  1.00  0.00    -0.335 A  
HETATM   44  C   UNL     1      -9.373  16.493  67.326  1.00  0.00    -0.227 A  
HETATM   45  C   UNL     1      -7.504  14.161  67.272  1.00  0.00    -0.068 C  
HETATM   46  C   UNL     1      -7.992  12.924  67.466  1.00  0.00    -0.178 C  
ENDBRANCH  27  29
ENDBRANCH  13  25
TORSDOF 4
ENDMDL
MODEL       48
REMARK 921   NORMALIZED FREE ENERGY PREDICTED BY IDOCK:   -6.16 KCAL/MOL
REMARK 922        TOTAL FREE ENERGY PREDICTED BY IDOCK:   -8.47 KCAL/MOL
REMARK 923 INTER-LIGAND FREE ENERGY PREDICTED BY IDOCK:   -8.56 KCAL/MOL
REMARK 924 INTRA-LIGAND FREE ENERGY PREDICTED BY IDOCK:    0.10 KCAL/MOL
REMARK 927      BINDING AFFINITY PREDICTED BY RF-SCORE:    0.00 PKD
ROOT
HETATM    1  C   UNL     1      -9.791   9.379  68.262  1.00  0.00    -0.160 A  
HETATM    2  C   UNL     1      -8.997   8.070  68.127  1.00  0.00    -0.135 A  
HETATM    3  C   UNL     1      -9.802   7.063  69.029  1.00  0.00    -0.154 A  
HETATM    4  C   UNL     1     -10.865   7.900  69.730  1.00  0.00    -0.202 A  
HETATM    5  N   UNL     1     -10.380   9.251  69.560  1.00  0.00    -0.208 N  
HETATM    6  C   UNL     1     -11.093  10.276  70.093  1.00  0.00    -0.319 C  
HETATM    7  O   UNL     1     -11.449  10.252  71.270  1.00  0.00    -0.318 OA 
HETATM    8  C   UNL     1     -11.305  11.478  69.134  1.00  0.00    -0.351 C  
HETATM    9  O   UNL     1      -9.282  12.258  67.997  1.00  0.00    -0.182 OA 
HETATM   10  N   UNL     1     -10.939  11.154  67.527  1.00  0.00    -0.256 N  
HETATM   11  C   UNL     1     -10.740  12.101  66.478  1.00  0.00    -0.255 C  
HETATM   12  H   UNL     1      -8.729  11.443  66.037  1.00  0.00     0.000 HD 
HETATM   13  C   UNL     1     -10.286  13.308  67.209  1.00  0.00    -0.247 C  
HETATM   14  O   UNL     1     -10.907  11.943  65.279  1.00  0.00    -0.282 OA 
HETATM   15  O   UNL     1      -8.855  10.582  66.417  1.00  0.00    -0.147 OA 
HETATM   16  C   UNL     1     -11.848  13.699  67.199  1.00  0.00    -0.435 C  
HETATM   17  C   UNL     1      -9.575  10.856  67.611  1.00  0.00    -0.163 C  
ENDROOT
BRANCH   8  18
HETATM   18  C   UNL     1     -12.626  12.104  69.582  1.00  0.00     0.288 C  
BRANCH  18  19
HETATM   19  C   UNL     1     -12.484  13.128  70.656  1.00  0.00    -0.363 A  
HETATM   20  C   UNL     1     -13.338  14.038  72.711  1.00  0.00    -0.603 A  
HETATM   21  C   UNL     1     -12.424  15.080  72.613  1.00  0.00    -0.453 A  
HETATM   22  C   UNL     1     -11.550  14.162  70.579  1.00  0.00    -0.205 A  
HETATM   23  C   UNL     1     -11.518  15.164  71.541  1.00  0.00    -0.422 A  
HETATM   24  C   UNL     1     -13.365  13.057  71.738  1.00  0.00    -0.468 A  
ENDBRANCH  18  19
ENDBRANCH   8  18
BRANCH  13  25
HETATM   25  N   UNL     1      -9.597  14.558  66.946  1.00  0.00    -0.240 N  
HETATM   26  O   UNL     1      -7.480  13.693  67.463  1.00  0.00    -0.166 OA 
HETATM   27  C   UNL     1      -8.207  14.662  67.259  1.00  0.00    -0.212 C  
HETATM   28  H   UNL     1     -10.099  15.350  66.544  1.00  0.00     0.000 HD 
BRANCH  27  29
HETATM   29  C   UNL     1      -7.700  16.113  67.365  1.00  0.00    -0.187 C  
HETATM   30  C   UNL     1      -8.679  17.397  67.492  1.00  0.00    -0.221 C  
HETATM   31  N   UNL     1      -8.138  18.845  68.545  1.00  0.00    -0.338 NA 
HETATM   32  C   UNL     1      -7.023  19.848  69.195  1.00  0.00    -0.283 C  
HETATM   33  C   UNL     1      -8.582  18.166  69.564  1.00  0.00     0.701 C  
HETATM   34  C   UNL     1      -9.596  19.490  68.586  1.00  0.00    -0.411 C  
HETATM   35  C   UNL     1      -8.870  19.948  66.906  1.00  0.00    -0.419 A  
HETATM   36  C   UNL     1      -9.390  20.443  65.735  1.00  0.00     0.170 A  
HETATM   37  N   UNL     1      -8.442  20.241  64.721  1.00  0.00     0.420 NA 
HETATM   38  H   UNL     1      -8.600  20.517  63.752  1.00  0.00     0.000 HD 
HETATM   39  C   UNL     1      -7.263  19.630  65.152  1.00  0.00     0.129 A  
HETATM   40  C   UNL     1      -6.128  19.163  64.471  1.00  0.00    -0.234 A  
HETATM   41  C   UNL     1      -5.133  18.443  65.196  1.00  0.00    -0.204 A  
HETATM   42  C   UNL     1      -5.245  18.072  66.552  1.00  0.00    -0.183 A  
HETATM   43  C   UNL     1      -6.395  18.422  67.247  1.00  0.00    -0.192 A  
HETATM   44  C   UNL     1      -7.402  19.379  66.499  1.00  0.00    -0.251 A  
HETATM   45  C   UNL     1      -6.924  17.572  68.831  1.00  0.00    -0.252 C  
HETATM   46  C   UNL     1      -6.932  16.242  68.643  1.00  0.00    -0.148 C  
ENDBRANCH  27  29
ENDBRANCH  13  25
TORSDOF 4
ENDMDL
MODEL       49
REMARK 921   NORMALIZED FREE ENERGY PREDICTED BY IDOCK:   -6.09 KCAL/MOL
REMARK 922        TOTAL FREE ENERGY PREDICTED BY IDOCK:   -8.38 KCAL/MOL
REMARK 923 INTER-LIGAND FREE ENERGY PREDICTED BY IDOCK:   -7.55 KCAL/MOL
REMARK 924 INTRA-LIGAND FREE ENERGY PREDICTED BY IDOCK:   -0.83 KCAL/MOL
REMARK 927      BINDING AFFINITY PREDICTED BY RF-SCORE:    0.00 PKD
ROOT
HETATM    1  C   UNL     1     -10.438  11.505  64.885  1.00  0.00    -0.291 A  
HETATM    2  C   UNL     1     -10.804  11.561  63.393  1.00  0.00    -0.423 A  
HETATM    3  C   UNL     1     -11.569  12.928  63.259  1.00  0.00    -0.326 A  
HETATM    4  C   UNL     1     -11.730  13.450  64.682  1.00  0.00    -0.372 A  
HETATM    5  N   UNL     1     -11.480  12.277  65.488  1.00  0.00    -0.350 N  
HETATM    6  C   UNL     1     -11.562  12.380  66.840  1.00  0.00    -0.370 C  
HETATM    7  O   UNL     1     -12.547  12.885  67.375  1.00  0.00     0.007 OA 
HETATM    8  C   UNL     1     -10.383  11.723  67.607  1.00  0.00    -0.219 C  
HETATM    9  O   UNL     1      -9.829   9.449  66.890  1.00  0.00    -0.174 OA 
HETATM   10  N   UNL     1      -9.064  11.331  66.644  1.00  0.00    -0.174 N  
HETATM   11  C   UNL     1      -7.980  10.464  66.975  1.00  0.00    -0.116 C  
HETATM   12  H   UNL     1      -8.330   9.116  65.323  1.00  0.00     0.000 HD 
HETATM   13  C   UNL     1      -8.585   9.550  67.973  1.00  0.00    -0.120 C  
HETATM   14  O   UNL     1      -6.840  10.483  66.538  1.00  0.00    -0.098 OA 
HETATM   15  O   UNL     1      -8.800   9.761  64.809  1.00  0.00    -0.176 OA 
HETATM   16  C   UNL     1      -8.006  10.603  69.045  1.00  0.00    -0.140 C  
HETATM   17  C   UNL     1      -9.632  10.399  65.768  1.00  0.00    -0.216 C  
ENDROOT
BRANCH   8  18
HETATM   18  C   UNL     1     -10.265  12.528  68.901  1.00  0.00    -0.012 C  
BRANCH  18  19
HETATM   19  C   UNL     1     -11.317  12.221  69.911  1.00  0.00    -0.084 A  
HETATM   20  C   UNL     1     -12.730  13.040  71.675  1.00  0.00    -0.308 A  
HETATM   21  C   UNL     1     -13.142  11.738  71.931  1.00  0.00    -0.482 A  
HETATM   22  C   UNL     1     -11.757  10.920  70.154  1.00  0.00    -0.433 A  
HETATM   23  C   UNL     1     -12.658  10.653  71.179  1.00  0.00    -0.526 A  
HETATM   24  C   UNL     1     -11.824  13.285  70.661  1.00  0.00    -0.128 A  
ENDBRANCH  18  19
ENDBRANCH   8  18
BRANCH  13  25
HETATM   25  N   UNL     1      -8.332   8.251  68.569  1.00  0.00    -0.128 N  
HETATM   26  O   UNL     1     -10.223   8.331  69.952  1.00  0.00    -0.193 OA 
HETATM   27  C   UNL     1      -9.146   7.820  69.662  1.00  0.00    -0.146 C  
HETATM   28  H   UNL     1      -7.585   7.655  68.212  1.00  0.00     0.000 HD 
BRANCH  27  29
HETATM   29  C   UNL     1      -8.526   6.673  70.484  1.00  0.00    -0.138 C  
HETATM   30  C   UNL     1      -8.864   5.109  70.236  1.00  0.00    -0.144 C  
HETATM   31  N   UNL     1      -7.508   3.843  70.475  1.00  0.00    -0.041 NA 
HETATM   32  C   UNL     1      -6.156   3.261  71.185  1.00  0.00    -0.015 C  
HETATM   33  C   UNL     1      -7.123   4.147  69.268  1.00  0.00    -0.050 C  
HETATM   34  C   UNL     1      -8.311   2.691  69.719  1.00  0.00    -0.045 C  
HETATM   35  C   UNL     1      -9.049   2.791  71.453  1.00  0.00    -0.175 A  
HETATM   36  C   UNL     1     -10.192   2.308  72.042  1.00  0.00    -0.084 A  
HETATM   37  N   UNL     1     -10.382   3.000  73.248  1.00  0.00    -0.142 NA 
HETATM   38  H   UNL     1     -11.174   2.826  73.866  1.00  0.00     0.000 HD 
HETATM   39  C   UNL     1      -9.396   3.946  73.527  1.00  0.00    -0.103 A  
HETATM   40  C   UNL     1      -9.255   4.904  74.544  1.00  0.00    -0.120 A  
HETATM   41  C   UNL     1      -8.180   5.837  74.472  1.00  0.00    -0.109 A  
HETATM   42  C   UNL     1      -7.282   5.940  73.389  1.00  0.00    -0.086 A  
HETATM   43  C   UNL     1      -7.439   5.081  72.309  1.00  0.00    -0.093 A  
HETATM   44  C   UNL     1      -8.504   3.930  72.478  1.00  0.00    -0.100 A  
HETATM   45  C   UNL     1      -6.707   5.428  70.619  1.00  0.00    -0.044 C  
HETATM   46  C   UNL     1      -7.052   6.667  70.229  1.00  0.00    -0.072 C  
ENDBRANCH  27  29
ENDBRANCH  13  25
TORSDOF 4
ENDMDL
MODEL       50
REMARK 921   NORMALIZED FREE ENERGY PREDICTED BY IDOCK:   -6.09 KCAL/MOL
REMARK 922        TOTAL FREE ENERGY PREDICTED BY IDOCK:   -8.38 KCAL/MOL
REMARK 923 INTER-LIGAND FREE ENERGY PREDICTED BY IDOCK:   -7.72 KCAL/MOL
REMARK 924 INTRA-LIGAND FREE ENERGY PREDICTED BY IDOCK:   -0.66 KCAL/MOL
REMARK 927      BINDING AFFINITY PREDICTED BY RF-SCORE:    0.00 PKD
ROOT
HETATM    1  C   UNL     1      -7.430   8.589  63.980  1.00  0.00    -0.116 A  
HETATM    2  C   UNL     1      -6.393   8.127  62.945  1.00  0.00    -0.085 A  
HETATM    3  C   UNL     1      -6.614   6.571  62.879  1.00  0.00    -0.038 A  
HETATM    4  C   UNL     1      -7.615   6.252  63.982  1.00  0.00    -0.098 A  
HETATM    5  N   UNL     1      -7.571   7.434  64.813  1.00  0.00    -0.096 N  
HETATM    6  C   UNL     1      -8.347   7.483  65.926  1.00  0.00    -0.139 C  
HETATM    7  O   UNL     1      -8.334   6.564  66.744  1.00  0.00    -0.109 OA 
HETATM    8  C   UNL     1      -9.131   8.810  66.106  1.00  0.00    -0.251 C  
HETATM    9  O   UNL     1      -7.793  10.842  65.827  1.00  0.00    -0.156 OA 
HETATM   10  N   UNL     1      -9.165   9.784  64.738  1.00  0.00    -0.250 N  
HETATM   11  C   UNL     1      -9.528  11.163  64.667  1.00  0.00    -0.213 C  
HETATM   12  H   UNL     1      -7.626  11.797  63.859  1.00  0.00     0.000 HD 
HETATM   13  C   UNL     1      -9.218  11.653  66.031  1.00  0.00    -0.208 C  
HETATM   14  O   UNL     1      -9.980  11.774  63.712  1.00  0.00    -0.315 OA 
HETATM   15  O   UNL     1      -7.408  10.937  63.518  1.00  0.00     0.223 OA 
HETATM   16  C   UNL     1     -10.764  11.311  66.325  1.00  0.00    -0.312 C  
HETATM   17  C   UNL     1      -7.804  10.062  64.565  1.00  0.00    -0.145 C  
ENDROOT
BRANCH   8  18
HETATM   18  C   UNL     1     -10.385   8.418  66.885  1.00  0.00    -0.378 C  
BRANCH  18  19
HETATM   19  C   UNL     1     -10.276   8.615  68.359  1.00  0.00    -0.232 A  
HETATM   20  C   UNL     1      -9.051   9.585  70.186  1.00  0.00    -0.276 A  
HETATM   21  C   UNL     1      -9.873   8.907  71.078  1.00  0.00    -0.321 A  
HETATM   22  C   UNL     1     -11.115   7.959  69.261  1.00  0.00     0.114 A  
HETATM   23  C   UNL     1     -10.915   8.076  70.632  1.00  0.00    -0.250 A  
HETATM   24  C   UNL     1      -9.255   9.446  68.827  1.00  0.00    -0.132 A  
ENDBRANCH  18  19
ENDBRANCH   8  18
BRANCH  13  25
HETATM   25  N   UNL     1      -8.986  12.908  66.722  1.00  0.00    -0.317 N  
HETATM   26  O   UNL     1     -10.024  14.203  65.066  1.00  0.00    -0.336 OA 
HETATM   27  C   UNL     1      -9.304  14.133  66.059  1.00  0.00    -0.075 C  
HETATM   28  H   UNL     1      -8.602  12.915  67.667  1.00  0.00     0.000 HD 
BRANCH  27  29
HETATM   29  C   UNL     1      -8.621  15.369  66.674  1.00  0.00    -0.318 C  
HETATM   30  C   UNL     1      -9.425  16.694  67.148  1.00  0.00    -0.236 C  
HETATM   31  N   UNL     1      -8.825  17.623  68.656  1.00  0.00    -0.283 NA 
HETATM   32  C   UNL     1      -7.672  18.166  69.680  1.00  0.00     0.642 C  
HETATM   33  C   UNL     1      -9.480  16.743  69.359  1.00  0.00     0.022 C  
HETATM   34  C   UNL     1     -10.175  18.459  68.803  1.00  0.00    -0.302 C  
HETATM   35  C   UNL     1      -9.192  19.293  67.425  1.00  0.00    -0.356 A  
HETATM   36  C   UNL     1      -9.492  20.212  66.449  1.00  0.00    -0.362 A  
HETATM   37  N   UNL     1      -8.462  20.182  65.497  1.00  0.00    -0.442 NA 
HETATM   38  H   UNL     1      -8.461  20.772  64.665  1.00  0.00     0.000 HD 
HETATM   39  C   UNL     1      -7.440  19.277  65.785  1.00  0.00    -0.204 A  
HETATM   40  C   UNL     1      -6.304  18.864  65.072  1.00  0.00    -0.267 A  
HETATM   41  C   UNL     1      -5.514  17.795  65.588  1.00  0.00    -0.141 A  
HETATM   42  C   UNL     1      -5.841  17.040  66.733  1.00  0.00    -0.217 A  
HETATM   43  C   UNL     1      -7.010  17.343  67.420  1.00  0.00    -0.186 A  
HETATM   44  C   UNL     1      -7.777  18.642  66.960  1.00  0.00    -0.237 A  
HETATM   45  C   UNL     1      -7.840  16.139  68.591  1.00  0.00    -0.188 C  
HETATM   46  C   UNL     1      -8.006  14.957  67.974  1.00  0.00    -0.132 C  
ENDBRANCH  27  29
ENDBRANCH  13  25
TORSDOF 4
ENDMDL
MODEL       51
REMARK 921   NORMALIZED FREE ENERGY PREDICTED BY IDOCK:   -6.06 KCAL/MOL
REMARK 922        TOTAL FREE ENERGY PREDICTED BY IDOCK:   -8.34 KCAL/MOL
REMARK 923 INTER-LIGAND FREE ENERGY PREDICTED BY IDOCK:   -7.32 KCAL/MOL
REMARK 924 INTRA-LIGAND FREE ENERGY PREDICTED BY IDOCK:   -1.02 KCAL/MOL
REMARK 927      BINDING AFFINITY PREDICTED BY RF-SCORE:    0.00 PKD
ROOT
HETATM    1  C   UNL     1     -11.211  10.703  70.046  1.00  0.00    -0.309 A  
HETATM    2  C   UNL     1     -12.025  11.856  69.438  1.00  0.00    -0.350 A  
HETATM    3  C   UNL     1     -12.911  12.349  70.641  1.00  0.00    -0.011 A  
HETATM    4  C   UNL     1     -12.667  11.351  71.767  1.00  0.00    -0.254 A  
HETATM    5  N   UNL     1     -12.078  10.224  71.079  1.00  0.00    -0.353 N  
HETATM    6  C   UNL     1     -11.745   9.119  71.795  1.00  0.00    -0.386 C  
HETATM    7  O   UNL     1     -12.556   8.593  72.555  1.00  0.00    -0.392 OA 
HETATM    8  C   UNL     1     -10.334   8.553  71.483  1.00  0.00    -0.321 C  
HETATM    9  O   UNL     1      -9.834   8.289  69.101  1.00  0.00    -0.172 OA 
HETATM   10  N   UNL     1      -9.350   9.591  70.604  1.00  0.00    -0.245 N  
HETATM   11  C   UNL     1      -8.145   9.262  69.913  1.00  0.00    -0.124 C  
HETATM   12  H   UNL     1      -8.872   9.915  67.985  1.00  0.00     0.000 HD 
HETATM   13  C   UNL     1      -8.329   7.825  69.601  1.00  0.00    -0.129 C  
HETATM   14  O   UNL     1      -7.203   9.994  69.651  1.00  0.00    -0.087 OA 
HETATM   15  O   UNL     1      -9.533  10.489  68.353  1.00  0.00    -0.147 OA 
HETATM   16  C   UNL     1      -7.540   7.593  70.986  1.00  0.00    -0.083 C  
HETATM   17  C   UNL     1     -10.078   9.719  69.415  1.00  0.00    -0.209 C  
ENDROOT
BRANCH   8  18
HETATM   18  C   UNL     1      -9.891   7.878  72.781  1.00  0.00    -0.335 C  
BRANCH  18  19
HETATM   19  C   UNL     1     -10.176   6.416  72.839  1.00  0.00    -0.209 A  
HETATM   20  C   UNL     1     -10.540   4.477  74.213  1.00  0.00    -0.316 A  
HETATM   21  C   UNL     1     -10.534   3.685  73.072  1.00  0.00    -0.253 A  
HETATM   22  C   UNL     1     -10.200   5.617  71.695  1.00  0.00    -0.261 A  
HETATM   23  C   UNL     1     -10.357   4.239  71.793  1.00  0.00    -0.110 A  
HETATM   24  C   UNL     1     -10.368   5.844  74.099  1.00  0.00    -0.295 A  
ENDBRANCH  18  19
ENDBRANCH   8  18
BRANCH  13  25
HETATM   25  N   UNL     1      -7.792   6.817  68.705  1.00  0.00    -0.110 N  
HETATM   26  O   UNL     1      -7.219   8.364  67.039  1.00  0.00    -0.078 OA 
HETATM   27  C   UNL     1      -7.404   7.200  67.384  1.00  0.00    -0.092 C  
HETATM   28  H   UNL     1      -7.693   5.850  69.015  1.00  0.00     0.000 HD 
BRANCH  27  29
HETATM   29  C   UNL     1      -7.282   6.017  66.404  1.00  0.00    -0.076 C  
HETATM   30  C   UNL     1      -8.061   5.945  64.986  1.00  0.00    -0.132 C  
HETATM   31  N   UNL     1      -7.212   5.137  63.528  1.00  0.00    -0.048 NA 
HETATM   32  C   UNL     1      -6.209   4.048  62.837  1.00  0.00    -0.018 C  
HETATM   33  C   UNL     1      -6.606   6.277  63.353  1.00  0.00    -0.040 C  
HETATM   34  C   UNL     1      -8.238   5.740  62.467  1.00  0.00    -0.102 C  
HETATM   35  C   UNL     1      -9.113   4.269  63.261  1.00  0.00    -0.134 A  
HETATM   36  C   UNL     1     -10.413   3.826  63.297  1.00  0.00    -0.221 A  
HETATM   37  N   UNL     1     -10.522   2.888  64.333  1.00  0.00    -0.406 NA 
HETATM   38  H   UNL     1     -11.398   2.420  64.567  1.00  0.00     0.000 HD 
HETATM   39  C   UNL     1      -9.330   2.650  65.019  1.00  0.00    -0.115 A  
HETATM   40  C   UNL     1      -9.021   1.887  66.155  1.00  0.00    -0.097 A  
HETATM   41  C   UNL     1      -7.706   1.961  66.703  1.00  0.00    -0.066 A  
HETATM   42  C   UNL     1      -6.697   2.831  66.241  1.00  0.00    -0.043 A  
HETATM   43  C   UNL     1      -6.982   3.681  65.180  1.00  0.00    -0.057 A  
HETATM   44  C   UNL     1      -8.368   3.460  64.459  1.00  0.00    -0.093 A  
HETATM   45  C   UNL     1      -5.977   5.219  64.811  1.00  0.00    -0.022 C  
HETATM   46  C   UNL     1      -5.865   5.958  65.928  1.00  0.00    -0.024 C  
ENDBRANCH  27  29
ENDBRANCH  13  25
TORSDOF 4
ENDMDL
MODEL       52
REMARK 921   NORMALIZED FREE ENERGY PREDICTED BY IDOCK:   -6.05 KCAL/MOL
REMARK 922        TOTAL FREE ENERGY PREDICTED BY IDOCK:   -8.33 KCAL/MOL
REMARK 923 INTER-LIGAND FREE ENERGY PREDICTED BY IDOCK:   -7.73 KCAL/MOL
REMARK 924 INTRA-LIGAND FREE ENERGY PREDICTED BY IDOCK:   -0.60 KCAL/MOL
REMARK 927      BINDING AFFINITY PREDICTED BY RF-SCORE:    0.00 PKD
ROOT
HETATM    1  C   UNL     1      -7.219   6.435  70.748  1.00  0.00    -0.074 A  
HETATM    2  C   UNL     1      -6.301   6.457  71.980  1.00  0.00    -0.046 A  
HETATM    3  C   UNL     1      -6.299   4.958  72.457  1.00  0.00    -0.034 A  
HETATM    4  C   UNL     1      -7.330   4.249  71.586  1.00  0.00    -0.056 A  
HETATM    5  N   UNL     1      -8.097   5.343  71.035  1.00  0.00    -0.111 N  
HETATM    6  C   UNL     1      -9.137   5.064  70.209  1.00  0.00    -0.121 C  
HETATM    7  O   UNL     1     -10.001   4.251  70.534  1.00  0.00    -0.209 OA 
HETATM    8  C   UNL     1      -9.179   5.923  68.917  1.00  0.00    -0.126 C  
HETATM    9  O   UNL     1      -8.907   8.330  69.271  1.00  0.00    -0.141 OA 
HETATM   10  N   UNL     1      -7.764   6.770  68.602  1.00  0.00    -0.111 N  
HETATM   11  C   UNL     1      -7.589   7.855  67.691  1.00  0.00    -0.109 C  
HETATM   12  H   UNL     1      -6.912   9.240  69.205  1.00  0.00     0.000 HD 
HETATM   13  C   UNL     1      -8.947   8.446  67.623  1.00  0.00    -0.135 C  
HETATM   14  O   UNL     1      -6.569   8.199  67.116  1.00  0.00    -0.056 OA 
HETATM   15  O   UNL     1      -6.636   8.556  69.804  1.00  0.00    -0.038 OA 
HETATM   16  C   UNL     1      -9.127   7.472  66.354  1.00  0.00    -0.210 C  
HETATM   17  C   UNL     1      -7.691   7.608  69.721  1.00  0.00    -0.098 C  
ENDROOT
BRANCH   8  18
HETATM   18  C   UNL     1      -9.870   5.035  67.882  1.00  0.00    -0.200 C  
BRANCH  18  19
HETATM   19  C   UNL     1      -8.981   4.011  67.263  1.00  0.00    -0.148 A  
HETATM   20  C   UNL     1      -7.419   3.478  65.514  1.00  0.00    -0.077 A  
HETATM   21  C   UNL     1      -7.430   2.152  65.929  1.00  0.00    -0.067 A  
HETATM   22  C   UNL     1      -8.965   2.684  67.690  1.00  0.00    -0.194 A  
HETATM   23  C   UNL     1      -8.209   1.729  67.020  1.00  0.00    -0.076 A  
HETATM   24  C   UNL     1      -8.188   4.411  66.184  1.00  0.00    -0.102 A  
ENDBRANCH  18  19
ENDBRANCH   8  18
BRANCH  13  25
HETATM   25  N   UNL     1      -9.587   9.685  67.224  1.00  0.00    -0.159 N  
HETATM   26  O   UNL     1      -7.841  11.036  68.013  1.00  0.00    -0.105 OA 
HETATM   27  C   UNL     1      -8.997  10.927  67.614  1.00  0.00    -0.140 C  
HETATM   28  H   UNL     1     -10.445   9.670  66.672  1.00  0.00     0.000 HD 
BRANCH  27  29
HETATM   29  C   UNL     1      -9.962  12.126  67.535  1.00  0.00    -0.202 C  
HETATM   30  C   UNL     1      -9.780  13.354  66.494  1.00  0.00    -0.284 C  
HETATM   31  N   UNL     1     -11.307  14.153  65.765  1.00  0.00    -0.312 NA 
HETATM   32  C   UNL     1     -12.865  14.644  65.807  1.00  0.00     0.112 C  
HETATM   33  C   UNL     1     -11.309  13.174  64.905  1.00  0.00    -0.309 C  
HETATM   34  C   UNL     1     -10.490  14.902  64.617  1.00  0.00    -0.111 C  
HETATM   35  C   UNL     1     -10.239  15.920  66.186  1.00  0.00    -0.340 A  
HETATM   36  C   UNL     1      -9.372  16.917  66.557  1.00  0.00    -0.270 A  
HETATM   37  N   UNL     1      -9.422  17.037  67.954  1.00  0.00    -0.241 NA 
HETATM   38  H   UNL     1      -8.856  17.707  68.473  1.00  0.00     0.000 HD 
HETATM   39  C   UNL     1     -10.312  16.158  68.572  1.00  0.00    -0.254 A  
HETATM   40  C   UNL     1     -10.592  15.877  69.919  1.00  0.00    -0.327 A  
HETATM   41  C   UNL     1     -11.475  14.801  70.232  1.00  0.00    -0.309 A  
HETATM   42  C   UNL     1     -12.026  13.918  69.282  1.00  0.00    -0.402 A  
HETATM   43  C   UNL     1     -11.701  14.090  67.942  1.00  0.00    -0.397 A  
HETATM   44  C   UNL     1     -10.883  15.390  67.582  1.00  0.00    -0.304 A  
HETATM   45  C   UNL     1     -11.899  12.733  66.665  1.00  0.00    -0.462 C  
HETATM   46  C   UNL     1     -11.300  11.614  67.106  1.00  0.00    -0.373 C  
ENDBRANCH  27  29
ENDBRANCH  13  25
TORSDOF 4
ENDMDL
MODEL       53
REMARK 921   NORMALIZED FREE ENERGY PREDICTED BY IDOCK:   -6.05 KCAL/MOL
REMARK 922        TOTAL FREE ENERGY PREDICTED BY IDOCK:   -8.32 KCAL/MOL
REMARK 923 INTER-LIGAND FREE ENERGY PREDICTED BY IDOCK:   -7.82 KCAL/MOL
REMARK 924 INTRA-LIGAND FREE ENERGY PREDICTED BY IDOCK:   -0.50 KCAL/MOL
REMARK 927      BINDING AFFINITY PREDICTED BY RF-SCORE:    0.00 PKD
ROOT
HETATM    1  C   UNL     1      -6.572  17.760  67.775  1.00  0.00    -0.187 A  
HETATM    2  C   UNL     1      -5.337  18.675  67.748  1.00  0.00    -0.168 A  
HETATM    3  C   UNL     1      -5.949  20.103  67.505  1.00  0.00    -0.212 A  
HETATM    4  C   UNL     1      -7.433  19.875  67.243  1.00  0.00    -0.262 A  
HETATM    5  N   UNL     1      -7.496  18.464  66.939  1.00  0.00    -0.210 N  
HETATM    6  C   UNL     1      -8.697  17.912  66.630  1.00  0.00    -0.262 C  
HETATM    7  O   UNL     1      -9.421  18.417  65.774  1.00  0.00    -0.452 OA 
HETATM    8  C   UNL     1      -8.997  16.576  67.360  1.00  0.00    -0.207 C  
HETATM    9  O   UNL     1      -7.185  14.932  67.283  1.00  0.00    -0.194 OA 
HETATM   10  N   UNL     1      -7.969  16.243  68.645  1.00  0.00    -0.201 N  
HETATM   11  C   UNL     1      -7.788  14.991  69.306  1.00  0.00    -0.190 C  
HETATM   12  H   UNL     1      -5.674  14.875  68.873  1.00  0.00     0.000 HD 
HETATM   13  C   UNL     1      -8.153  14.011  68.255  1.00  0.00    -0.148 C  
HETATM   14  O   UNL     1      -7.424  14.790  70.454  1.00  0.00     0.237 OA 
HETATM   15  O   UNL     1      -5.580  15.811  68.747  1.00  0.00    -0.098 OA 
HETATM   16  C   UNL     1      -9.618  14.094  68.918  1.00  0.00    -0.053 C  
HETATM   17  C   UNL     1      -6.734  16.155  67.993  1.00  0.00    -0.131 C  
ENDROOT
BRANCH   8  18
HETATM   18  C   UNL     1     -10.521  16.528  67.473  1.00  0.00    -0.310 C  
BRANCH  18  19
HETATM   19  C   UNL     1     -11.157  15.426  66.697  1.00  0.00    -0.236 A  
HETATM   20  C   UNL     1     -11.588  14.455  64.540  1.00  0.00    -0.393 A  
HETATM   21  C   UNL     1     -12.434  13.532  65.140  1.00  0.00    -0.495 A  
HETATM   22  C   UNL     1     -11.986  14.477  67.296  1.00  0.00    -0.375 A  
HETATM   23  C   UNL     1     -12.654  13.530  66.529  1.00  0.00    -0.181 A  
HETATM   24  C   UNL     1     -10.943  15.399  65.317  1.00  0.00    -0.397 A  
ENDBRANCH  18  19
ENDBRANCH   8  18
BRANCH  13  25
HETATM   25  N   UNL     1      -7.971  12.603  67.954  1.00  0.00    -0.142 N  
HETATM   26  O   UNL     1      -9.299  12.672  66.024  1.00  0.00    -0.186 OA 
HETATM   27  C   UNL     1      -8.724  12.018  66.890  1.00  0.00    -0.193 C  
HETATM   28  H   UNL     1      -7.314  12.040  68.494  1.00  0.00     0.000 HD 
BRANCH  27  29
HETATM   29  C   UNL     1      -8.794  10.480  66.948  1.00  0.00    -0.143 C  
HETATM   30  C   UNL     1      -8.395   9.615  68.258  1.00  0.00    -0.117 C  
HETATM   31  N   UNL     1      -9.356   8.056  68.638  1.00  0.00    -0.146 NA 
HETATM   32  C   UNL     1     -10.203   6.720  68.226  1.00  0.00    -0.175 C  
HETATM   33  C   UNL     1     -10.244   8.834  69.189  1.00  0.00    -0.207 C  
HETATM   34  C   UNL     1      -8.801   7.956  70.130  1.00  0.00    -0.144 C  
HETATM   35  C   UNL     1      -7.427   7.296  69.017  1.00  0.00    -0.097 A  
HETATM   36  C   UNL     1      -6.092   7.028  69.192  1.00  0.00    -0.026 A  
HETATM   37  N   UNL     1      -5.506   6.901  67.924  1.00  0.00    -0.015 NA 
HETATM   38  H   UNL     1      -4.513   6.709  67.790  1.00  0.00     0.000 HD 
HETATM   39  C   UNL     1      -6.398   7.059  66.863  1.00  0.00    -0.052 A  
HETATM   40  C   UNL     1      -6.222   7.111  65.471  1.00  0.00    -0.037 A  
HETATM   41  C   UNL     1      -7.338   7.432  64.644  1.00  0.00    -0.082 A  
HETATM   42  C   UNL     1      -8.611   7.802  65.128  1.00  0.00    -0.023 A  
HETATM   43  C   UNL     1      -8.811   7.864  66.501  1.00  0.00    -0.175 A  
HETATM   44  C   UNL     1      -7.635   7.326  67.405  1.00  0.00    -0.105 A  
HETATM   45  C   UNL     1     -10.217   8.825  67.281  1.00  0.00    -0.332 C  
HETATM   46  C   UNL     1     -10.227  10.077  66.794  1.00  0.00    -0.295 C  
ENDBRANCH  27  29
ENDBRANCH  13  25
TORSDOF 4
ENDMDL
MODEL       54
REMARK 921   NORMALIZED FREE ENERGY PREDICTED BY IDOCK:   -6.01 KCAL/MOL
REMARK 922        TOTAL FREE ENERGY PREDICTED BY IDOCK:   -8.27 KCAL/MOL
REMARK 923 INTER-LIGAND FREE ENERGY PREDICTED BY IDOCK:   -8.35 KCAL/MOL
REMARK 924 INTRA-LIGAND FREE ENERGY PREDICTED BY IDOCK:    0.08 KCAL/MOL
REMARK 927      BINDING AFFINITY PREDICTED BY RF-SCORE:    0.00 PKD
ROOT
HETATM    1  C   UNL     1     -11.811  13.734  69.602  1.00  0.00    -0.333 A  
HETATM    2  C   UNL     1     -12.989  13.956  70.565  1.00  0.00    -0.160 A  
HETATM    3  C   UNL     1     -12.950  15.505  70.833  1.00  0.00    -0.526 A  
HETATM    4  C   UNL     1     -11.679  16.007  70.158  1.00  0.00    -0.281 A  
HETATM    5  N   UNL     1     -10.919  14.795  69.954  1.00  0.00    -0.232 N  
HETATM    6  C   UNL     1      -9.692  14.878  69.378  1.00  0.00    -0.091 C  
HETATM    7  O   UNL     1      -8.851  15.670  69.798  1.00  0.00    -0.208 OA 
HETATM    8  C   UNL     1      -9.438  13.838  68.255  1.00  0.00    -0.214 C  
HETATM    9  O   UNL     1     -10.027  11.533  68.833  1.00  0.00    -0.187 OA 
HETATM   10  N   UNL     1     -10.820  13.051  67.714  1.00  0.00    -0.235 N  
HETATM   11  C   UNL     1     -10.886  11.859  66.933  1.00  0.00    -0.263 C  
HETATM   12  H   UNL     1     -12.033  10.760  68.398  1.00  0.00     0.000 HD 
HETATM   13  C   UNL     1      -9.617  11.174  67.273  1.00  0.00    -0.165 C  
HETATM   14  O   UNL     1     -11.775  11.504  66.174  1.00  0.00    -0.346 OA 
HETATM   15  O   UNL     1     -12.370  11.542  68.820  1.00  0.00    -0.425 OA 
HETATM   16  C   UNL     1      -9.049  11.936  65.974  1.00  0.00    -0.120 C  
HETATM   17  C   UNL     1     -11.235  12.394  68.878  1.00  0.00    -0.280 C  
ENDROOT
BRANCH   8  18
HETATM   18  C   UNL     1      -8.440  14.515  67.316  1.00  0.00    -0.234 C  
BRANCH  18  19
HETATM   19  C   UNL     1      -8.838  15.885  66.885  1.00  0.00    -0.264 A  
HETATM   20  C   UNL     1      -8.174  18.168  66.527  1.00  0.00    -0.292 A  
HETATM   21  C   UNL     1      -9.499  18.498  66.269  1.00  0.00    -0.256 A  
HETATM   22  C   UNL     1     -10.161  16.219  66.596  1.00  0.00    -0.287 A  
HETATM   23  C   UNL     1     -10.518  17.530  66.305  1.00  0.00    -0.283 A  
HETATM   24  C   UNL     1      -7.840  16.862  66.828  1.00  0.00    -0.279 A  
ENDBRANCH  18  19
ENDBRANCH   8  18
BRANCH  13  25
HETATM   25  N   UNL     1      -9.030   9.849  67.202  1.00  0.00    -0.138 N  
HETATM   26  O   UNL     1      -9.695   9.491  64.983  1.00  0.00    -0.248 OA 
HETATM   27  C   UNL     1      -9.271   9.045  66.045  1.00  0.00    -0.226 C  
HETATM   28  H   UNL     1      -8.453   9.497  67.967  1.00  0.00     0.000 HD 
BRANCH  27  29
HETATM   29  C   UNL     1      -8.994   7.545  66.261  1.00  0.00    -0.199 C  
HETATM   30  C   UNL     1      -7.508   6.901  66.270  1.00  0.00    -0.077 C  
HETATM   31  N   UNL     1      -7.149   5.475  67.427  1.00  0.00    -0.072 NA 
HETATM   32  C   UNL     1      -7.551   4.129  68.262  1.00  0.00    -0.067 C  
HETATM   33  C   UNL     1      -6.970   6.376  68.351  1.00  0.00    -0.080 C  
HETATM   34  C   UNL     1      -5.568   5.609  67.264  1.00  0.00    -0.012 C  
HETATM   35  C   UNL     1      -6.177   4.705  65.723  1.00  0.00    -0.031 A  
HETATM   36  C   UNL     1      -5.628   4.411  64.500  1.00  0.00    -0.014 A  
HETATM   37  N   UNL     1      -6.669   4.041  63.636  1.00  0.00    -0.042 NA 
HETATM   38  H   UNL     1      -6.514   3.784  62.661  1.00  0.00     0.000 HD 
HETATM   39  C   UNL     1      -7.934   4.055  64.224  1.00  0.00    -0.086 A  
HETATM   40  C   UNL     1      -9.225   3.859  63.711  1.00  0.00    -0.129 A  
HETATM   41  C   UNL     1     -10.349   4.082  64.559  1.00  0.00    -0.221 A  
HETATM   42  C   UNL     1     -10.269   4.587  65.874  1.00  0.00    -0.289 A  
HETATM   43  C   UNL     1      -9.019   4.894  66.396  1.00  0.00    -0.117 A  
HETATM   44  C   UNL     1      -7.774   4.466  65.528  1.00  0.00    -0.086 A  
HETATM   45  C   UNL     1      -8.783   6.038  67.861  1.00  0.00    -0.112 C  
HETATM   46  C   UNL     1      -9.444   7.187  67.643  1.00  0.00    -0.141 C  
ENDBRANCH  27  29
ENDBRANCH  13  25
TORSDOF 4
ENDMDL
MODEL       55
REMARK 921   NORMALIZED FREE ENERGY PREDICTED BY IDOCK:   -5.96 KCAL/MOL
REMARK 922        TOTAL FREE ENERGY PREDICTED BY IDOCK:   -8.22 KCAL/MOL
REMARK 923 INTER-LIGAND FREE ENERGY PREDICTED BY IDOCK:   -7.35 KCAL/MOL
REMARK 924 INTRA-LIGAND FREE ENERGY PREDICTED BY IDOCK:   -0.87 KCAL/MOL
REMARK 927      BINDING AFFINITY PREDICTED BY RF-SCORE:    0.00 PKD
ROOT
HETATM    1  C   UNL     1     -11.119  12.877  64.543  1.00  0.00    -0.342 A  
HETATM    2  C   UNL     1     -12.043  13.649  63.587  1.00  0.00    -0.397 A  
HETATM    3  C   UNL     1     -12.186  15.055  64.279  1.00  0.00    -0.312 A  
HETATM    4  C   UNL     1     -11.493  14.920  65.629  1.00  0.00    -0.290 A  
HETATM    5  N   UNL     1     -11.399  13.489  65.805  1.00  0.00    -0.303 N  
HETATM    6  C   UNL     1     -10.837  13.003  66.942  1.00  0.00    -0.264 C  
HETATM    7  O   UNL     1     -11.205  13.399  68.046  1.00  0.00    -0.246 OA 
HETATM    8  C   UNL     1      -9.805  11.867  66.713  1.00  0.00    -0.214 C  
HETATM    9  O   UNL     1     -10.559  10.076  65.222  1.00  0.00    -0.015 OA 
HETATM   10  N   UNL     1      -9.308  11.693  65.118  1.00  0.00    -0.126 N  
HETATM   11  C   UNL     1      -8.625  10.581  64.541  1.00  0.00    -0.159 C  
HETATM   12  H   UNL     1     -10.156  10.186  63.068  1.00  0.00     0.000 HD 
HETATM   13  C   UNL     1      -9.039   9.455  65.412  1.00  0.00    -0.226 C  
HETATM   14  O   UNL     1      -7.884  10.573  63.571  1.00  0.00    -0.118 OA 
HETATM   15  O   UNL     1     -10.508  11.068  63.100  1.00  0.00    -0.299 OA 
HETATM   16  C   UNL     1      -7.691   9.802  66.222  1.00  0.00    -0.103 C  
HETATM   17  C   UNL     1     -10.515  11.366  64.489  1.00  0.00    -0.322 C  
ENDROOT
BRANCH   8  18
HETATM   18  C   UNL     1      -8.831  11.984  67.885  1.00  0.00    -0.174 C  
BRANCH  18  19
HETATM   19  C   UNL     1      -8.970  10.908  68.907  1.00  0.00    -0.146 A  
HETATM   20  C   UNL     1     -10.446   9.453  70.126  1.00  0.00    -0.280 A  
HETATM   21  C   UNL     1      -9.371   9.036  70.901  1.00  0.00    -0.326 A  
HETATM   22  C   UNL     1      -7.891  10.463  69.670  1.00  0.00    -0.138 A  
HETATM   23  C   UNL     1      -8.075   9.538  70.691  1.00  0.00    -0.152 A  
HETATM   24  C   UNL     1     -10.247  10.384  69.124  1.00  0.00    -0.239 A  
ENDBRANCH  18  19
ENDBRANCH   8  18
BRANCH  13  25
HETATM   25  N   UNL     1      -9.084   8.005  65.387  1.00  0.00    -0.396 N  
HETATM   26  O   UNL     1     -10.688   7.858  67.090  1.00  0.00    -0.326 OA 
HETATM   27  C   UNL     1      -9.841   7.317  66.386  1.00  0.00    -0.054 C  
HETATM   28  H   UNL     1      -8.584   7.485  64.666  1.00  0.00     0.000 HD 
BRANCH  27  29
HETATM   29  C   UNL     1      -9.465   5.831  66.537  1.00  0.00    -0.168 C  
HETATM   30  C   UNL     1      -8.330   5.294  67.560  1.00  0.00    -0.106 C  
HETATM   31  N   UNL     1      -8.581   3.642  68.402  1.00  0.00    -0.091 NA 
HETATM   32  C   UNL     1      -9.132   2.106  68.479  1.00  0.00    -0.156 C  
HETATM   33  C   UNL     1      -9.320   4.285  69.261  1.00  0.00    -0.162 C  
HETATM   34  C   UNL     1      -7.438   3.906  69.483  1.00  0.00    -0.053 C  
HETATM   35  C   UNL     1      -6.550   3.394  67.899  1.00  0.00    -0.038 A  
HETATM   36  C   UNL     1      -5.250   3.456  67.461  1.00  0.00    -0.008 A  
HETATM   37  N   UNL     1      -5.251   3.260  66.072  1.00  0.00    -0.008 NA 
HETATM   38  H   UNL     1      -4.400   3.272  65.510  1.00  0.00     0.000 HD 
HETATM   39  C   UNL     1      -6.517   3.048  65.524  1.00  0.00    -0.032 A  
HETATM   40  C   UNL     1      -6.974   2.916  64.204  1.00  0.00    -0.041 A  
HETATM   41  C   UNL     1      -8.377   2.848  63.960  1.00  0.00    -0.086 A  
HETATM   42  C   UNL     1      -9.368   3.002  64.951  1.00  0.00    -0.147 A  
HETATM   43  C   UNL     1      -8.971   3.237  66.262  1.00  0.00    -0.151 A  
HETATM   44  C   UNL     1      -7.426   3.120  66.556  1.00  0.00    -0.076 A  
HETATM   45  C   UNL     1     -10.110   3.978  67.551  1.00  0.00     0.147 C  
HETATM   46  C   UNL     1     -10.661   5.104  67.068  1.00  0.00    -0.201 C  
ENDBRANCH  27  29
ENDBRANCH  13  25
TORSDOF 4
ENDMDL
MODEL       56
REMARK 921   NORMALIZED FREE ENERGY PREDICTED BY IDOCK:   -5.82 KCAL/MOL
REMARK 922        TOTAL FREE ENERGY PREDICTED BY IDOCK:   -8.05 KCAL/MOL
REMARK 923 INTER-LIGAND FREE ENERGY PREDICTED BY IDOCK:   -7.69 KCAL/MOL
REMARK 924 INTRA-LIGAND FREE ENERGY PREDICTED BY IDOCK:   -0.36 KCAL/MOL
REMARK 927      BINDING AFFINITY PREDICTED BY RF-SCORE:    0.00 PKD
ROOT
HETATM    1  C   UNL     1      -9.069   4.980  68.772  1.00  0.00    -0.109 A  
HETATM    2  C   UNL     1      -9.363   4.240  70.086  1.00  0.00    -0.228 A  
HETATM    3  C   UNL     1      -9.189   2.726  69.697  1.00  0.00    -0.206 A  
HETATM    4  C   UNL     1      -8.986   2.711  68.187  1.00  0.00    -0.155 A  
HETATM    5  N   UNL     1      -9.451   4.019  67.784  1.00  0.00    -0.179 N  
HETATM    6  C   UNL     1      -9.431   4.345  66.466  1.00  0.00    -0.177 C  
HETATM    7  O   UNL     1      -9.925   3.599  65.623  1.00  0.00    -0.105 OA 
HETATM    8  C   UNL     1      -8.842   5.749  66.161  1.00  0.00    -0.146 C  
HETATM    9  O   UNL     1      -9.734   7.562  67.543  1.00  0.00    -0.139 OA 
HETATM   10  N   UNL     1      -8.020   6.449  67.448  1.00  0.00    -0.114 N  
HETATM   11  C   UNL     1      -7.639   7.817  67.589  1.00  0.00    -0.113 C  
HETATM   12  H   UNL     1      -8.744   8.112  69.422  1.00  0.00     0.000 HD 
HETATM   13  C   UNL     1      -8.643   8.523  66.758  1.00  0.00    -0.114 C  
HETATM   14  O   UNL     1      -6.711   8.278  68.235  1.00  0.00    -0.062 OA 
HETATM   15  O   UNL     1      -8.759   7.188  69.641  1.00  0.00    -0.140 OA 
HETATM   16  C   UNL     1      -7.537   8.385  65.596  1.00  0.00    -0.089 C  
HETATM   17  C   UNL     1      -9.042   6.564  68.397  1.00  0.00    -0.123 C  
ENDROOT
BRANCH   8  18
HETATM   18  C   UNL     1      -8.250   5.626  64.757  1.00  0.00    -0.134 C  
BRANCH  18  19
HETATM   19  C   UNL     1      -7.116   4.664  64.654  1.00  0.00    -0.061 A  
HETATM   20  C   UNL     1      -5.827   3.197  63.250  1.00  0.00    -0.013 A  
HETATM   21  C   UNL     1      -5.150   2.741  64.374  1.00  0.00    -0.008 A  
HETATM   22  C   UNL     1      -6.412   4.221  65.773  1.00  0.00    -0.037 A  
HETATM   23  C   UNL     1      -5.434   3.239  65.657  1.00  0.00    -0.013 A  
HETATM   24  C   UNL     1      -6.806   4.164  63.386  1.00  0.00    -0.043 A  
ENDBRANCH  18  19
ENDBRANCH   8  18
BRANCH  13  25
HETATM   25  N   UNL     1      -9.184   9.859  66.587  1.00  0.00    -0.150 N  
HETATM   26  O   UNL     1      -8.248  10.674  68.576  1.00  0.00    -0.114 OA 
HETATM   27  C   UNL     1      -9.041  10.806  67.648  1.00  0.00    -0.147 C  
HETATM   28  H   UNL     1      -9.660  10.117  65.722  1.00  0.00     0.000 HD 
BRANCH  27  29
HETATM   29  C   UNL     1     -10.011  11.999  67.552  1.00  0.00    -0.199 C  
HETATM   30  C   UNL     1      -9.716  13.324  66.668  1.00  0.00    -0.270 C  
HETATM   31  N   UNL     1     -11.145  14.179  65.815  1.00  0.00    -0.304 NA 
HETATM   32  C   UNL     1     -12.704  14.652  65.689  1.00  0.00    -0.025 C  
HETATM   33  C   UNL     1     -11.009  13.289  64.873  1.00  0.00    -0.330 C  
HETATM   34  C   UNL     1     -10.195  15.042  64.868  1.00  0.00    -0.225 C  
HETATM   35  C   UNL     1     -10.182  15.904  66.547  1.00  0.00    -0.297 A  
HETATM   36  C   UNL     1      -9.395  16.867  67.129  1.00  0.00    -0.234 A  
HETATM   37  N   UNL     1      -9.638  16.849  68.510  1.00  0.00    -0.253 NA 
HETATM   38  H   UNL     1      -9.162  17.470  69.164  1.00  0.00     0.000 HD 
HETATM   39  C   UNL     1     -10.586  15.907  68.913  1.00  0.00    -0.244 A  
HETATM   40  C   UNL     1     -11.041  15.493  70.174  1.00  0.00    -0.337 A  
HETATM   41  C   UNL     1     -11.935  14.386  70.258  1.00  0.00    -0.388 A  
HETATM   42  C   UNL     1     -12.332  13.595  69.160  1.00  0.00    -0.115 A  
HETATM   43  C   UNL     1     -11.831  13.900  67.901  1.00  0.00    -0.413 A  
HETATM   44  C   UNL     1     -10.999  15.235  67.784  1.00  0.00    -0.312 A  
HETATM   45  C   UNL     1     -11.824  12.673  66.485  1.00  0.00    -0.463 C  
HETATM   46  C   UNL     1     -11.267  11.521  66.895  1.00  0.00    -0.363 C  
ENDBRANCH  27  29
ENDBRANCH  13  25
TORSDOF 4
ENDMDL
MODEL       57
REMARK 921   NORMALIZED FREE ENERGY PREDICTED BY IDOCK:   -5.80 KCAL/MOL
REMARK 922        TOTAL FREE ENERGY PREDICTED BY IDOCK:   -8.02 KCAL/MOL
REMARK 923 INTER-LIGAND FREE ENERGY PREDICTED BY IDOCK:   -7.07 KCAL/MOL
REMARK 924 INTRA-LIGAND FREE ENERGY PREDICTED BY IDOCK:   -0.95 KCAL/MOL
REMARK 927      BINDING AFFINITY PREDICTED BY RF-SCORE:    0.00 PKD
ROOT
HETATM    1  C   UNL     1      -8.726   8.626  70.105  1.00  0.00    -0.143 A  
HETATM    2  C   UNL     1      -8.845   7.853  71.428  1.00  0.00    -0.158 A  
HETATM    3  C   UNL     1      -9.504   6.492  70.995  1.00  0.00    -0.171 A  
HETATM    4  C   UNL     1      -9.861   6.659  69.523  1.00  0.00    -0.152 A  
HETATM    5  N   UNL     1      -9.808   8.091  69.337  1.00  0.00    -0.178 N  
HETATM    6  C   UNL     1     -10.099   8.606  68.114  1.00  0.00    -0.197 C  
HETATM    7  O   UNL     1     -11.128   8.283  67.524  1.00  0.00     0.027 OA 
HETATM    8  C   UNL     1      -9.096   9.678  67.613  1.00  0.00    -0.141 C  
HETATM    9  O   UNL     1      -8.559  11.426  69.240  1.00  0.00     0.093 OA 
HETATM   10  N   UNL     1      -7.663   9.748  68.486  1.00  0.00    -0.080 N  
HETATM   11  C   UNL     1      -6.694  10.796  68.476  1.00  0.00    -0.057 C  
HETATM   12  H   UNL     1      -6.849  11.191  70.595  1.00  0.00     0.000 HD 
HETATM   13  C   UNL     1      -7.500  11.982  68.100  1.00  0.00    -0.112 C  
HETATM   14  O   UNL     1      -5.500  10.721  68.717  1.00  0.00    -0.041 OA 
HETATM   15  O   UNL     1      -7.195  10.330  70.798  1.00  0.00    -0.274 OA 
HETATM   16  C   UNL     1      -7.044  11.612  66.601  1.00  0.00    -0.025 C  
HETATM   17  C   UNL     1      -8.133  10.102  69.756  1.00  0.00    -0.154 C  
ENDROOT
BRANCH   8  18
HETATM   18  C   UNL     1      -9.142   9.572  66.089  1.00  0.00    -0.207 C  
BRANCH  18  19
HETATM   19  C   UNL     1      -9.999  10.599  65.430  1.00  0.00    -0.343 A  
HETATM   20  C   UNL     1     -10.576  11.756  63.403  1.00  0.00    -0.479 A  
HETATM   21  C   UNL     1     -11.409  12.593  64.134  1.00  0.00    -0.439 A  
HETATM   22  C   UNL     1     -10.859  11.425  66.153  1.00  0.00    -0.310 A  
HETATM   23  C   UNL     1     -11.561  12.447  65.524  1.00  0.00    -0.432 A  
HETATM   24  C   UNL     1      -9.875  10.753  64.047  1.00  0.00    -0.390 A  
ENDBRANCH  18  19
ENDBRANCH   8  18
BRANCH  13  25
HETATM   25  N   UNL     1      -7.417  13.430  68.157  1.00  0.00    -0.118 N  
HETATM   26  O   UNL     1      -9.741  13.726  68.246  1.00  0.00    -0.221 OA 
HETATM   27  C   UNL     1      -8.620  14.197  68.073  1.00  0.00    -0.172 C  
HETATM   28  H   UNL     1      -6.513  13.893  68.256  1.00  0.00     0.000 HD 
BRANCH  27  29
HETATM   29  C   UNL     1      -8.392  15.674  67.697  1.00  0.00    -0.168 C  
HETATM   30  C   UNL     1      -7.907  16.802  68.753  1.00  0.00    -0.243 C  
HETATM   31  N   UNL     1      -6.763  18.160  68.163  1.00  0.00    -0.202 NA 
HETATM   32  C   UNL     1      -6.178  19.199  67.046  1.00  0.00    -0.178 C  
HETATM   33  C   UNL     1      -5.794  17.308  68.339  1.00  0.00    -0.145 C  
HETATM   34  C   UNL     1      -6.374  18.613  69.642  1.00  0.00    -0.216 C  
HETATM   35  C   UNL     1      -8.069  19.365  69.296  1.00  0.00    -0.094 A  
HETATM   36  C   UNL     1      -9.045  19.938  70.073  1.00  0.00     0.972 A  
HETATM   37  N   UNL     1     -10.228  19.983  69.320  1.00  0.00    -0.529 NA 
HETATM   38  H   UNL     1     -11.103  20.359  69.685  1.00  0.00     0.000 HD 
HETATM   39  C   UNL     1     -10.104  19.470  68.028  1.00  0.00    -0.420 A  
HETATM   40  C   UNL     1     -11.034  19.235  67.003  1.00  0.00    -0.413 A  
HETATM   41  C   UNL     1     -10.608  18.555  65.825  1.00  0.00    -0.265 A  
HETATM   42  C   UNL     1      -9.324  18.003  65.641  1.00  0.00     0.591 A  
HETATM   43  C   UNL     1      -8.394  18.120  66.666  1.00  0.00    -0.283 A  
HETATM   44  C   UNL     1      -8.806  19.035  67.884  1.00  0.00    -0.335 A  
HETATM   45  C   UNL     1      -6.885  17.017  66.801  1.00  0.00    -0.265 C  
HETATM   46  C   UNL     1      -7.263  15.731  66.716  1.00  0.00    -0.002 C  
ENDBRANCH  27  29
ENDBRANCH  13  25
TORSDOF 4
ENDMDL
MODEL       58
REMARK 921   NORMALIZED FREE ENERGY PREDICTED BY IDOCK:   -5.73 KCAL/MOL
REMARK 922        TOTAL FREE ENERGY PREDICTED BY IDOCK:   -7.93 KCAL/MOL
REMARK 923 INTER-LIGAND FREE ENERGY PREDICTED BY IDOCK:   -6.99 KCAL/MOL
REMARK 924 INTRA-LIGAND FREE ENERGY PREDICTED BY IDOCK:   -0.94 KCAL/MOL
REMARK 927      BINDING AFFINITY PREDICTED BY RF-SCORE:    0.00 PKD
ROOT
HETATM    1  C   UNL     1      -6.918   7.225  63.511  1.00  0.00    -0.062 A  
HETATM    2  C   UNL     1      -5.968   6.650  62.448  1.00  0.00    -0.035 A  
HETATM    3  C   UNL     1      -6.162   5.096  62.592  1.00  0.00    -0.021 A  
HETATM    4  C   UNL     1      -7.053   4.905  63.814  1.00  0.00    -0.049 A  
HETATM    5  N   UNL     1      -6.959   6.180  64.487  1.00  0.00    -0.050 N  
HETATM    6  C   UNL     1      -7.632   6.357  65.653  1.00  0.00    -0.086 C  
HETATM    7  O   UNL     1      -7.527   5.546  66.571  1.00  0.00    -0.084 OA 
HETATM    8  C   UNL     1      -8.424   7.689  65.741  1.00  0.00    -0.153 C  
HETATM    9  O   UNL     1      -7.160   9.684  65.097  1.00  0.00    -0.103 OA 
HETATM   10  N   UNL     1      -8.602   8.488  64.274  1.00  0.00    -0.051 N  
HETATM   11  C   UNL     1      -8.998   9.843  64.070  1.00  0.00    -0.243 C  
HETATM   12  H   UNL     1      -7.190  10.392  63.020  1.00  0.00     0.000 HD 
HETATM   13  C   UNL     1      -8.578  10.500  65.331  1.00  0.00    -0.180 C  
HETATM   14  O   UNL     1      -9.548  10.329  63.094  1.00  0.00    -0.305 OA 
HETATM   15  O   UNL     1      -6.986   9.499  62.768  1.00  0.00    -0.096 OA 
HETATM   16  C   UNL     1     -10.083  10.182  65.805  1.00  0.00    -0.324 C  
HETATM   17  C   UNL     1      -7.268   8.755  63.944  1.00  0.00    -0.096 C  
ENDROOT
BRANCH   8  18
HETATM   18  C   UNL     1      -9.595   7.384  66.674  1.00  0.00    -0.251 C  
BRANCH  18  19
HETATM   19  C   UNL     1      -9.452   7.957  68.043  1.00  0.00    -0.159 A  
HETATM   20  C   UNL     1      -8.002   8.411  69.906  1.00  0.00    -0.107 A  
HETATM   21  C   UNL     1      -9.102   8.833  70.641  1.00  0.00    -0.221 A  
HETATM   22  C   UNL     1     -10.548   8.409  68.778  1.00  0.00    -0.154 A  
HETATM   23  C   UNL     1     -10.397   8.833  70.093  1.00  0.00    -0.225 A  
HETATM   24  C   UNL     1      -8.173   7.979  68.604  1.00  0.00    -0.126 A  
ENDBRANCH  18  19
ENDBRANCH   8  18
BRANCH  13  25
HETATM   25  N   UNL     1      -8.311  11.832  65.840  1.00  0.00    -0.365 N  
HETATM   26  O   UNL     1      -7.867  11.092  68.019  1.00  0.00    -0.105 OA 
HETATM   27  C   UNL     1      -8.114  12.011  67.244  1.00  0.00    -0.174 C  
HETATM   28  H   UNL     1      -8.264  12.629  65.205  1.00  0.00     0.000 HD 
BRANCH  27  29
HETATM   29  C   UNL     1      -8.286  13.468  67.716  1.00  0.00    -0.176 C  
HETATM   30  C   UNL     1      -8.622  14.699  66.718  1.00  0.00    -0.195 C  
HETATM   31  N   UNL     1      -9.729  16.079  67.327  1.00  0.00    -0.230 NA 
HETATM   32  C   UNL     1     -10.339  17.068  68.475  1.00  0.00    -0.359 C  
HETATM   33  C   UNL     1     -10.729  15.304  67.015  1.00  0.00    -0.313 C  
HETATM   34  C   UNL     1      -9.977  16.662  65.863  1.00  0.00    -0.295 C  
HETATM   35  C   UNL     1      -8.273  17.279  66.389  1.00  0.00    -0.317 A  
HETATM   36  C   UNL     1      -7.209  17.845  65.731  1.00  0.00    -0.145 A  
HETATM   37  N   UNL     1      -6.088  17.761  66.569  1.00  0.00    -0.167 NA 
HETATM   38  H   UNL     1      -5.167  18.106  66.299  1.00  0.00     0.000 HD 
HETATM   39  C   UNL     1      -6.339  17.163  67.805  1.00  0.00    -0.145 A  
HETATM   40  C   UNL     1      -5.506  16.796  68.873  1.00  0.00    -0.129 A  
HETATM   41  C   UNL     1      -6.059  16.060  69.962  1.00  0.00    -0.143 A  
HETATM   42  C   UNL     1      -7.384  15.578  70.009  1.00  0.00     0.117 A  
HETATM   43  C   UNL     1      -8.224  15.828  68.930  1.00  0.00    -0.210 A  
HETATM   44  C   UNL     1      -7.668  16.801  67.820  1.00  0.00    -0.180 A  
HETATM   45  C   UNL     1      -9.778  14.834  68.602  1.00  0.00    -0.225 C  
HETATM   46  C   UNL     1      -9.482  13.524  68.614  1.00  0.00    -0.057 C  
ENDBRANCH  27  29
ENDBRANCH  13  25
TORSDOF 4
ENDMDL
MODEL       59
REMARK 921   NORMALIZED FREE ENERGY PREDICTED BY IDOCK:   -5.71 KCAL/MOL
REMARK 922        TOTAL FREE ENERGY PREDICTED BY IDOCK:   -7.91 KCAL/MOL
REMARK 923 INTER-LIGAND FREE ENERGY PREDICTED BY IDOCK:   -7.32 KCAL/MOL
REMARK 924 INTRA-LIGAND FREE ENERGY PREDICTED BY IDOCK:   -0.59 KCAL/MOL
REMARK 927      BINDING AFFINITY PREDICTED BY RF-SCORE:    0.00 PKD
ROOT
HETATM    1  C   UNL     1      -7.203   4.417  67.207  1.00  0.00    -0.069 A  
HETATM    2  C   UNL     1      -6.603   3.442  66.182  1.00  0.00    -0.037 A  
HETATM    3  C   UNL     1      -5.857   2.387  67.079  1.00  0.00    -0.022 A  
HETATM    4  C   UNL     1      -5.941   2.926  68.502  1.00  0.00    -0.024 A  
HETATM    5  N   UNL     1      -6.291   4.314  68.303  1.00  0.00    -0.036 N  
HETATM    6  C   UNL     1      -6.431   5.118  69.389  1.00  0.00    -0.035 C  
HETATM    7  O   UNL     1      -5.557   5.169  70.253  1.00  0.00    -0.014 OA 
HETATM    8  C   UNL     1      -7.702   6.007  69.370  1.00  0.00    -0.098 C  
HETATM    9  O   UNL     1      -8.081   7.218  67.276  1.00  0.00    -0.109 OA 
HETATM   10  N   UNL     1      -8.839   5.565  68.215  1.00  0.00    -0.105 N  
HETATM   11  C   UNL     1      -9.943   6.340  67.747  1.00  0.00    -0.127 C  
HETATM   12  H   UNL     1      -9.298   6.323  65.684  1.00  0.00     0.000 HD 
HETATM   13  C   UNL     1      -9.486   7.731  67.977  1.00  0.00    -0.144 C  
HETATM   14  O   UNL     1     -10.997   5.942  67.277  1.00  0.00    -0.293 OA 
HETATM   15  O   UNL     1      -8.766   5.543  65.786  1.00  0.00    -0.142 OA 
HETATM   16  C   UNL     1     -10.255   7.576  69.384  1.00  0.00    -0.204 C  
HETATM   17  C   UNL     1      -8.116   5.754  67.032  1.00  0.00    -0.102 C  
ENDROOT
BRANCH   8  18
HETATM   18  C   UNL     1      -8.047   6.224  70.843  1.00  0.00    -0.124 C  
BRANCH  18  19
HETATM   19  C   UNL     1      -7.164   7.202  71.540  1.00  0.00    -0.077 A  
HETATM   20  C   UNL     1      -5.608   9.024  71.341  1.00  0.00    -0.051 A  
HETATM   21  C   UNL     1      -5.367   8.949  72.708  1.00  0.00    -0.070 A  
HETATM   22  C   UNL     1      -6.938   7.151  72.916  1.00  0.00    -0.069 A  
HETATM   23  C   UNL     1      -6.023   8.006  73.519  1.00  0.00    -0.076 A  
HETATM   24  C   UNL     1      -6.511   8.157  70.757  1.00  0.00    -0.037 A  
ENDBRANCH  18  19
ENDBRANCH   8  18
BRANCH  13  25
HETATM   25  N   UNL     1      -9.802   9.078  67.539  1.00  0.00    -0.168 N  
HETATM   26  O   UNL     1      -8.526  10.103  69.218  1.00  0.00    -0.139 OA 
HETATM   27  C   UNL     1      -9.380  10.185  68.340  1.00  0.00    -0.136 C  
HETATM   28  H   UNL     1     -10.316   9.233  66.672  1.00  0.00     0.000 HD 
BRANCH  27  29
HETATM   29  C   UNL     1     -10.132  11.495  68.036  1.00  0.00    -0.197 C  
HETATM   30  C   UNL     1      -9.829  12.422  66.743  1.00  0.00    -0.228 C  
HETATM   31  N   UNL     1     -11.251  13.313  65.917  1.00  0.00    -0.288 NA 
HETATM   32  C   UNL     1     -12.696  14.077  65.911  1.00  0.00    -0.397 C  
HETATM   33  C   UNL     1     -11.486  12.192  65.295  1.00  0.00    -0.336 C  
HETATM   34  C   UNL     1     -10.413  13.642  64.600  1.00  0.00    -0.423 C  
HETATM   35  C   UNL     1      -9.871  14.905  65.893  1.00  0.00    -0.362 A  
HETATM   36  C   UNL     1      -8.821  15.783  66.000  1.00  0.00    -0.225 A  
HETATM   37  N   UNL     1      -8.740  16.201  67.336  1.00  0.00    -0.177 NA 
HETATM   38  H   UNL     1      -8.030  16.852  67.671  1.00  0.00     0.000 HD 
HETATM   39  C   UNL     1      -9.715  15.650  68.169  1.00  0.00    -0.204 A  
HETATM   40  C   UNL     1      -9.932  15.714  69.554  1.00  0.00    -0.285 A  
HETATM   41  C   UNL     1     -10.955  14.907  70.133  1.00  0.00    -0.211 A  
HETATM   42  C   UNL     1     -11.721  13.959  69.424  1.00  0.00    -0.367 A  
HETATM   43  C   UNL     1     -11.477  13.783  68.068  1.00  0.00    -0.344 A  
HETATM   44  C   UNL     1     -10.483  14.807  67.397  1.00  0.00    -0.256 A  
HETATM   45  C   UNL     1     -12.001  12.247  67.132  1.00  0.00    -0.207 C  
HETATM   46  C   UNL     1     -11.567  11.156  67.785  1.00  0.00    -0.303 C  
ENDBRANCH  27  29
ENDBRANCH  13  25
TORSDOF 4
ENDMDL
MODEL       60
REMARK 921   NORMALIZED FREE ENERGY PREDICTED BY IDOCK:   -5.70 KCAL/MOL
REMARK 922        TOTAL FREE ENERGY PREDICTED BY IDOCK:   -7.90 KCAL/MOL
REMARK 923 INTER-LIGAND FREE ENERGY PREDICTED BY IDOCK:   -7.35 KCAL/MOL
REMARK 924 INTRA-LIGAND FREE ENERGY PREDICTED BY IDOCK:   -0.55 KCAL/MOL
REMARK 927      BINDING AFFINITY PREDICTED BY RF-SCORE:    0.00 PKD
ROOT
HETATM    1  C   UNL     1      -7.437   9.100  70.403  1.00  0.00    -0.106 A  
HETATM    2  C   UNL     1      -6.527   8.559  71.517  1.00  0.00    -0.064 A  
HETATM    3  C   UNL     1      -7.071   7.103  71.755  1.00  0.00    -0.068 A  
HETATM    4  C   UNL     1      -8.330   6.991  70.902  1.00  0.00    -0.129 A  
HETATM    5  N   UNL     1      -8.649   8.370  70.612  1.00  0.00    -0.133 N  
HETATM    6  C   UNL     1      -9.752   8.646  69.870  1.00  0.00    -0.173 C  
HETATM    7  O   UNL     1     -10.844   8.158  70.157  1.00  0.00    -0.243 OA 
HETATM    8  C   UNL     1      -9.522   9.682  68.737  1.00  0.00    -0.148 C  
HETATM    9  O   UNL     1      -8.346  11.716  69.426  1.00  0.00     0.297 OA 
HETATM   10  N   UNL     1      -7.906   9.997  68.406  1.00  0.00    -0.088 N  
HETATM   11  C   UNL     1      -7.373  11.091  67.659  1.00  0.00    -0.094 C  
HETATM   12  H   UNL     1      -6.159  11.832  69.286  1.00  0.00     0.000 HD 
HETATM   13  C   UNL     1      -8.409  12.138  67.830  1.00  0.00    -0.161 C  
HETATM   14  O   UNL     1      -6.324  11.139  67.037  1.00  0.00    -0.076 OA 
HETATM   15  O   UNL     1      -6.137  10.997  69.739  1.00  0.00    -0.069 OA 
HETATM   16  C   UNL     1      -8.998  11.547  66.453  1.00  0.00    -0.200 C  
HETATM   17  C   UNL     1      -7.474  10.531  69.626  1.00  0.00    -0.141 C  
ENDROOT
BRANCH   8  18
HETATM   18  C   UNL     1     -10.540   9.313  67.659  1.00  0.00    -0.324 C  
BRANCH  18  19
HETATM   19  C   UNL     1     -10.285   8.000  67.000  1.00  0.00    -0.374 A  
HETATM   20  C   UNL     1     -10.978   5.718  66.699  1.00  0.00    -0.208 A  
HETATM   21  C   UNL     1      -9.819   5.477  65.971  1.00  0.00    -0.091 A  
HETATM   22  C   UNL     1      -9.138   7.758  66.244  1.00  0.00    -0.221 A  
HETATM   23  C   UNL     1      -8.875   6.491  65.736  1.00  0.00    -0.097 A  
HETATM   24  C   UNL     1     -11.217   6.980  67.208  1.00  0.00    -0.155 A  
ENDBRANCH  18  19
ENDBRANCH   8  18
BRANCH  13  25
HETATM   25  N   UNL     1      -8.550  13.576  67.697  1.00  0.00    -0.172 N  
HETATM   26  O   UNL     1      -6.246  13.949  67.475  1.00  0.00    -0.300 OA 
HETATM   27  C   UNL     1      -7.374  14.389  67.678  1.00  0.00    -0.180 C  
HETATM   28  H   UNL     1      -9.474  14.000  67.619  1.00  0.00     0.000 HD 
BRANCH  27  29
HETATM   29  C   UNL     1      -7.641  15.876  67.983  1.00  0.00    -0.137 C  
HETATM   30  C   UNL     1      -8.327  16.896  66.930  1.00  0.00    -0.244 C  
HETATM   31  N   UNL     1      -9.464  18.233  67.578  1.00  0.00    -0.264 NA 
HETATM   32  C   UNL     1      -9.960  19.321  68.692  1.00  0.00    -0.431 C  
HETATM   33  C   UNL     1     -10.395  17.322  67.592  1.00  0.00    -0.350 C  
HETATM   34  C   UNL     1     -10.072  18.555  66.138  1.00  0.00    -0.368 C  
HETATM   35  C   UNL     1      -8.395  19.418  66.201  1.00  0.00    -0.310 A  
HETATM   36  C   UNL     1      -7.566  19.980  65.262  1.00  0.00     0.142 A  
HETATM   37  N   UNL     1      -6.300  20.142  65.844  1.00  0.00    -0.201 NA 
HETATM   38  H   UNL     1      -5.505  20.534  65.340  1.00  0.00     0.000 HD 
HETATM   39  C   UNL     1      -6.221  19.720  67.172  1.00  0.00    -0.184 A  
HETATM   40  C   UNL     1      -5.152  19.609  68.074  1.00  0.00    -0.176 A  
HETATM   41  C   UNL     1      -5.376  18.997  69.342  1.00  0.00    -0.203 A  
HETATM   42  C   UNL     1      -6.590  18.395  69.735  1.00  0.00    -0.016 A  
HETATM   43  C   UNL     1      -7.652  18.388  68.839  1.00  0.00    -0.248 A  
HETATM   44  C   UNL     1      -7.460  19.230  67.519  1.00  0.00    -0.263 A  
HETATM   45  C   UNL     1      -9.095  17.202  68.983  1.00  0.00    -0.123 C  
HETATM   46  C   UNL     1      -8.632  15.947  69.101  1.00  0.00    -0.252 C  
ENDBRANCH  27  29
ENDBRANCH  13  25
TORSDOF 4
ENDMDL
MODEL       61
REMARK 921   NORMALIZED FREE ENERGY PREDICTED BY IDOCK:   -5.68 KCAL/MOL
REMARK 922        TOTAL FREE ENERGY PREDICTED BY IDOCK:   -7.87 KCAL/MOL
REMARK 923 INTER-LIGAND FREE ENERGY PREDICTED BY IDOCK:   -6.97 KCAL/MOL
REMARK 924 INTRA-LIGAND FREE ENERGY PREDICTED BY IDOCK:   -0.90 KCAL/MOL
REMARK 927      BINDING AFFINITY PREDICTED BY RF-SCORE:    0.00 PKD
ROOT
HETATM    1  C   UNL     1     -11.121  12.631  68.821  1.00  0.00    -0.263 A  
HETATM    2  C   UNL     1     -11.873  13.884  68.344  1.00  0.00    -0.409 A  
HETATM    3  C   UNL     1     -12.593  14.392  69.647  1.00  0.00    -0.102 A  
HETATM    4  C   UNL     1     -12.343  13.318  70.700  1.00  0.00    -0.339 A  
HETATM    5  N   UNL     1     -11.931  12.180  69.910  1.00  0.00    -0.325 N  
HETATM    6  C   UNL     1     -11.641  11.013  70.543  1.00  0.00    -0.245 C  
HETATM    7  O   UNL     1     -12.425  10.524  71.354  1.00  0.00    -0.369 OA 
HETATM    8  C   UNL     1     -10.326  10.337  70.072  1.00  0.00    -0.255 C  
HETATM    9  O   UNL     1     -10.074  10.154  67.644  1.00  0.00    -0.173 OA 
HETATM   10  N   UNL     1      -9.332  11.326  69.147  1.00  0.00     0.012 N  
HETATM   11  C   UNL     1      -8.232  10.925  68.330  1.00  0.00    -0.133 C  
HETATM   12  H   UNL     1      -9.068  11.741  66.511  1.00  0.00     0.000 HD 
HETATM   13  C   UNL     1      -8.581   9.529  67.976  1.00  0.00    -0.120 C  
HETATM   14  O   UNL     1      -7.253  11.580  68.010  1.00  0.00    -0.078 OA 
HETATM   15  O   UNL     1      -9.634  12.353  66.966  1.00  0.00    -0.201 OA 
HETATM   16  C   UNL     1      -7.694   9.155  69.267  1.00  0.00    -0.080 C  
HETATM   17  C   UNL     1     -10.150  11.581  68.041  1.00  0.00    -0.186 C  
ENDROOT
BRANCH   8  18
HETATM   18  C   UNL     1      -9.832   9.558  71.290  1.00  0.00    -0.095 C  
BRANCH  18  19
HETATM   19  C   UNL     1     -10.456   8.214  71.451  1.00  0.00    -0.261 A  
HETATM   20  C   UNL     1     -10.888   6.343  72.898  1.00  0.00    -0.286 A  
HETATM   21  C   UNL     1     -11.423   5.651  71.819  1.00  0.00    -0.118 A  
HETATM   22  C   UNL     1     -11.021   7.523  70.379  1.00  0.00    -0.264 A  
HETATM   23  C   UNL     1     -11.494   6.226  70.538  1.00  0.00    -0.407 A  
HETATM   24  C   UNL     1     -10.410   7.627  72.718  1.00  0.00    -0.351 A  
ENDBRANCH  18  19
ENDBRANCH   8  18
BRANCH  13  25
HETATM   25  N   UNL     1      -8.228   8.524  66.990  1.00  0.00    -0.106 N  
HETATM   26  O   UNL     1     -10.166   7.255  67.344  1.00  0.00    -0.189 OA 
HETATM   27  C   UNL     1      -9.035   7.351  66.876  1.00  0.00    -0.135 C  
HETATM   28  H   UNL     1      -7.415   8.655  66.387  1.00  0.00     0.000 HD 
BRANCH  27  29
HETATM   29  C   UNL     1      -8.339   6.185  66.147  1.00  0.00    -0.128 C  
HETATM   30  C   UNL     1      -8.961   5.442  64.849  1.00  0.00    -0.003 C  
HETATM   31  N   UNL     1      -7.800   4.836  63.513  1.00  0.00    -0.077 NA 
HETATM   32  C   UNL     1      -6.383   4.231  62.968  1.00  0.00    -0.022 C  
HETATM   33  C   UNL     1      -7.816   6.056  63.058  1.00  0.00    -0.099 C  
HETATM   34  C   UNL     1      -8.970   4.631  62.448  1.00  0.00    -0.124 C  
HETATM   35  C   UNL     1      -9.042   3.136  63.598  1.00  0.00    -0.096 A  
HETATM   36  C   UNL     1      -9.968   2.150  63.839  1.00  0.00    -0.121 A  
HETATM   37  N   UNL     1      -9.630   1.526  65.048  1.00  0.00    -0.322 NA 
HETATM   38  H   UNL     1     -10.176   0.763  65.449  1.00  0.00     0.000 HD 
HETATM   39  C   UNL     1      -8.484   2.038  65.658  1.00  0.00    -0.100 A  
HETATM   40  C   UNL     1      -7.867   1.784  66.892  1.00  0.00    -0.066 A  
HETATM   41  C   UNL     1      -6.761   2.591  67.293  1.00  0.00    -0.040 A  
HETATM   42  C   UNL     1      -6.288   3.709  66.576  1.00  0.00    -0.036 A  
HETATM   43  C   UNL     1      -6.928   4.066  65.396  1.00  0.00    -0.062 A  
HETATM   44  C   UNL     1      -8.021   3.062  64.862  1.00  0.00    -0.082 A  
HETATM   45  C   UNL     1      -6.782   5.772  64.637  1.00  0.00    -0.046 C  
HETATM   46  C   UNL     1      -7.061   6.701  65.567  1.00  0.00    -0.064 C  
ENDBRANCH  27  29
ENDBRANCH  13  25
TORSDOF 4
ENDMDL
MODEL       62
REMARK 921   NORMALIZED FREE ENERGY PREDICTED BY IDOCK:   -5.65 KCAL/MOL
REMARK 922        TOTAL FREE ENERGY PREDICTED BY IDOCK:   -7.84 KCAL/MOL
REMARK 923 INTER-LIGAND FREE ENERGY PREDICTED BY IDOCK:   -7.75 KCAL/MOL
REMARK 924 INTRA-LIGAND FREE ENERGY PREDICTED BY IDOCK:   -0.09 KCAL/MOL
REMARK 927      BINDING AFFINITY PREDICTED BY RF-SCORE:    0.00 PKD
ROOT
HETATM    1  C   UNL     1     -10.226   5.189  72.364  1.00  0.00    -0.198 A  
HETATM    2  C   UNL     1     -11.176   4.492  73.351  1.00  0.00    -0.404 A  
HETATM    3  C   UNL     1     -10.828   2.968  73.174  1.00  0.00    -0.240 A  
HETATM    4  C   UNL     1      -9.855   2.902  72.003  1.00  0.00    -0.172 A  
HETATM    5  N   UNL     1     -10.031   4.186  71.363  1.00  0.00    -0.179 N  
HETATM    6  C   UNL     1      -9.313   4.465  70.244  1.00  0.00    -0.148 C  
HETATM    7  O   UNL     1      -9.288   3.680  69.298  1.00  0.00    -0.150 OA 
HETATM    8  C   UNL     1      -8.646   5.866  70.242  1.00  0.00    -0.134 C  
HETATM    9  O   UNL     1     -10.129   7.712  70.867  1.00  0.00    -0.191 OA 
HETATM   10  N   UNL     1      -8.629   6.627  71.739  1.00  0.00    -0.126 N  
HETATM   11  C   UNL     1      -8.375   8.006  72.006  1.00  0.00    -0.139 C  
HETATM   12  H   UNL     1     -10.283   8.348  72.962  1.00  0.00     0.000 HD 
HETATM   13  C   UNL     1      -8.783   8.664  70.742  1.00  0.00    -0.173 C  
HETATM   14  O   UNL     1      -7.930   8.507  73.027  1.00  0.00    -0.344 OA 
HETATM   15  O   UNL     1     -10.416   7.432  73.176  1.00  0.00    -0.283 OA 
HETATM   16  C   UNL     1      -7.230   8.504  70.350  1.00  0.00    -0.039 C  
HETATM   17  C   UNL     1      -9.998   6.758  71.997  1.00  0.00    -0.171 C  
ENDROOT
BRANCH   8  18
HETATM   18  C   UNL     1      -7.401   5.703  69.372  1.00  0.00    -0.070 C  
BRANCH  18  19
HETATM   19  C   UNL     1      -7.528   6.288  68.006  1.00  0.00    -0.090 A  
HETATM   20  C   UNL     1      -6.569   7.696  66.310  1.00  0.00    -0.050 A  
HETATM   21  C   UNL     1      -7.732   7.563  65.562  1.00  0.00    -0.103 A  
HETATM   22  C   UNL     1      -8.681   6.136  67.237  1.00  0.00    -0.108 A  
HETATM   23  C   UNL     1      -8.813   6.785  66.015  1.00  0.00    -0.150 A  
HETATM   24  C   UNL     1      -6.461   7.054  67.529  1.00  0.00    -0.054 A  
ENDBRANCH  18  19
ENDBRANCH   8  18
BRANCH  13  25
HETATM   25  N   UNL     1      -9.146   9.982  70.257  1.00  0.00    -0.355 N  
HETATM   26  O   UNL     1     -11.181  10.034  71.419  1.00  0.00    -0.306 OA 
HETATM   27  C   UNL     1     -10.448  10.495  70.549  1.00  0.00     0.352 C  
HETATM   28  H   UNL     1      -8.481  10.535  69.715  1.00  0.00     0.000 HD 
BRANCH  27  29
HETATM   29  C   UNL     1     -10.877  11.661  69.637  1.00  0.00    -0.001 C  
HETATM   30  C   UNL     1      -9.934  12.284  68.477  1.00  0.00    -0.175 C  
HETATM   31  N   UNL     1     -10.729  12.888  66.895  1.00  0.00    -0.256 NA 
HETATM   32  C   UNL     1     -11.942  13.555  66.027  1.00  0.00    -0.409 C  
HETATM   33  C   UNL     1     -10.709  11.645  66.506  1.00  0.00    -0.272 C  
HETATM   34  C   UNL     1      -9.344  12.954  66.106  1.00  0.00    -0.092 C  
HETATM   35  C   UNL     1      -9.406  14.504  67.180  1.00  0.00    -0.225 A  
HETATM   36  C   UNL     1      -8.480  15.438  67.576  1.00  0.00    -0.173 A  
HETATM   37  N   UNL     1      -9.021  16.152  68.656  1.00  0.00    -0.210 NA 
HETATM   38  H   UNL     1      -8.517  16.898  69.134  1.00  0.00     0.000 HD 
HETATM   39  C   UNL     1     -10.308  15.753  69.019  1.00  0.00    -0.223 A  
HETATM   40  C   UNL     1     -11.156  16.119  70.076  1.00  0.00    -0.363 A  
HETATM   41  C   UNL     1     -12.381  15.412  70.258  1.00  0.00    -0.425 A  
HETATM   42  C   UNL     1     -12.774  14.288  69.502  1.00  0.00     0.158 A  
HETATM   43  C   UNL     1     -11.924  13.822  68.507  1.00  0.00    -0.402 A  
HETATM   44  C   UNL     1     -10.666  14.718  68.185  1.00  0.00    -0.247 A  
HETATM   45  C   UNL     1     -12.035  12.088  67.806  1.00  0.00    -0.177 C  
HETATM   46  C   UNL     1     -12.036  11.198  68.812  1.00  0.00    -0.232 C  
ENDBRANCH  27  29
ENDBRANCH  13  25
TORSDOF 4
ENDMDL
MODEL       63
REMARK 921   NORMALIZED FREE ENERGY PREDICTED BY IDOCK:   -5.65 KCAL/MOL
REMARK 922        TOTAL FREE ENERGY PREDICTED BY IDOCK:   -7.83 KCAL/MOL
REMARK 923 INTER-LIGAND FREE ENERGY PREDICTED BY IDOCK:   -6.82 KCAL/MOL
REMARK 924 INTRA-LIGAND FREE ENERGY PREDICTED BY IDOCK:   -1.01 KCAL/MOL
REMARK 927      BINDING AFFINITY PREDICTED BY RF-SCORE:    0.00 PKD
ROOT
HETATM    1  C   UNL     1     -10.205  16.352  67.745  1.00  0.00    -0.274 A  
HETATM    2  C   UNL     1     -11.159  17.548  67.896  1.00  0.00     0.015 A  
HETATM    3  C   UNL     1     -10.187  18.783  67.950  1.00  0.00    -0.448 A  
HETATM    4  C   UNL     1      -8.781  18.197  68.002  1.00  0.00    -0.269 A  
HETATM    5  N   UNL     1      -9.016  16.824  68.386  1.00  0.00    -0.225 N  
HETATM    6  C   UNL     1      -7.951  15.996  68.548  1.00  0.00    -0.159 C  
HETATM    7  O   UNL     1      -6.998  16.326  69.251  1.00  0.00    -0.199 OA 
HETATM    8  C   UNL     1      -8.108  14.608  67.871  1.00  0.00    -0.149 C  
HETATM    9  O   UNL     1     -10.230  13.475  68.326  1.00  0.00    -0.237 OA 
HETATM   10  N   UNL     1      -9.380  14.510  66.779  1.00  0.00    -0.250 N  
HETATM   11  C   UNL     1      -9.964  13.326  66.237  1.00  0.00    -0.291 C  
HETATM   12  H   UNL     1     -11.945  13.756  66.987  1.00  0.00     0.000 HD 
HETATM   13  C   UNL     1      -9.685  12.315  67.283  1.00  0.00    -0.195 C  
HETATM   14  O   UNL     1     -10.547  13.193  65.172  1.00  0.00    -0.297 OA 
HETATM   15  O   UNL     1     -11.786  14.690  67.064  1.00  0.00    -0.387 OA 
HETATM   16  C   UNL     1      -8.371  12.009  66.405  1.00  0.00     0.053 C  
HETATM   17  C   UNL     1     -10.477  14.753  67.613  1.00  0.00    -0.254 C  
ENDROOT
BRANCH   8  18
HETATM   18  C   UNL     1      -6.681  14.176  67.535  1.00  0.00    -0.127 C  
BRANCH  18  19
HETATM   19  C   UNL     1      -6.124  13.140  68.450  1.00  0.00    -0.083 A  
HETATM   20  C   UNL     1      -5.182  10.940  68.682  1.00  0.00    -0.040 A  
HETATM   21  C   UNL     1      -5.232  11.080  70.064  1.00  0.00    -0.052 A  
HETATM   22  C   UNL     1      -6.144  13.284  69.838  1.00  0.00    -0.125 A  
HETATM   23  C   UNL     1      -5.720  12.252  70.667  1.00  0.00    -0.135 A  
HETATM   24  C   UNL     1      -5.621  11.971  67.874  1.00  0.00    -0.060 A  
ENDBRANCH  18  19
ENDBRANCH   8  18
BRANCH  13  25
HETATM   25  N   UNL     1     -10.154  11.006  67.700  1.00  0.00    -0.179 N  
HETATM   26  O   UNL     1      -8.728  10.902  69.558  1.00  0.00     0.024 OA 
HETATM   27  C   UNL     1      -9.484  10.339  68.772  1.00  0.00    -0.176 C  
HETATM   28  H   UNL     1     -10.950  10.570  67.236  1.00  0.00     0.000 HD 
BRANCH  27  29
HETATM   29  C   UNL     1      -9.759   8.824  68.830  1.00  0.00    -0.174 C  
HETATM   30  C   UNL     1      -8.749   7.756  69.512  1.00  0.00    -0.135 C  
HETATM   31  N   UNL     1      -9.466   6.278  70.407  1.00  0.00    -0.161 NA 
HETATM   32  C   UNL     1     -10.586   5.112  70.645  1.00  0.00    -0.144 C  
HETATM   33  C   UNL     1      -9.619   7.073  71.428  1.00  0.00    -0.162 C  
HETATM   34  C   UNL     1      -8.092   5.925  71.135  1.00  0.00    -0.121 C  
HETATM   35  C   UNL     1      -7.935   5.265  69.374  1.00  0.00    -0.088 A  
HETATM   36  C   UNL     1      -6.889   4.828  68.599  1.00  0.00    -0.051 A  
HETATM   37  N   UNL     1      -7.320   4.802  67.265  1.00  0.00    -0.076 NA 
HETATM   38  H   UNL     1      -6.716   4.519  66.493  1.00  0.00     0.000 HD 
HETATM   39  C   UNL     1      -8.646   5.196  67.083  1.00  0.00    -0.105 A  
HETATM   40  C   UNL     1      -9.428   5.408  65.937  1.00  0.00    -0.138 A  
HETATM   41  C   UNL     1     -10.736   5.956  66.084  1.00  0.00     0.107 A  
HETATM   42  C   UNL     1     -11.284   6.401  67.305  1.00  0.00    -0.295 A  
HETATM   43  C   UNL     1     -10.512   6.306  68.456  1.00  0.00    -0.273 A  
HETATM   44  C   UNL     1      -9.147   5.527  68.322  1.00  0.00    -0.113 A  
HETATM   45  C   UNL     1     -10.862   7.309  69.999  1.00  0.00    -0.271 C  
HETATM   46  C   UNL     1     -10.976   8.607  69.672  1.00  0.00    -0.099 C  
ENDBRANCH  27  29
ENDBRANCH  13  25
TORSDOF 4
ENDMDL
MODEL       64
REMARK 921   NORMALIZED FREE ENERGY PREDICTED BY IDOCK:   -5.63 KCAL/MOL
REMARK 922        TOTAL FREE ENERGY PREDICTED BY IDOCK:   -7.81 KCAL/MOL
REMARK 923 INTER-LIGAND FREE ENERGY PREDICTED BY IDOCK:   -6.90 KCAL/MOL
REMARK 924 INTRA-LIGAND FREE ENERGY PREDICTED BY IDOCK:   -0.91 KCAL/MOL
REMARK 927      BINDING AFFINITY PREDICTED BY RF-SCORE:    0.00 PKD
ROOT
HETATM    1  C   UNL     1      -8.652  18.158  66.978  1.00  0.00    -0.254 A  
HETATM    2  C   UNL     1      -8.619  19.417  66.097  1.00  0.00    -0.297 A  
HETATM    3  C   UNL     1      -9.689  20.356  66.766  1.00  0.00    -0.528 A  
HETATM    4  C   UNL     1     -10.358  19.512  67.845  1.00  0.00    -0.444 A  
HETATM    5  N   UNL     1      -9.994  18.164  67.475  1.00  0.00    -0.318 N  
HETATM    6  C   UNL     1     -10.449  17.130  68.229  1.00  0.00    -0.373 C  
HETATM    7  O   UNL     1     -11.643  17.032  68.509  1.00  0.00     0.083 OA 
HETATM    8  C   UNL     1      -9.371  16.075  68.590  1.00  0.00    -0.214 C  
HETATM    9  O   UNL     1      -8.009  15.307  66.706  1.00  0.00    -0.200 OA 
HETATM   10  N   UNL     1      -7.792  16.570  68.301  1.00  0.00    -0.168 N  
HETATM   11  C   UNL     1      -6.626  15.750  68.239  1.00  0.00    -0.120 C  
HETATM   12  H   UNL     1      -6.126  16.320  66.215  1.00  0.00     0.000 HD 
HETATM   13  C   UNL     1      -7.174  14.434  67.833  1.00  0.00    -0.160 C  
HETATM   14  O   UNL     1      -5.469  16.067  68.467  1.00  0.00    -0.096 OA 
HETATM   15  O   UNL     1      -6.614  17.134  66.252  1.00  0.00    -0.226 OA 
HETATM   16  C   UNL     1      -7.227  14.153  69.418  1.00  0.00    -0.011 C  
HETATM   17  C   UNL     1      -7.815  16.763  66.915  1.00  0.00    -0.218 C  
ENDROOT
BRANCH   8  18
HETATM   18  C   UNL     1      -9.832  15.488  69.924  1.00  0.00    -0.207 C  
BRANCH  18  19
HETATM   19  C   UNL     1     -10.837  14.394  69.796  1.00  0.00    -0.087 A  
HETATM   20  C   UNL     1     -12.602  13.136  70.836  1.00  0.00    -0.377 A  
HETATM   21  C   UNL     1     -12.620  12.283  69.739  1.00  0.00     0.246 A  
HETATM   22  C   UNL     1     -10.881  13.551  68.686  1.00  0.00    -0.281 A  
HETATM   23  C   UNL     1     -11.755  12.471  68.647  1.00  0.00    -0.368 A  
HETATM   24  C   UNL     1     -11.717  14.196  70.864  1.00  0.00    -0.190 A  
ENDBRANCH  18  19
ENDBRANCH   8  18
BRANCH  13  25
HETATM   25  N   UNL     1      -6.715  13.183  67.258  1.00  0.00    -0.314 N  
HETATM   26  O   UNL     1      -8.869  12.474  66.662  1.00  0.00    -0.207 OA 
HETATM   27  C   UNL     1      -7.682  12.216  66.840  1.00  0.00    -0.049 C  
HETATM   28  H   UNL     1      -5.718  12.996  67.154  1.00  0.00     0.000 HD 
BRANCH  27  29
HETATM   29  C   UNL     1      -7.110  10.795  66.675  1.00  0.00    -0.133 C  
HETATM   30  C   UNL     1      -7.822   9.640  65.791  1.00  0.00    -0.106 C  
HETATM   31  N   UNL     1      -6.748   8.431  64.850  1.00  0.00    -0.067 NA 
HETATM   32  C   UNL     1      -5.404   7.528  64.633  1.00  0.00    -0.029 C  
HETATM   33  C   UNL     1      -6.662   9.349  63.929  1.00  0.00    -0.096 C  
HETATM   34  C   UNL     1      -7.953   7.910  63.944  1.00  0.00    -0.121 C  
HETATM   35  C   UNL     1      -8.138   7.041  65.609  1.00  0.00    -0.129 A  
HETATM   36  C   UNL     1      -9.144   6.333  66.218  1.00  0.00    -0.153 A  
HETATM   37  N   UNL     1      -8.841   6.239  67.585  1.00  0.00    -0.112 NA 
HETATM   38  H   UNL     1      -9.446   5.765  68.255  1.00  0.00     0.000 HD 
HETATM   39  C   UNL     1      -7.641   6.852  67.949  1.00  0.00    -0.107 A  
HETATM   40  C   UNL     1      -7.025   7.078  69.189  1.00  0.00    -0.078 A  
HETATM   41  C   UNL     1      -5.843   7.873  69.241  1.00  0.00    -0.030 A  
HETATM   42  C   UNL     1      -5.284   8.545  68.134  1.00  0.00    -0.034 A  
HETATM   43  C   UNL     1      -5.912   8.436  66.900  1.00  0.00    -0.053 A  
HETATM   44  C   UNL     1      -7.103   7.406  66.809  1.00  0.00    -0.079 A  
HETATM   45  C   UNL     1      -5.627   9.653  65.503  1.00  0.00    -0.054 C  
HETATM   46  C   UNL     1      -5.801  10.905  65.958  1.00  0.00    -0.143 C  
ENDBRANCH  27  29
ENDBRANCH  13  25
TORSDOF 4
ENDMDL
MODEL       65
REMARK 921   NORMALIZED FREE ENERGY PREDICTED BY IDOCK:   -5.61 KCAL/MOL
REMARK 922        TOTAL FREE ENERGY PREDICTED BY IDOCK:   -7.78 KCAL/MOL
REMARK 923 INTER-LIGAND FREE ENERGY PREDICTED BY IDOCK:   -7.20 KCAL/MOL
REMARK 924 INTRA-LIGAND FREE ENERGY PREDICTED BY IDOCK:   -0.58 KCAL/MOL
REMARK 927      BINDING AFFINITY PREDICTED BY RF-SCORE:    0.00 PKD
ROOT
HETATM    1  C   UNL     1     -10.782  12.575  67.144  1.00  0.00    -0.237 A  
HETATM    2  C   UNL     1     -11.940  13.556  66.902  1.00  0.00    -0.447 A  
HETATM    3  C   UNL     1     -11.302  14.647  65.966  1.00  0.00    -0.344 A  
HETATM    4  C   UNL     1      -9.818  14.306  65.891  1.00  0.00    -0.298 A  
HETATM    5  N   UNL     1      -9.632  13.416  67.015  1.00  0.00    -0.236 N  
HETATM    6  C   UNL     1      -8.391  12.923  67.263  1.00  0.00    -0.185 C  
HETATM    7  O   UNL     1      -7.418  13.672  67.333  1.00  0.00    -0.171 OA 
HETATM    8  C   UNL     1      -8.351  11.398  67.547  1.00  0.00    -0.137 C  
HETATM    9  O   UNL     1      -9.997  10.610  69.180  1.00  0.00    -0.208 OA 
HETATM   10  N   UNL     1      -9.763  10.581  67.147  1.00  0.00    -0.168 N  
HETATM   11  C   UNL     1     -10.149   9.269  67.555  1.00  0.00    -0.218 C  
HETATM   12  H   UNL     1     -11.971   9.921  68.517  1.00  0.00     0.000 HD 
HETATM   13  C   UNL     1      -9.422   9.099  68.836  1.00  0.00    -0.151 C  
HETATM   14  O   UNL     1     -10.893   8.490  66.982  1.00  0.00    -0.211 OA 
HETATM   15  O   UNL     1     -12.027  10.726  68.016  1.00  0.00    -0.537 OA 
HETATM   16  C   UNL     1      -8.288   8.426  67.913  1.00  0.00    -0.131 C  
HETATM   17  C   UNL     1     -10.686  11.194  68.002  1.00  0.00    -0.211 C  
ENDROOT
BRANCH   8  18
HETATM   18  C   UNL     1      -6.965  10.952  67.080  1.00  0.00    -0.105 C  
BRANCH  18  19
HETATM   19  C   UNL     1      -6.889  10.611  65.631  1.00  0.00    -0.075 A  
HETATM   20  C   UNL     1      -5.502  10.338  63.686  1.00  0.00    -0.140 A  
HETATM   21  C   UNL     1      -6.644  10.162  62.914  1.00  0.00    -0.133 A  
HETATM   22  C   UNL     1      -8.029  10.406  64.854  1.00  0.00    -0.115 A  
HETATM   23  C   UNL     1      -7.929  10.200  63.483  1.00  0.00    -0.161 A  
HETATM   24  C   UNL     1      -5.622  10.555  65.046  1.00  0.00    -0.140 A  
ENDBRANCH  18  19
ENDBRANCH   8  18
BRANCH  13  25
HETATM   25  N   UNL     1      -9.467   8.265  70.022  1.00  0.00    -0.166 N  
HETATM   26  O   UNL     1      -7.731   9.414  71.100  1.00  0.00    -0.318 OA 
HETATM   27  C   UNL     1      -8.461   8.430  71.025  1.00  0.00    -0.143 C  
HETATM   28  H   UNL     1     -10.205   7.571  70.139  1.00  0.00     0.000 HD 
BRANCH  27  29
HETATM   29  C   UNL     1      -8.339   7.233  71.987  1.00  0.00    -0.114 C  
HETATM   30  C   UNL     1      -7.512   5.885  71.638  1.00  0.00    -0.094 C  
HETATM   31  N   UNL     1      -6.597   5.005  73.013  1.00  0.00    -0.059 NA 
HETATM   32  C   UNL     1      -6.389   4.527  74.562  1.00  0.00    -0.053 C  
HETATM   33  C   UNL     1      -5.641   5.869  72.819  1.00  0.00    -0.031 C  
HETATM   34  C   UNL     1      -5.735   4.117  72.007  1.00  0.00    -0.008 C  
HETATM   35  C   UNL     1      -7.434   3.302  72.098  1.00  0.00    -0.053 A  
HETATM   36  C   UNL     1      -8.089   2.356  71.347  1.00  0.00    -0.054 A  
HETATM   37  N   UNL     1      -9.452   2.413  71.675  1.00  0.00    -0.120 NA 
HETATM   38  H   UNL     1     -10.151   1.810  71.240  1.00  0.00     0.000 HD 
HETATM   39  C   UNL     1      -9.770   3.364  72.645  1.00  0.00    -0.138 A  
HETATM   40  C   UNL     1     -10.989   3.812  73.177  1.00  0.00    -0.236 A  
HETATM   41  C   UNL     1     -10.988   4.920  74.074  1.00  0.00    -0.203 A  
HETATM   42  C   UNL     1      -9.846   5.679  74.403  1.00  0.00    -0.229 A  
HETATM   43  C   UNL     1      -8.629   5.340  73.826  1.00  0.00    -0.113 A  
HETATM   44  C   UNL     1      -8.600   4.003  72.988  1.00  0.00    -0.099 A  
HETATM   45  C   UNL     1      -7.183   6.527  73.731  1.00  0.00    -0.084 C  
HETATM   46  C   UNL     1      -7.594   7.692  73.201  1.00  0.00    -0.130 C  
ENDBRANCH  27  29
ENDBRANCH  13  25
TORSDOF 4
ENDMDL
MODEL       66
REMARK 921   NORMALIZED FREE ENERGY PREDICTED BY IDOCK:   -5.57 KCAL/MOL
REMARK 922        TOTAL FREE ENERGY PREDICTED BY IDOCK:   -7.73 KCAL/MOL
REMARK 923 INTER-LIGAND FREE ENERGY PREDICTED BY IDOCK:   -6.77 KCAL/MOL
REMARK 924 INTRA-LIGAND FREE ENERGY PREDICTED BY IDOCK:   -0.96 KCAL/MOL
REMARK 927      BINDING AFFINITY PREDICTED BY RF-SCORE:    0.00 PKD
ROOT
HETATM    1  C   UNL     1     -10.719  13.503  66.905  1.00  0.00    -0.274 A  
HETATM    2  C   UNL     1     -10.877  15.032  66.857  1.00  0.00    -0.315 A  
HETATM    3  C   UNL     1     -11.019  15.333  65.320  1.00  0.00    -0.403 A  
HETATM    4  C   UNL     1     -10.761  14.006  64.616  1.00  0.00    -0.399 A  
HETATM    5  N   UNL     1     -10.118  13.215  65.639  1.00  0.00    -0.285 N  
HETATM    6  C   UNL     1      -9.724  11.950  65.341  1.00  0.00    -0.207 C  
HETATM    7  O   UNL     1      -9.047  11.720  64.340  1.00  0.00     0.152 OA 
HETATM    8  C   UNL     1     -10.109  10.889  66.406  1.00  0.00    -0.280 C  
HETATM    9  O   UNL     1      -9.562  11.501  68.713  1.00  0.00    -0.181 OA 
HETATM   10  N   UNL     1     -11.233  11.418  67.536  1.00  0.00    -0.279 N  
HETATM   11  C   UNL     1     -11.555  10.809  68.786  1.00  0.00    -0.280 C  
HETATM   12  H   UNL     1     -11.033  12.547  69.959  1.00  0.00     0.000 HD 
HETATM   13  C   UNL     1     -10.307  10.086  69.128  1.00  0.00    -0.216 C  
HETATM   14  O   UNL     1     -12.603  10.875  69.408  1.00  0.00    -0.335 OA 
HETATM   15  O   UNL     1     -11.140  13.152  69.235  1.00  0.00    -0.226 OA 
HETATM   16  C   UNL     1     -11.022   8.843  68.394  1.00  0.00     0.071 C  
HETATM   17  C   UNL     1     -10.536  12.466  68.147  1.00  0.00    -0.216 C  
ENDROOT
BRANCH   8  18
HETATM   18  C   UNL     1     -10.260   9.587  65.620  1.00  0.00    -0.014 C  
BRANCH  18  19
HETATM   19  C   UNL     1      -9.134   8.628  65.803  1.00  0.00    -0.242 A  
HETATM   20  C   UNL     1      -8.423   6.463  66.571  1.00  0.00    -0.118 A  
HETATM   21  C   UNL     1      -7.102   6.833  66.347  1.00  0.00    -0.071 A  
HETATM   22  C   UNL     1      -7.808   8.981  65.553  1.00  0.00    -0.096 A  
HETATM   23  C   UNL     1      -6.770   8.102  65.840  1.00  0.00    -0.049 A  
HETATM   24  C   UNL     1      -9.440   7.356  66.294  1.00  0.00    -0.144 A  
ENDBRANCH  18  19
ENDBRANCH   8  18
BRANCH  13  25
HETATM   25  N   UNL     1      -9.660   9.499  70.286  1.00  0.00    -0.250 N  
HETATM   26  O   UNL     1      -7.703   8.944  69.120  1.00  0.00    -0.088 OA 
HETATM   27  C   UNL     1      -8.413   8.822  70.115  1.00  0.00    -0.137 C  
HETATM   28  H   UNL     1     -10.088   9.570  71.209  1.00  0.00     0.000 HD 
BRANCH  27  29
HETATM   29  C   UNL     1      -8.051   7.879  71.278  1.00  0.00    -0.101 C  
HETATM   30  C   UNL     1      -7.421   6.401  71.070  1.00  0.00    -0.085 C  
HETATM   31  N   UNL     1      -6.169   5.771  72.308  1.00  0.00    -0.040 NA 
HETATM   32  C   UNL     1      -5.521   5.649  73.803  1.00  0.00    -0.024 C  
HETATM   33  C   UNL     1      -5.283   6.450  71.636  1.00  0.00    -0.026 C  
HETATM   34  C   UNL     1      -5.686   4.579  71.364  1.00  0.00    -0.012 C  
HETATM   35  C   UNL     1      -7.308   4.007  72.139  1.00  0.00    -0.060 A  
HETATM   36  C   UNL     1      -8.196   2.992  71.875  1.00  0.00    -0.058 A  
HETATM   37  N   UNL     1      -9.393   3.279  72.548  1.00  0.00    -0.101 NA 
HETATM   38  H   UNL     1     -10.213   2.675  72.500  1.00  0.00     0.000 HD 
HETATM   39  C   UNL     1      -9.365   4.461  73.289  1.00  0.00    -0.119 A  
HETATM   40  C   UNL     1     -10.348   5.157  74.010  1.00  0.00    -0.299 A  
HETATM   41  C   UNL     1     -10.033   6.437  74.552  1.00  0.00    -0.370 A  
HETATM   42  C   UNL     1      -8.816   7.118  74.337  1.00  0.00    -0.238 A  
HETATM   43  C   UNL     1      -7.845   6.516  73.547  1.00  0.00    -0.091 A  
HETATM   44  C   UNL     1      -8.122   5.026  73.110  1.00  0.00    -0.104 A  
HETATM   45  C   UNL     1      -6.450   7.476  72.744  1.00  0.00    -0.060 C  
HETATM   46  C   UNL     1      -6.956   8.522  72.070  1.00  0.00    -0.102 C  
ENDBRANCH  27  29
ENDBRANCH  13  25
TORSDOF 4
ENDMDL
MODEL       67
REMARK 921   NORMALIZED FREE ENERGY PREDICTED BY IDOCK:   -5.49 KCAL/MOL
REMARK 922        TOTAL FREE ENERGY PREDICTED BY IDOCK:   -7.64 KCAL/MOL
REMARK 923 INTER-LIGAND FREE ENERGY PREDICTED BY IDOCK:   -6.92 KCAL/MOL
REMARK 924 INTRA-LIGAND FREE ENERGY PREDICTED BY IDOCK:   -0.72 KCAL/MOL
REMARK 927      BINDING AFFINITY PREDICTED BY RF-SCORE:    0.00 PKD
ROOT
HETATM    1  C   UNL     1      -6.996  13.187  69.102  1.00  0.00    -0.028 A  
HETATM    2  C   UNL     1      -5.800  13.901  69.752  1.00  0.00    -0.117 A  
HETATM    3  C   UNL     1      -6.276  15.398  69.841  1.00  0.00    -0.160 A  
HETATM    4  C   UNL     1      -7.603  15.452  69.094  1.00  0.00    -0.198 A  
HETATM    5  N   UNL     1      -7.592  14.229  68.324  1.00  0.00    -0.119 N  
HETATM    6  C   UNL     1      -8.643  13.958  67.508  1.00  0.00    -0.193 C  
HETATM    7  O   UNL     1      -9.048  14.795  66.702  1.00  0.00    -0.254 OA 
HETATM    8  C   UNL     1      -9.184  12.508  67.617  1.00  0.00    -0.190 C  
HETATM    9  O   UNL     1      -7.472  10.760  67.521  1.00  0.00    -0.090 OA 
HETATM   10  N   UNL     1      -8.624  11.659  68.953  1.00  0.00    -0.004 N  
HETATM   11  C   UNL     1      -8.686  10.249  69.171  1.00  0.00    -0.172 C  
HETATM   12  H   UNL     1      -6.547  10.014  69.365  1.00  0.00     0.000 HD 
HETATM   13  C   UNL     1      -8.716   9.707  67.792  1.00  0.00    -0.122 C  
HETATM   14  O   UNL     1      -8.710   9.652  70.235  1.00  0.00    -0.218 OA 
HETATM   15  O   UNL     1      -6.400  10.923  69.598  1.00  0.00    -0.071 OA 
HETATM   16  C   UNL     1     -10.314   9.758  67.983  1.00  0.00    -0.250 C  
HETATM   17  C   UNL     1      -7.248  11.629  68.703  1.00  0.00    -0.104 C  
ENDROOT
BRANCH   8  18
HETATM   18  C   UNL     1     -10.665  12.617  67.255  1.00  0.00    -0.259 C  
BRANCH  18  19
HETATM   19  C   UNL     1     -10.965  12.347  65.820  1.00  0.00    -0.333 A  
HETATM   20  C   UNL     1     -12.574  12.445  64.035  1.00  0.00    -0.510 A  
HETATM   21  C   UNL     1     -11.695  11.738  63.224  1.00  0.00    -0.340 A  
HETATM   22  C   UNL     1     -10.077  11.662  64.990  1.00  0.00    -0.305 A  
HETATM   23  C   UNL     1     -10.433  11.328  63.689  1.00  0.00    -0.464 A  
HETATM   24  C   UNL     1     -12.208  12.757  65.331  1.00  0.00    -0.532 A  
ENDBRANCH  18  19
ENDBRANCH   8  18
BRANCH  13  25
HETATM   25  N   UNL     1      -8.473   8.456  67.097  1.00  0.00    -0.122 N  
HETATM   26  O   UNL     1      -9.483   7.145  68.758  1.00  0.00    -0.142 OA 
HETATM   27  C   UNL     1      -8.771   7.226  67.761  1.00  0.00    -0.126 C  
HETATM   28  H   UNL     1      -8.096   8.456  66.149  1.00  0.00     0.000 HD 
BRANCH  27  29
HETATM   29  C   UNL     1      -8.077   5.999  67.138  1.00  0.00    -0.106 C  
HETATM   30  C   UNL     1      -8.454   5.401  65.681  1.00  0.00    -0.138 C  
HETATM   31  N   UNL     1      -7.091   4.683  64.620  1.00  0.00    -0.060 NA 
HETATM   32  C   UNL     1      -5.676   3.899  64.385  1.00  0.00    -0.014 C  
HETATM   33  C   UNL     1      -6.835   5.908  64.260  1.00  0.00    -0.050 C  
HETATM   34  C   UNL     1      -7.981   4.687  63.296  1.00  0.00    -0.083 C  
HETATM   35  C   UNL     1      -8.527   3.177  64.288  1.00  0.00    -0.089 A  
HETATM   36  C   UNL     1      -9.605   2.327  64.233  1.00  0.00    -0.132 A  
HETATM   37  N   UNL     1      -9.659   1.618  65.441  1.00  0.00    -0.331 NA 
HETATM   38  H   UNL     1     -10.381   0.928  65.646  1.00  0.00     0.000 HD 
HETATM   39  C   UNL     1      -8.639   1.937  66.339  1.00  0.00    -0.112 A  
HETATM   40  C   UNL     1      -8.382   1.552  67.664  1.00  0.00    -0.078 A  
HETATM   41  C   UNL     1      -7.313   2.176  68.371  1.00  0.00    -0.047 A  
HETATM   42  C   UNL     1      -6.536   3.240  67.868  1.00  0.00    -0.037 A  
HETATM   43  C   UNL     1      -6.815   3.727  66.597  1.00  0.00    -0.054 A  
HETATM   44  C   UNL     1      -7.866   2.912  65.750  1.00  0.00    -0.081 A  
HETATM   45  C   UNL     1      -6.265   5.421  66.015  1.00  0.00    -0.034 C  
HETATM   46  C   UNL     1      -6.639   6.346  66.915  1.00  0.00    -0.055 C  
ENDBRANCH  27  29
ENDBRANCH  13  25
TORSDOF 4
ENDMDL
MODEL       68
REMARK 921   NORMALIZED FREE ENERGY PREDICTED BY IDOCK:   -5.48 KCAL/MOL
REMARK 922        TOTAL FREE ENERGY PREDICTED BY IDOCK:   -7.62 KCAL/MOL
REMARK 923 INTER-LIGAND FREE ENERGY PREDICTED BY IDOCK:   -7.36 KCAL/MOL
REMARK 924 INTRA-LIGAND FREE ENERGY PREDICTED BY IDOCK:   -0.26 KCAL/MOL
REMARK 927      BINDING AFFINITY PREDICTED BY RF-SCORE:    0.00 PKD
ROOT
HETATM    1  C   UNL     1      -9.373   9.130  66.159  1.00  0.00    -0.228 A  
HETATM    2  C   UNL     1      -8.550   7.914  65.705  1.00  0.00    -0.159 A  
HETATM    3  C   UNL     1      -9.222   6.714  66.468  1.00  0.00    -0.183 A  
HETATM    4  C   UNL     1     -10.240   7.346  67.410  1.00  0.00    -0.246 A  
HETATM    5  N   UNL     1      -9.824   8.730  67.456  1.00  0.00    -0.168 N  
HETATM    6  C   UNL     1     -10.517   9.597  68.238  1.00  0.00    -0.219 C  
HETATM    7  O   UNL     1     -10.753   9.335  69.416  1.00  0.00    -0.225 OA 
HETATM    8  C   UNL     1     -10.869  10.943  67.549  1.00  0.00    -0.324 C  
HETATM    9  O   UNL     1      -8.999  12.031  66.402  1.00  0.00    -0.203 OA 
HETATM   10  N   UNL     1     -10.654  10.945  65.883  1.00  0.00    -0.216 N  
HETATM   11  C   UNL     1     -10.595  12.080  65.020  1.00  0.00    -0.289 C  
HETATM   12  H   UNL     1      -8.616  11.627  64.280  1.00  0.00     0.000 HD 
HETATM   13  C   UNL     1     -10.115  13.152  65.923  1.00  0.00    -0.290 C  
HETATM   14  O   UNL     1     -10.876  12.139  63.834  1.00  0.00    -0.331 OA 
HETATM   15  O   UNL     1      -8.672  10.704  64.499  1.00  0.00    -0.183 OA 
HETATM   16  C   UNL     1     -11.683  13.453  66.131  1.00  0.00    -0.405 C  
HETATM   17  C   UNL     1      -9.278  10.711  65.784  1.00  0.00    -0.189 C  
ENDROOT
BRANCH   8  18
HETATM   18  C   UNL     1     -12.159  11.401  68.227  1.00  0.00    -0.079 C  
BRANCH  18  19
HETATM   19  C   UNL     1     -11.959  12.415  69.302  1.00  0.00    -0.308 A  
HETATM   20  C   UNL     1     -12.656  13.261  71.442  1.00  0.00    -0.365 A  
HETATM   21  C   UNL     1     -11.796  14.339  71.280  1.00  0.00    -0.219 A  
HETATM   22  C   UNL     1     -11.077  13.486  69.159  1.00  0.00    -0.271 A  
HETATM   23  C   UNL     1     -10.995  14.475  70.132  1.00  0.00    -0.057 A  
HETATM   24  C   UNL     1     -12.735  12.294  70.458  1.00  0.00    -0.058 A  
ENDBRANCH  18  19
ENDBRANCH   8  18
BRANCH  13  25
HETATM   25  N   UNL     1      -9.502  14.465  65.842  1.00  0.00    -0.515 N  
HETATM   26  O   UNL     1      -8.129  14.125  67.711  1.00  0.00    -0.138 OA 
HETATM   27  C   UNL     1      -8.629  14.890  66.891  1.00  0.00    -0.239 C  
HETATM   28  H   UNL     1      -9.691  15.076  65.047  1.00  0.00     0.000 HD 
BRANCH  27  29
HETATM   29  C   UNL     1      -8.403  16.413  66.935  1.00  0.00    -0.263 C  
HETATM   30  C   UNL     1      -7.924  17.209  68.261  1.00  0.00    -0.236 C  
HETATM   31  N   UNL     1      -6.781  18.678  68.069  1.00  0.00    -0.218 NA 
HETATM   32  C   UNL     1      -6.195  19.985  67.282  1.00  0.00    -0.184 C  
HETATM   33  C   UNL     1      -5.810  17.812  68.008  1.00  0.00    -0.156 C  
HETATM   34  C   UNL     1      -6.396  18.709  69.617  1.00  0.00    -0.216 C  
HETATM   35  C   UNL     1      -8.092  19.525  69.485  1.00  0.00     0.182 A  
HETATM   36  C   UNL     1      -9.072  19.861  70.387  1.00  0.00     1.406 A  
HETATM   37  N   UNL     1     -10.252  20.110  69.671  1.00  0.00    -0.406 NA 
HETATM   38  H   UNL     1     -11.129  20.370  70.122  1.00  0.00     0.000 HD 
HETATM   39  C   UNL     1     -10.124  19.971  68.288  1.00  0.00    -0.400 A  
HETATM   40  C   UNL     1     -11.051  20.024  67.236  1.00  0.00     0.055 A  
HETATM   41  C   UNL     1     -10.621  19.694  65.917  1.00  0.00    -0.566 A  
HETATM   42  C   UNL     1      -9.334  19.216  65.593  1.00  0.00     0.520 A  
HETATM   43  C   UNL     1      -8.408  19.048  66.614  1.00  0.00    -0.310 A  
HETATM   44  C   UNL     1      -8.825  19.593  68.035  1.00  0.00    -0.371 A  
HETATM   45  C   UNL     1      -6.897  17.953  66.446  1.00  0.00    -0.277 C  
HETATM   46  C   UNL     1      -7.272  16.738  66.011  1.00  0.00     0.190 C  
ENDBRANCH  27  29
ENDBRANCH  13  25
TORSDOF 4
ENDMDL
MODEL       69
REMARK 921   NORMALIZED FREE ENERGY PREDICTED BY IDOCK:   -5.42 KCAL/MOL
REMARK 922        TOTAL FREE ENERGY PREDICTED BY IDOCK:   -7.55 KCAL/MOL
REMARK 923 INTER-LIGAND FREE ENERGY PREDICTED BY IDOCK:   -6.82 KCAL/MOL
REMARK 924 INTRA-LIGAND FREE ENERGY PREDICTED BY IDOCK:   -0.73 KCAL/MOL
REMARK 927      BINDING AFFINITY PREDICTED BY RF-SCORE:    0.00 PKD
ROOT
HETATM    1  C   UNL     1      -7.877   4.332  67.767  1.00  0.00    -0.083 A  
HETATM    2  C   UNL     1      -7.554   3.110  66.891  1.00  0.00    -0.075 A  
HETATM    3  C   UNL     1      -7.074   2.034  67.933  1.00  0.00    -0.047 A  
HETATM    4  C   UNL     1      -6.994   2.763  69.269  1.00  0.00    -0.040 A  
HETATM    5  N   UNL     1      -6.996   4.155  68.880  1.00  0.00    -0.047 N  
HETATM    6  C   UNL     1      -6.913   5.106  69.846  1.00  0.00    -0.057 C  
HETATM    7  O   UNL     1      -6.036   5.056  70.707  1.00  0.00    -0.017 OA 
HETATM    8  C   UNL     1      -7.926   6.271  69.689  1.00  0.00    -0.112 C  
HETATM    9  O   UNL     1      -8.037   7.245  67.446  1.00  0.00    -0.110 OA 
HETATM   10  N   UNL     1      -9.159   5.972  68.589  1.00  0.00    -0.117 N  
HETATM   11  C   UNL     1     -10.048   6.925  68.005  1.00  0.00    -0.166 C  
HETATM   12  H   UNL     1      -9.468   6.474  65.973  1.00  0.00     0.000 HD 
HETATM   13  C   UNL     1      -9.258   8.179  68.053  1.00  0.00    -0.132 C  
HETATM   14  O   UNL     1     -11.176   6.740  67.578  1.00  0.00    -0.287 OA 
HETATM   15  O   UNL     1      -9.142   5.608  66.186  1.00  0.00    -0.146 OA 
HETATM   16  C   UNL     1     -10.014   8.407  69.456  1.00  0.00    -0.190 C  
HETATM   17  C   UNL     1      -8.436   5.817  67.401  1.00  0.00    -0.103 C  
ENDROOT
BRANCH   8  18
HETATM   18  C   UNL     1      -8.178   6.761  71.115  1.00  0.00    -0.119 C  
BRANCH  18  19
HETATM   19  C   UNL     1      -9.186   5.962  71.868  1.00  0.00    -0.155 A  
HETATM   20  C   UNL     1     -10.782   5.893  73.665  1.00  0.00    -0.260 A  
HETATM   21  C   UNL     1     -10.951   4.532  73.443  1.00  0.00    -0.382 A  
HETATM   22  C   UNL     1      -9.383   4.601  71.633  1.00  0.00    -0.195 A  
HETATM   23  C   UNL     1     -10.249   3.860  72.427  1.00  0.00    -0.227 A  
HETATM   24  C   UNL     1      -9.906   6.612  72.874  1.00  0.00    -0.179 A  
ENDBRANCH  18  19
ENDBRANCH   8  18
BRANCH  13  25
HETATM   25  N   UNL     1      -9.241   9.491  67.432  1.00  0.00    -0.133 N  
HETATM   26  O   UNL     1      -7.453  10.267  68.734  1.00  0.00    -0.080 OA 
HETATM   27  C   UNL     1      -8.386  10.501  67.971  1.00  0.00    -0.116 C  
HETATM   28  H   UNL     1      -9.831   9.688  66.624  1.00  0.00     0.000 HD 
BRANCH  27  29
HETATM   29  C   UNL     1      -8.767  11.932  67.544  1.00  0.00    -0.163 C  
HETATM   30  C   UNL     1      -9.064  13.130  68.592  1.00  0.00     0.038 C  
HETATM   31  N   UNL     1      -8.550  14.871  68.143  1.00  0.00    -0.154 NA 
HETATM   32  C   UNL     1      -8.272  16.091  67.091  1.00  0.00    -0.195 C  
HETATM   33  C   UNL     1      -7.361  14.543  68.563  1.00  0.00    -0.120 C  
HETATM   34  C   UNL     1      -8.715  15.413  69.634  1.00  0.00    -0.134 C  
HETATM   35  C   UNL     1     -10.457  15.332  68.912  1.00  0.00    -0.241 A  
HETATM   36  C   UNL     1     -11.722  15.383  69.443  1.00  0.00    -0.351 A  
HETATM   37  N   UNL     1     -12.618  14.912  68.472  1.00  0.00    -0.302 NA 
HETATM   38  H   UNL     1     -13.623  14.844  68.633  1.00  0.00     0.000 HD 
HETATM   39  C   UNL     1     -12.017  14.542  67.268  1.00  0.00    -0.344 A  
HETATM   40  C   UNL     1     -12.512  13.940  66.101  1.00  0.00    -0.478 A  
HETATM   41  C   UNL     1     -11.597  13.555  65.079  1.00  0.00    -0.345 A  
HETATM   42  C   UNL     1     -10.194  13.645  65.188  1.00  0.00    -0.349 A  
HETATM   43  C   UNL     1      -9.646  14.141  66.364  1.00  0.00    -0.310 A  
HETATM   44  C   UNL     1     -10.662  14.741  67.411  1.00  0.00    -0.281 A  
HETATM   45  C   UNL     1      -7.868  13.832  66.866  1.00  0.00     0.283 C  
HETATM   46  C   UNL     1      -7.607  12.515  66.800  1.00  0.00     0.199 C  
ENDBRANCH  27  29
ENDBRANCH  13  25
TORSDOF 4
ENDMDL
MODEL       70
REMARK 921   NORMALIZED FREE ENERGY PREDICTED BY IDOCK:   -5.34 KCAL/MOL
REMARK 922        TOTAL FREE ENERGY PREDICTED BY IDOCK:   -7.45 KCAL/MOL
REMARK 923 INTER-LIGAND FREE ENERGY PREDICTED BY IDOCK:   -7.42 KCAL/MOL
REMARK 924 INTRA-LIGAND FREE ENERGY PREDICTED BY IDOCK:   -0.02 KCAL/MOL
REMARK 927      BINDING AFFINITY PREDICTED BY RF-SCORE:    0.00 PKD
ROOT
HETATM    1  C   UNL     1     -10.180  14.082  66.220  1.00  0.00    -0.296 A  
HETATM    2  C   UNL     1     -11.458  14.691  65.620  1.00  0.00    -0.340 A  
HETATM    3  C   UNL     1     -11.033  16.168  65.285  1.00  0.00    -0.280 A  
HETATM    4  C   UNL     1      -9.634  16.334  65.866  1.00  0.00    -0.301 A  
HETATM    5  N   UNL     1      -9.530  15.224  66.785  1.00  0.00    -0.232 N  
HETATM    6  C   UNL     1      -8.390  15.076  67.508  1.00  0.00    -0.176 C  
HETATM    7  O   UNL     1      -7.922  16.016  68.148  1.00  0.00    -0.138 OA 
HETATM    8  C   UNL     1      -7.827  13.630  67.529  1.00  0.00    -0.185 C  
HETATM    9  O   UNL     1      -9.474  11.891  68.041  1.00  0.00    -0.184 OA 
HETATM   10  N   UNL     1      -8.507  12.605  66.385  1.00  0.00     0.132 N  
HETATM   11  C   UNL     1      -8.433  11.180  66.347  1.00  0.00    -0.167 C  
HETATM   12  H   UNL     1     -10.574  10.897  66.424  1.00  0.00     0.000 HD 
HETATM   13  C   UNL     1      -8.240  10.825  67.774  1.00  0.00    -0.112 C  
HETATM   14  O   UNL     1      -8.510  10.447  65.374  1.00  0.00    -0.158 OA 
HETATM   15  O   UNL     1     -10.768  11.766  66.093  1.00  0.00    -0.257 OA 
HETATM   16  C   UNL     1      -6.674  10.868  67.401  1.00  0.00    -0.078 C  
HETATM   17  C   UNL     1      -9.847  12.594  66.789  1.00  0.00    -0.235 C  
ENDROOT
BRANCH   8  18
HETATM   18  C   UNL     1      -6.319  13.802  67.707  1.00  0.00    -0.171 C  
BRANCH  18  19
HETATM   19  C   UNL     1      -5.901  14.126  69.101  1.00  0.00    -0.087 A  
HETATM   20  C   UNL     1      -5.756  13.406  71.390  1.00  0.00    -0.060 A  
HETATM   21  C   UNL     1      -5.322  14.677  71.748  1.00  0.00    -0.113 A  
HETATM   22  C   UNL     1      -5.438  15.391  69.463  1.00  0.00    -0.101 A  
HETATM   23  C   UNL     1      -5.162  15.695  70.791  1.00  0.00    -0.160 A  
HETATM   24  C   UNL     1      -6.039  13.126  70.067  1.00  0.00    -0.113 A  
ENDBRANCH  18  19
ENDBRANCH   8  18
BRANCH  13  25
HETATM   25  N   UNL     1      -8.373   9.675  68.648  1.00  0.00    -0.112 N  
HETATM   26  O   UNL     1      -8.718   8.167  66.886  1.00  0.00    -0.123 OA 
HETATM   27  C   UNL     1      -8.765   8.420  68.086  1.00  0.00    -0.143 C  
HETATM   28  H   UNL     1      -8.190   9.760  69.647  1.00  0.00     0.000 HD 
BRANCH  27  29
HETATM   29  C   UNL     1      -9.301   7.414  69.124  1.00  0.00    -0.146 C  
HETATM   30  C   UNL     1      -9.320   7.698  70.718  1.00  0.00    -0.162 C  
HETATM   31  N   UNL     1     -10.741   7.031  71.737  1.00  0.00    -0.216 NA 
HETATM   32  C   UNL     1     -11.903   5.938  72.090  1.00  0.00    -0.186 C  
HETATM   33  C   UNL     1     -11.406   8.082  71.350  1.00  0.00    -0.256 C  
HETATM   34  C   UNL     1     -10.401   7.949  72.996  1.00  0.00    -0.334 C  
HETATM   35  C   UNL     1      -9.182   6.511  73.055  1.00  0.00    -0.141 A  
HETATM   36  C   UNL     1      -8.016   6.265  73.737  1.00  0.00    -0.099 A  
HETATM   37  N   UNL     1      -7.366   5.191  73.110  1.00  0.00    -0.089 NA 
HETATM   38  H   UNL     1      -6.469   4.825  73.428  1.00  0.00     0.000 HD 
HETATM   39  C   UNL     1      -8.052   4.668  72.014  1.00  0.00    -0.101 A  
HETATM   40  C   UNL     1      -7.724   3.687  71.065  1.00  0.00    -0.047 A  
HETATM   41  C   UNL     1      -8.598   3.473  69.959  1.00  0.00    -0.107 A  
HETATM   42  C   UNL     1      -9.743   4.250  69.685  1.00  0.00    -0.284 A  
HETATM   43  C   UNL     1     -10.058   5.299  70.538  1.00  0.00    -0.315 A  
HETATM   44  C   UNL     1      -9.201   5.410  71.858  1.00  0.00    -0.155 A  
HETATM   45  C   UNL     1     -11.183   6.712  70.040  1.00  0.00    -0.425 C  
HETATM   46  C   UNL     1     -10.764   7.228  68.872  1.00  0.00    -0.173 C  
ENDBRANCH  27  29
ENDBRANCH  13  25
TORSDOF 4
ENDMDL
MODEL       71
REMARK 921   NORMALIZED FREE ENERGY PREDICTED BY IDOCK:   -5.33 KCAL/MOL
REMARK 922        TOTAL FREE ENERGY PREDICTED BY IDOCK:   -7.44 KCAL/MOL
REMARK 923 INTER-LIGAND FREE ENERGY PREDICTED BY IDOCK:   -7.14 KCAL/MOL
REMARK 924 INTRA-LIGAND FREE ENERGY PREDICTED BY IDOCK:   -0.31 KCAL/MOL
REMARK 927      BINDING AFFINITY PREDICTED BY RF-SCORE:    0.00 PKD
ROOT
HETATM    1  C   UNL     1      -7.883  15.718  66.984  1.00  0.00    -0.236 A  
HETATM    2  C   UNL     1      -7.054  16.958  66.612  1.00  0.00    -0.289 A  
HETATM    3  C   UNL     1      -8.120  18.114  66.590  1.00  0.00    -0.283 A  
HETATM    4  C   UNL     1      -9.470  17.431  66.776  1.00  0.00    -0.273 A  
HETATM    5  N   UNL     1      -9.179  16.048  66.475  1.00  0.00    -0.250 N  
HETATM    6  C   UNL     1     -10.186  15.140  66.524  1.00  0.00    -0.276 C  
HETATM    7  O   UNL     1     -11.245  15.339  65.932  1.00  0.00    -0.322 OA 
HETATM    8  C   UNL     1      -9.835  13.832  67.282  1.00  0.00    -0.241 C  
HETATM    9  O   UNL     1      -7.706  12.809  66.638  1.00  0.00     0.162 OA 
HETATM   10  N   UNL     1      -8.430  13.918  68.197  1.00  0.00    -0.163 N  
HETATM   11  C   UNL     1      -7.689  12.830  68.749  1.00  0.00     0.007 C  
HETATM   12  H   UNL     1      -5.861  13.325  67.707  1.00  0.00     0.000 HD 
HETATM   13  C   UNL     1      -8.019  11.712  67.833  1.00  0.00    -0.132 C  
HETATM   14  O   UNL     1      -6.966  12.833  69.733  1.00  0.00     0.158 OA 
HETATM   15  O   UNL     1      -6.102  14.234  67.578  1.00  0.00    -0.328 OA 
HETATM   16  C   UNL     1      -9.182  11.399  68.902  1.00  0.00    -0.035 C  
HETATM   17  C   UNL     1      -7.471  14.159  67.207  1.00  0.00    -0.042 C  
ENDROOT
BRANCH   8  18
HETATM   18  C   UNL     1     -11.168  13.336  67.840  1.00  0.00    -0.302 C  
BRANCH  18  19
HETATM   19  C   UNL     1     -11.458  13.793  69.229  1.00  0.00    -0.344 A  
HETATM   20  C   UNL     1     -12.717  13.457  71.250  1.00  0.00    -0.424 A  
HETATM   21  C   UNL     1     -12.201  14.645  71.752  1.00  0.00    -0.409 A  
HETATM   22  C   UNL     1     -10.922  14.970  69.751  1.00  0.00    -0.291 A  
HETATM   23  C   UNL     1     -11.299  15.427  71.009  1.00  0.00    -0.411 A  
HETATM   24  C   UNL     1     -12.341  13.025  69.992  1.00  0.00    -0.222 A  
ENDBRANCH  18  19
ENDBRANCH   8  18
BRANCH  13  25
HETATM   25  N   UNL     1      -7.506  10.406  67.463  1.00  0.00    -0.092 N  
HETATM   26  O   UNL     1      -8.642  10.356  65.413  1.00  0.00    -0.162 OA 
HETATM   27  C   UNL     1      -8.016   9.768  66.290  1.00  0.00    -0.109 C  
HETATM   28  H   UNL     1      -6.791   9.952  68.031  1.00  0.00     0.000 HD 
BRANCH  27  29
HETATM   29  C   UNL     1      -7.750   8.251  66.242  1.00  0.00    -0.097 C  
HETATM   30  C   UNL     1      -7.598   7.412  64.865  1.00  0.00    -0.105 C  
HETATM   31  N   UNL     1      -6.388   5.986  64.805  1.00  0.00    -0.033 NA 
HETATM   32  C   UNL     1      -5.569   4.732  65.457  1.00  0.00    -0.014 C  
HETATM   33  C   UNL     1      -5.468   6.882  64.583  1.00  0.00    -0.031 C  
HETATM   34  C   UNL     1      -6.414   5.900  63.212  1.00  0.00    -0.028 C  
HETATM   35  C   UNL     1      -7.985   5.042  63.806  1.00  0.00    -0.098 A  
HETATM   36  C   UNL     1      -9.150   4.639  63.200  1.00  0.00    -0.090 A  
HETATM   37  N   UNL     1     -10.096   4.388  64.205  1.00  0.00    -0.388 NA 
HETATM   38  H   UNL     1     -11.049   4.084  64.005  1.00  0.00     0.000 HD 
HETATM   39  C   UNL     1      -9.622   4.590  65.502  1.00  0.00    -0.185 A  
HETATM   40  C   UNL     1     -10.244   4.556  66.760  1.00  0.00    -0.174 A  
HETATM   41  C   UNL     1      -9.502   4.955  67.910  1.00  0.00    -0.172 A  
HETATM   42  C   UNL     1      -8.195   5.483  67.874  1.00  0.00    -0.100 A  
HETATM   43  C   UNL     1      -7.570   5.633  66.643  1.00  0.00    -0.092 A  
HETATM   44  C   UNL     1      -8.317   5.015  65.398  1.00  0.00    -0.132 A  
HETATM   45  C   UNL     1      -6.110   6.777  66.377  1.00  0.00    -0.033 C  
HETATM   46  C   UNL     1      -6.407   7.999  66.852  1.00  0.00    -0.055 C  
ENDBRANCH  27  29
ENDBRANCH  13  25
TORSDOF 4
ENDMDL
MODEL       72
REMARK 921   NORMALIZED FREE ENERGY PREDICTED BY IDOCK:   -5.31 KCAL/MOL
REMARK 922        TOTAL FREE ENERGY PREDICTED BY IDOCK:   -7.41 KCAL/MOL
REMARK 923 INTER-LIGAND FREE ENERGY PREDICTED BY IDOCK:   -6.59 KCAL/MOL
REMARK 924 INTRA-LIGAND FREE ENERGY PREDICTED BY IDOCK:   -0.83 KCAL/MOL
REMARK 927      BINDING AFFINITY PREDICTED BY RF-SCORE:    0.00 PKD
ROOT
HETATM    1  C   UNL     1     -10.130   7.329  71.577  1.00  0.00    -0.186 A  
HETATM    2  C   UNL     1     -10.816   6.855  72.868  1.00  0.00    -0.318 A  
HETATM    3  C   UNL     1     -11.213   5.368  72.543  1.00  0.00    -0.305 A  
HETATM    4  C   UNL     1     -10.887   5.169  71.068  1.00  0.00     0.023 A  
HETATM    5  N   UNL     1     -10.762   6.523  70.578  1.00  0.00    -0.240 N  
HETATM    6  C   UNL     1     -10.488   6.722  69.263  1.00  0.00    -0.215 C  
HETATM    7  O   UNL     1     -11.151   6.167  68.389  1.00  0.00    -0.330 OA 
HETATM    8  C   UNL     1      -9.369   7.763  68.990  1.00  0.00    -0.150 C  
HETATM    9  O   UNL     1      -9.608   9.873  70.209  1.00  0.00    -0.239 OA 
HETATM   10  N   UNL     1      -8.467   8.180  70.344  1.00  0.00    -0.126 N  
HETATM   11  C   UNL     1      -7.595   9.301  70.491  1.00  0.00    -0.139 C  
HETATM   12  H   UNL     1      -8.667  10.129  72.175  1.00  0.00     0.000 HD 
HETATM   13  C   UNL     1      -8.157  10.280  69.530  1.00  0.00    -0.162 C  
HETATM   14  O   UNL     1      -6.629   9.412  71.228  1.00  0.00    -0.180 OA 
HETATM   15  O   UNL     1      -9.064   9.301  72.415  1.00  0.00    -0.017 OA 
HETATM   16  C   UNL     1      -7.088   9.643  68.509  1.00  0.00    -0.069 C  
HETATM   17  C   UNL     1      -9.448   8.749  71.164  1.00  0.00    -0.240 C  
ENDROOT
BRANCH   8  18
HETATM   18  C   UNL     1      -8.741   7.322  67.669  1.00  0.00    -0.125 C  
BRANCH  18  19
HETATM   19  C   UNL     1      -9.042   8.221  66.518  1.00  0.00    -0.219 A  
HETATM   20  C   UNL     1      -8.354   9.064  64.374  1.00  0.00    -0.183 A  
HETATM   21  C   UNL     1      -9.405   9.971  64.410  1.00  0.00    -0.348 A  
HETATM   22  C   UNL     1     -10.112   9.115  66.533  1.00  0.00    -0.357 A  
HETATM   23  C   UNL     1     -10.300  10.018  65.493  1.00  0.00    -0.146 A  
HETATM   24  C   UNL     1      -8.174   8.183  65.424  1.00  0.00    -0.147 A  
ENDBRANCH  18  19
ENDBRANCH   8  18
BRANCH  13  25
HETATM   25  N   UNL     1      -8.112  11.705  69.261  1.00  0.00    -0.346 N  
HETATM   26  O   UNL     1     -10.314  11.792  68.459  1.00  0.00    -0.207 OA 
HETATM   27  C   UNL     1      -9.210  12.317  68.579  1.00  0.00    -0.087 C  
HETATM   28  H   UNL     1      -7.309  12.262  69.553  1.00  0.00     0.000 HD 
BRANCH  27  29
HETATM   29  C   UNL     1      -8.873  13.688  67.962  1.00  0.00    -0.187 C  
HETATM   30  C   UNL     1      -8.477  14.991  68.837  1.00  0.00    -0.192 C  
HETATM   31  N   UNL     1      -7.211  16.188  68.154  1.00  0.00    -0.131 NA 
HETATM   32  C   UNL     1      -6.446  16.979  66.947  1.00  0.00    -0.213 C  
HETATM   33  C   UNL     1      -6.309  15.369  68.616  1.00  0.00    -0.095 C  
HETATM   34  C   UNL     1      -6.991  16.913  69.558  1.00  0.00    -0.073 C  
HETATM   35  C   UNL     1      -8.596  17.614  68.854  1.00  0.00    -0.118 A  
HETATM   36  C   UNL     1      -9.637  18.344  69.373  1.00  0.00     0.196 A  
HETATM   37  N   UNL     1     -10.712  18.263  68.476  1.00  0.00    -0.290 NA 
HETATM   38  H   UNL     1     -11.609  18.718  68.645  1.00  0.00     0.000 HD 
HETATM   39  C   UNL     1     -10.449  17.505  67.334  1.00  0.00    -0.342 A  
HETATM   40  C   UNL     1     -11.252  17.092  66.260  1.00  0.00     0.613 A  
HETATM   41  C   UNL     1     -10.712  16.188  65.299  1.00  0.00    -0.386 A  
HETATM   42  C   UNL     1      -9.439  15.588  65.394  1.00  0.00    -0.033 A  
HETATM   43  C   UNL     1      -8.641  15.886  66.492  1.00  0.00    -0.345 A  
HETATM   44  C   UNL     1      -9.163  17.027  67.447  1.00  0.00    -0.234 A  
HETATM   45  C   UNL     1      -7.210  14.804  67.032  1.00  0.00     0.261 C  
HETATM   46  C   UNL     1      -7.629  13.532  67.145  1.00  0.00     0.041 C  
ENDBRANCH  27  29
ENDBRANCH  13  25
TORSDOF 4
ENDMDL
MODEL       73
REMARK 921   NORMALIZED FREE ENERGY PREDICTED BY IDOCK:   -5.30 KCAL/MOL
REMARK 922        TOTAL FREE ENERGY PREDICTED BY IDOCK:   -7.40 KCAL/MOL
REMARK 923 INTER-LIGAND FREE ENERGY PREDICTED BY IDOCK:   -6.53 KCAL/MOL
REMARK 924 INTRA-LIGAND FREE ENERGY PREDICTED BY IDOCK:   -0.87 KCAL/MOL
REMARK 927      BINDING AFFINITY PREDICTED BY RF-SCORE:    0.00 PKD
ROOT
HETATM    1  C   UNL     1     -11.263  12.871  64.692  1.00  0.00    -0.320 A  
HETATM    2  C   UNL     1     -12.089  13.660  63.664  1.00  0.00    -0.397 A  
HETATM    3  C   UNL     1     -12.302  15.054  64.363  1.00  0.00    -0.283 A  
HETATM    4  C   UNL     1     -11.744  14.895  65.772  1.00  0.00    -0.179 A  
HETATM    5  N   UNL     1     -11.666  13.461  65.931  1.00  0.00    -0.340 N  
HETATM    6  C   UNL     1     -11.218  12.955  67.109  1.00  0.00    -0.289 C  
HETATM    7  O   UNL     1     -11.693  13.331  68.179  1.00  0.00    -0.320 OA 
HETATM    8  C   UNL     1     -10.167  11.822  66.962  1.00  0.00    -0.240 C  
HETATM    9  O   UNL     1     -10.768  10.059  65.373  1.00  0.00     0.099 OA 
HETATM   10  N   UNL     1      -9.516  11.676  65.421  1.00  0.00    -0.206 N  
HETATM   11  C   UNL     1      -8.777  10.574  64.895  1.00  0.00    -0.181 C  
HETATM   12  H   UNL     1     -10.156  10.207  63.272  1.00  0.00     0.000 HD 
HETATM   13  C   UNL     1      -9.274   9.434  65.701  1.00  0.00    -0.226 C  
HETATM   14  O   UNL     1      -7.945  10.583  64.002  1.00  0.00    -0.111 OA 
HETATM   15  O   UNL     1     -10.511  11.087  63.284  1.00  0.00    -0.337 OA 
HETATM   16  C   UNL     1      -8.012   9.765  66.645  1.00  0.00    -0.112 C  
HETATM   17  C   UNL     1     -10.654  11.361  64.671  1.00  0.00    -0.318 C  
ENDROOT
BRANCH   8  18
HETATM   18  C   UNL     1      -9.313  11.919  68.226  1.00  0.00    -0.193 C  
BRANCH  18  19
HETATM   19  C   UNL     1      -8.370  13.073  68.240  1.00  0.00    -0.158 A  
HETATM   20  C   UNL     1      -6.194  13.917  67.660  1.00  0.00    -0.109 A  
HETATM   21  C   UNL     1      -6.478  15.085  68.358  1.00  0.00    -0.104 A  
HETATM   22  C   UNL     1      -8.658  14.260  68.914  1.00  0.00    -0.030 A  
HETATM   23  C   UNL     1      -7.712  15.275  69.003  1.00  0.00    -0.183 A  
HETATM   24  C   UNL     1      -7.141  12.913  67.594  1.00  0.00    -0.151 A  
ENDBRANCH  18  19
ENDBRANCH   8  18
BRANCH  13  25
HETATM   25  N   UNL     1      -9.314   7.984  65.645  1.00  0.00    -0.413 N  
HETATM   26  O   UNL     1     -10.474   7.773  67.672  1.00  0.00    -0.226 OA 
HETATM   27  C   UNL     1      -9.811   7.261  66.773  1.00  0.00    -0.212 C  
HETATM   28  H   UNL     1      -8.993   7.489  64.813  1.00  0.00     0.000 HD 
BRANCH  27  29
HETATM   29  C   UNL     1      -9.401   5.776  66.791  1.00  0.00    -0.140 C  
HETATM   30  C   UNL     1      -7.948   5.254  67.279  1.00  0.00    -0.101 C  
HETATM   31  N   UNL     1      -7.832   3.621  68.185  1.00  0.00    -0.068 NA 
HETATM   32  C   UNL     1      -8.300   2.089  68.508  1.00  0.00    -0.057 C  
HETATM   33  C   UNL     1      -8.165   4.284  69.256  1.00  0.00    -0.070 C  
HETATM   34  C   UNL     1      -6.351   3.901  68.708  1.00  0.00    -0.033 C  
HETATM   35  C   UNL     1      -6.176   3.353  66.911  1.00  0.00    -0.028 A  
HETATM   36  C   UNL     1      -5.163   3.400  65.984  1.00  0.00    -0.009 A  
HETATM   37  N   UNL     1      -5.724   3.176  64.718  1.00  0.00    -0.013 NA 
HETATM   38  H   UNL     1      -5.171   3.173  63.861  1.00  0.00     0.000 HD 
HETATM   39  C   UNL     1      -7.102   2.960  64.732  1.00  0.00    -0.050 A  
HETATM   40  C   UNL     1      -8.052   2.803  63.711  1.00  0.00    -0.082 A  
HETATM   41  C   UNL     1      -9.434   2.737  64.055  1.00  0.00    -0.128 A  
HETATM   42  C   UNL     1      -9.942   2.916  65.358  1.00  0.00     0.372 A  
HETATM   43  C   UNL     1      -9.051   3.175  66.392  1.00  0.00    -0.164 A  
HETATM   44  C   UNL     1      -7.518   3.057  66.041  1.00  0.00    -0.073 A  
HETATM   45  C   UNL     1      -9.576   3.947  68.016  1.00  0.00    -0.189 C  
HETATM   46  C   UNL     1     -10.279   5.066  67.773  1.00  0.00    -0.156 C  
ENDBRANCH  27  29
ENDBRANCH  13  25
TORSDOF 4
ENDMDL
MODEL       74
REMARK 921   NORMALIZED FREE ENERGY PREDICTED BY IDOCK:   -5.29 KCAL/MOL
REMARK 922        TOTAL FREE ENERGY PREDICTED BY IDOCK:   -7.39 KCAL/MOL
REMARK 923 INTER-LIGAND FREE ENERGY PREDICTED BY IDOCK:   -7.06 KCAL/MOL
REMARK 924 INTRA-LIGAND FREE ENERGY PREDICTED BY IDOCK:   -0.33 KCAL/MOL
REMARK 927      BINDING AFFINITY PREDICTED BY RF-SCORE:    0.00 PKD
ROOT
HETATM    1  C   UNL     1     -10.487  13.256  66.389  1.00  0.00    -0.284 A  
HETATM    2  C   UNL     1     -10.910  14.452  65.523  1.00  0.00    -0.335 A  
HETATM    3  C   UNL     1     -11.376  15.520  66.580  1.00  0.00    -0.034 A  
HETATM    4  C   UNL     1     -11.348  14.804  67.925  1.00  0.00    -0.316 A  
HETATM    5  N   UNL     1     -11.310  13.409  67.550  1.00  0.00    -0.284 N  
HETATM    6  C   UNL     1     -11.298  12.466  68.527  1.00  0.00    -0.293 C  
HETATM    7  O   UNL     1     -12.125  12.490  69.437  1.00  0.00    -0.266 OA 
HETATM    8  C   UNL     1     -10.246  11.343  68.323  1.00  0.00    -0.204 C  
HETATM    9  O   UNL     1     -10.223  10.348  66.086  1.00  0.00    -0.232 OA 
HETATM   10  N   UNL     1      -9.092  11.680  67.151  1.00  0.00    -0.167 N  
HETATM   11  C   UNL     1      -8.199  10.758  66.526  1.00  0.00    -0.148 C  
HETATM   12  H   UNL     1      -8.912  11.161  64.526  1.00  0.00     0.000 HD 
HETATM   13  C   UNL     1      -8.931   9.473  66.630  1.00  0.00    -0.146 C  
HETATM   14  O   UNL     1      -7.106  10.985  66.033  1.00  0.00    -0.105 OA 
HETATM   15  O   UNL     1      -9.262  12.015  64.750  1.00  0.00     0.131 OA 
HETATM   16  C   UNL     1      -8.088   9.293  67.990  1.00  0.00    -0.104 C  
HETATM   17  C   UNL     1      -9.888  11.791  66.005  1.00  0.00    -0.232 C  
ENDROOT
BRANCH   8  18
HETATM   18  C   UNL     1      -9.893  10.879  69.736  1.00  0.00     0.304 C  
BRANCH  18  19
HETATM   19  C   UNL     1     -10.842   9.882  70.308  1.00  0.00    -0.367 A  
HETATM   20  C   UNL     1     -12.626   9.442  71.858  1.00  0.00    -0.481 A  
HETATM   21  C   UNL     1     -12.531   8.088  71.561  1.00  0.00    -0.334 A  
HETATM   22  C   UNL     1     -10.771   8.524  69.994  1.00  0.00    -0.234 A  
HETATM   23  C   UNL     1     -11.597   7.604  70.629  1.00  0.00    -0.251 A  
HETATM   24  C   UNL     1     -11.788  10.342  71.227  1.00  0.00    -0.425 A  
ENDBRANCH  18  19
ENDBRANCH   8  18
BRANCH  13  25
HETATM   25  N   UNL     1      -8.928   8.155  66.024  1.00  0.00    -0.183 N  
HETATM   26  O   UNL     1     -10.836   7.435  67.180  1.00  0.00    -0.331 OA 
HETATM   27  C   UNL     1      -9.849   7.171  66.499  1.00  0.00    -0.120 C  
HETATM   28  H   UNL     1      -8.278   7.934  65.269  1.00  0.00     0.000 HD 
BRANCH  27  29
HETATM   29  C   UNL     1      -9.468   5.727  66.120  1.00  0.00    -0.144 C  
HETATM   30  C   UNL     1      -8.016   5.076  66.419  1.00  0.00    -0.107 C  
HETATM   31  N   UNL     1      -7.914   3.262  66.866  1.00  0.00    -0.079 NA 
HETATM   32  C   UNL     1      -8.406   1.705  66.793  1.00  0.00    -0.084 C  
HETATM   33  C   UNL     1      -8.210   3.628  68.081  1.00  0.00    -0.083 C  
HETATM   34  C   UNL     1      -6.417   3.376  67.405  1.00  0.00    -0.037 C  
HETATM   35  C   UNL     1      -6.291   3.311  65.524  1.00  0.00    -0.032 A  
HETATM   36  C   UNL     1      -5.297   3.584  64.616  1.00  0.00    -0.009 A  
HETATM   37  N   UNL     1      -5.889   3.705  63.350  1.00  0.00    -0.013 NA 
HETATM   38  H   UNL     1      -5.355   3.916  62.507  1.00  0.00     0.000 HD 
HETATM   39  C   UNL     1      -7.271   3.511  63.342  1.00  0.00    -0.050 A  
HETATM   40  C   UNL     1      -8.245   3.638  62.340  1.00  0.00    -0.072 A  
HETATM   41  C   UNL     1      -9.621   3.504  62.691  1.00  0.00    -0.102 A  
HETATM   42  C   UNL     1     -10.097   3.346  64.009  1.00  0.00    -0.197 A  
HETATM   43  C   UNL     1      -9.179   3.314  65.051  1.00  0.00    -0.148 A  
HETATM   44  C   UNL     1      -7.656   3.270  64.642  1.00  0.00    -0.077 A  
HETATM   45  C   UNL     1      -9.654   3.645  66.833  1.00  0.00    -0.180 C  
HETATM   46  C   UNL     1     -10.339   4.798  66.907  1.00  0.00    -0.202 C  
ENDBRANCH  27  29
ENDBRANCH  13  25
TORSDOF 4
ENDMDL
MODEL       75
REMARK 921   NORMALIZED FREE ENERGY PREDICTED BY IDOCK:   -5.29 KCAL/MOL
REMARK 922        TOTAL FREE ENERGY PREDICTED BY IDOCK:   -7.39 KCAL/MOL
REMARK 923 INTER-LIGAND FREE ENERGY PREDICTED BY IDOCK:   -6.53 KCAL/MOL
REMARK 924 INTRA-LIGAND FREE ENERGY PREDICTED BY IDOCK:   -0.86 KCAL/MOL
REMARK 927      BINDING AFFINITY PREDICTED BY RF-SCORE:    0.00 PKD
ROOT
HETATM    1  C   UNL     1     -11.315  14.045  69.097  1.00  0.00    -0.281 A  
HETATM    2  C   UNL     1     -11.686  15.298  69.905  1.00  0.00    -0.349 A  
HETATM    3  C   UNL     1     -11.636  16.448  68.833  1.00  0.00    -0.147 A  
HETATM    4  C   UNL     1     -11.083  15.805  67.567  1.00  0.00    -0.258 A  
HETATM    5  N   UNL     1     -10.493  14.580  68.056  1.00  0.00    -0.234 N  
HETATM    6  C   UNL     1      -9.877  13.751  67.174  1.00  0.00    -0.242 C  
HETATM    7  O   UNL     1      -9.030  14.179  66.392  1.00  0.00    -0.174 OA 
HETATM    8  C   UNL     1     -10.259  12.254  67.327  1.00  0.00    -0.222 C  
HETATM    9  O   UNL     1     -10.163  11.395  69.617  1.00  0.00     0.110 OA 
HETATM   10  N   UNL     1     -11.606  11.977  68.290  1.00  0.00    -0.312 N  
HETATM   11  C   UNL     1     -12.021  10.737  68.861  1.00  0.00    -0.139 C  
HETATM   12  H   UNL     1     -11.943  11.455  70.898  1.00  0.00     0.000 HD 
HETATM   13  C   UNL     1     -10.747   9.989  68.976  1.00  0.00    -0.220 C  
HETATM   14  O   UNL     1     -13.149  10.391  69.173  1.00  0.00     0.532 OA 
HETATM   15  O   UNL     1     -12.027  12.368  70.650  1.00  0.00    -0.309 OA 
HETATM   16  C   UNL     1     -11.152   9.402  67.533  1.00  0.00     0.080 C  
HETATM   17  C   UNL     1     -11.172  12.479  69.521  1.00  0.00    -0.093 C  
ENDROOT
BRANCH   8  18
HETATM   18  C   UNL     1     -10.097  11.667  65.925  1.00  0.00    -0.267 C  
BRANCH  18  19
HETATM   19  C   UNL     1      -8.835  10.900  65.725  1.00  0.00    -0.202 A  
HETATM   20  C   UNL     1      -7.526   9.499  64.274  1.00  0.00    -0.119 A  
HETATM   21  C   UNL     1      -6.614   9.308  65.305  1.00  0.00    -0.073 A  
HETATM   22  C   UNL     1      -7.900  10.727  66.745  1.00  0.00    -0.135 A  
HETATM   23  C   UNL     1      -6.788   9.914  66.561  1.00  0.00    -0.085 A  
HETATM   24  C   UNL     1      -8.633  10.300  64.479  1.00  0.00    -0.195 A  
ENDBRANCH  18  19
ENDBRANCH   8  18
BRANCH  13  25
HETATM   25  N   UNL     1     -10.203   8.849  69.691  1.00  0.00    -0.200 N  
HETATM   26  O   UNL     1     -12.230   8.331  70.748  1.00  0.00    -0.165 OA 
HETATM   27  C   UNL     1     -11.013   8.191  70.668  1.00  0.00    -0.244 C  
HETATM   28  H   UNL     1      -9.256   8.521  69.498  1.00  0.00     0.000 HD 
BRANCH  27  29
HETATM   29  C   UNL     1     -10.214   7.317  71.653  1.00  0.00    -0.207 C  
HETATM   30  C   UNL     1      -8.747   6.712  71.327  1.00  0.00    -0.129 C  
HETATM   31  N   UNL     1      -7.500   6.571  72.714  1.00  0.00    -0.093 NA 
HETATM   32  C   UNL     1      -7.060   6.338  74.271  1.00  0.00    -0.086 C  
HETATM   33  C   UNL     1      -7.237   7.828  72.498  1.00  0.00    -0.084 C  
HETATM   34  C   UNL     1      -6.271   6.344  71.722  1.00  0.00    -0.042 C  
HETATM   35  C   UNL     1      -7.161   4.684  71.838  1.00  0.00    -0.061 A  
HETATM   36  C   UNL     1      -7.125   3.520  71.111  1.00  0.00    -0.033 A  
HETATM   37  N   UNL     1      -8.260   2.766  71.445  1.00  0.00    -0.061 NA 
HETATM   38  H   UNL     1      -8.464   1.859  71.027  1.00  0.00     0.000 HD 
HETATM   39  C   UNL     1      -9.085   3.364  72.397  1.00  0.00    -0.100 A  
HETATM   40  C   UNL     1     -10.337   3.015  72.927  1.00  0.00    -0.246 A  
HETATM   41  C   UNL     1     -10.998   3.927  73.801  1.00  0.00    -0.321 A  
HETATM   42  C   UNL     1     -10.529   5.221  74.109  1.00  0.00    -0.319 A  
HETATM   43  C   UNL     1      -9.342   5.656  73.531  1.00  0.00    -0.138 A  
HETATM   44  C   UNL     1      -8.522   4.579  72.721  1.00  0.00    -0.113 A  
HETATM   45  C   UNL     1      -8.877   7.466  73.405  1.00  0.00    -0.212 C  
HETATM   46  C   UNL     1      -9.892   8.151  72.853  1.00  0.00    -0.339 C  
ENDBRANCH  27  29
ENDBRANCH  13  25
TORSDOF 4
ENDMDL
MODEL       76
REMARK 921   NORMALIZED FREE ENERGY PREDICTED BY IDOCK:   -5.23 KCAL/MOL
REMARK 922        TOTAL FREE ENERGY PREDICTED BY IDOCK:   -7.31 KCAL/MOL
REMARK 923 INTER-LIGAND FREE ENERGY PREDICTED BY IDOCK:   -7.15 KCAL/MOL
REMARK 924 INTRA-LIGAND FREE ENERGY PREDICTED BY IDOCK:   -0.16 KCAL/MOL
REMARK 927      BINDING AFFINITY PREDICTED BY RF-SCORE:    0.00 PKD
ROOT
HETATM    1  C   UNL     1      -9.228   4.959  65.835  1.00  0.00    -0.155 A  
HETATM    2  C   UNL     1     -10.093   3.979  65.027  1.00  0.00    -0.203 A  
HETATM    3  C   UNL     1      -9.173   2.709  64.894  1.00  0.00    -0.139 A  
HETATM    4  C   UNL     1      -7.823   3.119  65.471  1.00  0.00    -0.085 A  
HETATM    5  N   UNL     1      -7.900   4.562  65.485  1.00  0.00    -0.093 N  
HETATM    6  C   UNL     1      -6.832   5.271  65.932  1.00  0.00    -0.061 C  
HETATM    7  O   UNL     1      -5.703   5.054  65.496  1.00  0.00    -0.017 OA 
HETATM    8  C   UNL     1      -7.187   6.410  66.925  1.00  0.00    -0.074 C  
HETATM    9  O   UNL     1      -9.023   7.864  66.210  1.00  0.00    -0.156 OA 
HETATM   10  N   UNL     1      -8.749   6.331  67.538  1.00  0.00    -0.107 N  
HETATM   11  C   UNL     1      -9.466   7.364  68.213  1.00  0.00    -0.142 C  
HETATM   12  H   UNL     1     -11.089   7.403  66.787  1.00  0.00     0.000 HD 
HETATM   13  C   UNL     1      -8.841   8.598  67.679  1.00  0.00    -0.136 C  
HETATM   14  O   UNL     1     -10.367   7.247  69.028  1.00  0.00    -0.195 OA 
HETATM   15  O   UNL     1     -10.925   6.522  66.475  1.00  0.00    -0.192 OA 
HETATM   16  C   UNL     1      -7.890   8.479  68.973  1.00  0.00    -0.104 C  
HETATM   17  C   UNL     1      -9.509   6.471  66.371  1.00  0.00    -0.126 C  
ENDROOT
BRANCH   8  18
HETATM   18  C   UNL     1      -5.948   6.557  67.807  1.00  0.00    -0.017 C  
BRANCH  18  19
HETATM   19  C   UNL     1      -5.863   5.561  68.913  1.00  0.00    -0.019 A  
HETATM   20  C   UNL     1      -5.226   5.111  71.187  1.00  0.00    -0.004 A  
HETATM   21  C   UNL     1      -5.498   3.764  70.982  1.00  0.00    -0.008 A  
HETATM   22  C   UNL     1      -6.161   4.211  68.723  1.00  0.00    -0.031 A  
HETATM   23  C   UNL     1      -5.964   3.289  69.744  1.00  0.00    -0.023 A  
HETATM   24  C   UNL     1      -5.414   6.012  70.157  1.00  0.00    -0.013 A  
ENDBRANCH  18  19
ENDBRANCH   8  18
BRANCH  13  25
HETATM   25  N   UNL     1      -9.129  10.016  67.569  1.00  0.00    -0.134 N  
HETATM   26  O   UNL     1     -10.067  10.162  69.713  1.00  0.00    -0.230 OA 
HETATM   27  C   UNL     1      -9.886  10.652  68.601  1.00  0.00    -0.179 C  
HETATM   28  H   UNL     1      -8.794  10.551  66.768  1.00  0.00     0.000 HD 
BRANCH  27  29
HETATM   29  C   UNL     1     -10.502  12.000  68.181  1.00  0.00    -0.218 C  
HETATM   30  C   UNL     1      -9.962  12.880  66.933  1.00  0.00    -0.238 C  
HETATM   31  N   UNL     1     -11.195  13.842  65.906  1.00  0.00    -0.300 NA 
HETATM   32  C   UNL     1     -12.573  14.695  65.690  1.00  0.00    -0.072 C  
HETATM   33  C   UNL     1     -11.413  12.726  65.270  1.00  0.00    -0.325 C  
HETATM   34  C   UNL     1     -10.162  14.092  64.716  1.00  0.00    -0.279 C  
HETATM   35  C   UNL     1      -9.726  15.344  66.059  1.00  0.00    -0.370 A  
HETATM   36  C   UNL     1      -8.646  16.158  66.302  1.00  0.00    -0.338 A  
HETATM   37  N   UNL     1      -8.726  16.596  67.632  1.00  0.00    -0.200 NA 
HETATM   38  H   UNL     1      -8.029  17.208  68.056  1.00  0.00     0.000 HD 
HETATM   39  C   UNL     1      -9.840  16.123  68.326  1.00  0.00    -0.224 A  
HETATM   40  C   UNL     1     -10.243  16.228  69.666  1.00  0.00    -0.216 A  
HETATM   41  C   UNL     1     -11.387  15.498  70.104  1.00  0.00    -0.339 A  
HETATM   42  C   UNL     1     -12.107  14.585  69.305  1.00  0.00    -0.325 A  
HETATM   43  C   UNL     1     -11.688  14.368  67.999  1.00  0.00    -0.374 A  
HETATM   44  C   UNL     1     -10.546  15.315  67.463  1.00  0.00    -0.273 A  
HETATM   45  C   UNL     1     -12.174  12.849  67.015  1.00  0.00    -0.155 C  
HETATM   46  C   UNL     1     -11.907  11.746  67.734  1.00  0.00    -0.266 C  
ENDBRANCH  27  29
ENDBRANCH  13  25
TORSDOF 4
ENDMDL
MODEL       77
REMARK 921   NORMALIZED FREE ENERGY PREDICTED BY IDOCK:   -5.16 KCAL/MOL
REMARK 922        TOTAL FREE ENERGY PREDICTED BY IDOCK:   -7.23 KCAL/MOL
REMARK 923 INTER-LIGAND FREE ENERGY PREDICTED BY IDOCK:   -6.84 KCAL/MOL
REMARK 924 INTRA-LIGAND FREE ENERGY PREDICTED BY IDOCK:   -0.40 KCAL/MOL
REMARK 927      BINDING AFFINITY PREDICTED BY RF-SCORE:    0.00 PKD
ROOT
HETATM    1  C   UNL     1      -8.964   8.040  69.445  1.00  0.00    -0.148 A  
HETATM    2  C   UNL     1      -9.314   7.001  70.522  1.00  0.00    -0.159 A  
HETATM    3  C   UNL     1      -9.417   5.657  69.711  1.00  0.00    -0.189 A  
HETATM    4  C   UNL     1      -9.293   6.053  68.244  1.00  0.00    -0.116 A  
HETATM    5  N   UNL     1      -9.551   7.475  68.269  1.00  0.00    -0.150 N  
HETATM    6  C   UNL     1      -9.539   8.164  67.099  1.00  0.00    -0.174 C  
HETATM    7  O   UNL     1     -10.193   7.776  66.132  1.00  0.00     0.045 OA 
HETATM    8  C   UNL     1      -8.738   9.492  67.143  1.00  0.00    -0.137 C  
HETATM    9  O   UNL     1      -9.243  10.936  69.055  1.00  0.00    -0.176 OA 
HETATM   10  N   UNL     1      -7.748   9.659  68.490  1.00  0.00    -0.081 N  
HETATM   11  C   UNL     1      -7.135  10.855  68.970  1.00  0.00    -0.095 C  
HETATM   12  H   UNL     1      -8.084  10.764  70.910  1.00  0.00     0.000 HD 
HETATM   13  C   UNL     1      -8.045  11.912  68.470  1.00  0.00    -0.130 C  
HETATM   14  O   UNL     1      -6.113  10.966  69.629  1.00  0.00    -0.055 OA 
HETATM   15  O   UNL     1      -8.244   9.829  70.862  1.00  0.00    -0.234 OA 
HETATM   16  C   UNL     1      -7.036  11.956  67.216  1.00  0.00    -0.145 C  
HETATM   17  C   UNL     1      -8.688   9.642  69.526  1.00  0.00    -0.185 C  
ENDROOT
BRANCH   8  18
HETATM   18  C   UNL     1      -8.244   9.697  65.712  1.00  0.00    -0.120 C  
BRANCH  18  19
HETATM   19  C   UNL     1      -7.137   8.783  65.309  1.00  0.00    -0.083 A  
HETATM   20  C   UNL     1      -6.130   7.468  63.566  1.00  0.00    -0.053 A  
HETATM   21  C   UNL     1      -5.234   6.951  64.494  1.00  0.00    -0.027 A  
HETATM   22  C   UNL     1      -6.216   8.281  66.229  1.00  0.00    -0.046 A  
HETATM   23  C   UNL     1      -5.265   7.343  65.843  1.00  0.00    -0.025 A  
HETATM   24  C   UNL     1      -7.078   8.389  63.970  1.00  0.00    -0.087 A  
ENDBRANCH  18  19
ENDBRANCH   8  18
BRANCH  13  25
HETATM   25  N   UNL     1      -8.361  13.304  68.730  1.00  0.00    -0.357 N  
HETATM   26  O   UNL     1      -9.048  13.734  66.531  1.00  0.00    -0.223 OA 
HETATM   27  C   UNL     1      -8.712  14.152  67.635  1.00  0.00    -0.187 C  
HETATM   28  H   UNL     1      -8.334  13.671  69.682  1.00  0.00     0.000 HD 
BRANCH  27  29
HETATM   29  C   UNL     1      -8.587  15.656  67.947  1.00  0.00    -0.163 C  
HETATM   30  C   UNL     1      -9.006  16.824  66.907  1.00  0.00    -0.244 C  
HETATM   31  N   UNL     1      -9.756  18.402  67.575  1.00  0.00    -0.290 NA 
HETATM   32  C   UNL     1      -9.944  19.574  68.699  1.00  0.00    -0.449 C  
HETATM   33  C   UNL     1     -10.888  17.758  67.601  1.00  0.00    -0.224 C  
HETATM   34  C   UNL     1     -10.282  18.877  66.145  1.00  0.00    -0.433 C  
HETATM   35  C   UNL     1      -8.440  19.284  66.185  1.00  0.00    -0.278 A  
HETATM   36  C   UNL     1      -7.508  19.623  65.235  1.00  0.00     0.182 A  
HETATM   37  N   UNL     1      -6.235  19.454  65.798  1.00  0.00    -0.190 NA 
HETATM   38  H   UNL     1      -5.373  19.634  65.282  1.00  0.00     0.000 HD 
HETATM   39  C   UNL     1      -6.247  19.018  67.123  1.00  0.00    -0.178 A  
HETATM   40  C   UNL     1      -5.229  18.633  68.009  1.00  0.00    -0.171 A  
HETATM   41  C   UNL     1      -5.584  18.091  69.279  1.00  0.00    -0.203 A  
HETATM   42  C   UNL     1      -6.905  17.815  69.688  1.00  0.00     0.066 A  
HETATM   43  C   UNL     1      -7.946  18.084  68.809  1.00  0.00    -0.255 A  
HETATM   44  C   UNL     1      -7.565  18.857  67.488  1.00  0.00    -0.246 A  
HETATM   45  C   UNL     1      -9.642  17.303  68.973  1.00  0.00    -0.171 C  
HETATM   46  C   UNL     1      -9.512  15.970  69.081  1.00  0.00    -0.253 C  
ENDBRANCH  27  29
ENDBRANCH  13  25
TORSDOF 4
ENDMDL
MODEL       78
REMARK 921   NORMALIZED FREE ENERGY PREDICTED BY IDOCK:   -5.16 KCAL/MOL
REMARK 922        TOTAL FREE ENERGY PREDICTED BY IDOCK:   -7.23 KCAL/MOL
REMARK 923 INTER-LIGAND FREE ENERGY PREDICTED BY IDOCK:   -7.44 KCAL/MOL
REMARK 924 INTRA-LIGAND FREE ENERGY PREDICTED BY IDOCK:    0.21 KCAL/MOL
REMARK 927      BINDING AFFINITY PREDICTED BY RF-SCORE:    0.00 PKD
ROOT
HETATM    1  C   UNL     1     -11.079  14.631  69.132  1.00  0.00    -0.268 A  
HETATM    2  C   UNL     1     -11.527  15.933  69.815  1.00  0.00    -0.342 A  
HETATM    3  C   UNL     1     -11.217  17.034  68.735  1.00  0.00     0.043 A  
HETATM    4  C   UNL     1     -10.472  16.314  67.617  1.00  0.00    -0.295 A  
HETATM    5  N   UNL     1     -10.050  15.084  68.247  1.00  0.00    -0.219 N  
HETATM    6  C   UNL     1      -9.325  14.192  67.525  1.00  0.00    -0.204 C  
HETATM    7  O   UNL     1      -8.326  14.547  66.903  1.00  0.00    -0.194 OA 
HETATM    8  C   UNL     1      -9.807  12.722  67.650  1.00  0.00    -0.214 C  
HETATM    9  O   UNL     1     -10.186  11.955  69.945  1.00  0.00     0.812 OA 
HETATM   10  N   UNL     1     -11.324  12.548  68.351  1.00  0.00    -0.267 N  
HETATM   11  C   UNL     1     -11.903  11.353  68.873  1.00  0.00    -0.347 C  
HETATM   12  H   UNL     1     -12.169  12.151  70.864  1.00  0.00     0.000 HD 
HETATM   13  C   UNL     1     -10.715  10.552  69.251  1.00  0.00    -0.234 C  
HETATM   14  O   UNL     1     -13.087  11.072  68.977  1.00  0.00     0.445 OA 
HETATM   15  O   UNL     1     -12.156  13.056  70.576  1.00  0.00    -0.355 OA 
HETATM   16  C   UNL     1     -10.874   9.926  67.776  1.00  0.00    -0.321 C  
HETATM   17  C   UNL     1     -11.101  13.080  69.626  1.00  0.00     0.091 C  
ENDROOT
BRANCH   8  18
HETATM   18  C   UNL     1      -9.418  12.070  66.324  1.00  0.00    -0.237 C  
BRANCH  18  19
HETATM   19  C   UNL     1     -10.358  12.358  65.203  1.00  0.00    -0.313 A  
HETATM   20  C   UNL     1     -12.234  13.636  64.411  1.00  0.00    -0.436 A  
HETATM   21  C   UNL     1     -12.260  12.858  63.260  1.00  0.00    -0.481 A  
HETATM   22  C   UNL     1     -10.373  11.599  64.032  1.00  0.00    -0.405 A  
HETATM   23  C   UNL     1     -11.334  11.820  63.053  1.00  0.00    -0.008 A  
HETATM   24  C   UNL     1     -11.279  13.393  65.380  1.00  0.00    -0.303 A  
ENDBRANCH  18  19
ENDBRANCH   8  18
BRANCH  13  25
HETATM   25  N   UNL     1     -10.375   9.418  70.091  1.00  0.00    -0.215 N  
HETATM   26  O   UNL     1      -8.886   8.496  68.533  1.00  0.00    -0.138 OA 
HETATM   27  C   UNL     1      -9.560   8.376  69.552  1.00  0.00    -0.170 C  
HETATM   28  H   UNL     1     -10.713   9.368  71.052  1.00  0.00     0.000 HD 
BRANCH  27  29
HETATM   29  C   UNL     1      -9.635   7.055  70.343  1.00  0.00    -0.169 C  
HETATM   30  C   UNL     1      -9.227   6.923  71.905  1.00  0.00    -0.144 C  
HETATM   31  N   UNL     1     -10.191   5.745  72.993  1.00  0.00    -0.180 NA 
HETATM   32  C   UNL     1     -11.047   4.382  73.278  1.00  0.00    -0.279 C  
HETATM   33  C   UNL     1     -11.071   6.698  73.107  1.00  0.00    -0.171 C  
HETATM   34  C   UNL     1      -9.624   6.371  74.346  1.00  0.00    -0.261 C  
HETATM   35  C   UNL     1      -8.262   5.247  73.679  1.00  0.00    -0.113 A  
HETATM   36  C   UNL     1      -6.926   5.086  73.954  1.00  0.00    -0.081 A  
HETATM   37  N   UNL     1      -6.352   4.361  72.900  1.00  0.00    -0.031 NA 
HETATM   38  H   UNL     1      -5.361   4.121  72.868  1.00  0.00     0.000 HD 
HETATM   39  C   UNL     1      -7.252   3.996  71.898  1.00  0.00    -0.058 A  
HETATM   40  C   UNL     1      -7.089   3.372  70.651  1.00  0.00    -0.034 A  
HETATM   41  C   UNL     1      -8.211   3.264  69.779  1.00  0.00    -0.073 A  
HETATM   42  C   UNL     1      -9.477   3.830  70.032  1.00  0.00    -0.264 A  
HETATM   43  C   UNL     1      -9.665   4.546  71.208  1.00  0.00    -0.252 A  
HETATM   44  C   UNL     1      -8.484   4.499  72.252  1.00  0.00    -0.110 A  
HETATM   45  C   UNL     1     -11.061   5.774  71.438  1.00  0.00    -0.273 C  
HETATM   46  C   UNL     1     -11.070   6.639  70.410  1.00  0.00    -0.374 C  
ENDBRANCH  27  29
ENDBRANCH  13  25
TORSDOF 4
ENDMDL
MODEL       79
REMARK 921   NORMALIZED FREE ENERGY PREDICTED BY IDOCK:   -5.15 KCAL/MOL
REMARK 922        TOTAL FREE ENERGY PREDICTED BY IDOCK:   -7.22 KCAL/MOL
REMARK 923 INTER-LIGAND FREE ENERGY PREDICTED BY IDOCK:   -6.98 KCAL/MOL
REMARK 924 INTRA-LIGAND FREE ENERGY PREDICTED BY IDOCK:   -0.24 KCAL/MOL
REMARK 927      BINDING AFFINITY PREDICTED BY RF-SCORE:    0.00 PKD
ROOT
HETATM    1  C   UNL     1      -9.907   7.380  69.956  1.00  0.00    -0.179 A  
HETATM    2  C   UNL     1     -10.352   6.434  71.082  1.00  0.00    -0.244 A  
HETATM    3  C   UNL     1     -10.554   5.060  70.343  1.00  0.00    -0.142 A  
HETATM    4  C   UNL     1     -10.382   5.364  68.859  1.00  0.00    -0.190 A  
HETATM    5  N   UNL     1     -10.525   6.800  68.803  1.00  0.00    -0.195 N  
HETATM    6  C   UNL     1     -10.445   7.421  67.598  1.00  0.00    -0.241 C  
HETATM    7  O   UNL     1     -11.117   7.034  66.644  1.00  0.00    -0.167 OA 
HETATM    8  C   UNL     1      -9.540   8.682  67.584  1.00  0.00    -0.190 C  
HETATM    9  O   UNL     1      -9.949  10.264  69.407  1.00  0.00    -0.214 OA 
HETATM   10  N   UNL     1      -8.555   8.843  68.934  1.00  0.00    -0.134 N  
HETATM   11  C   UNL     1      -7.853  10.011  69.359  1.00  0.00    -0.141 C  
HETATM   12  H   UNL     1      -8.828  10.102  71.286  1.00  0.00     0.000 HD 
HETATM   13  C   UNL     1      -8.670  11.108  68.788  1.00  0.00    -0.128 C  
HETATM   14  O   UNL     1      -6.833  10.076  70.026  1.00  0.00    -0.090 OA 
HETATM   15  O   UNL     1      -9.062   9.182  71.286  1.00  0.00    -0.234 OA 
HETATM   16  C   UNL     1      -7.647  11.003  67.549  1.00  0.00    -0.106 C  
HETATM   17  C   UNL     1      -9.505   8.958  69.955  1.00  0.00    -0.178 C  
ENDROOT
BRANCH   8  18
HETATM   18  C   UNL     1      -9.016   8.768  66.151  1.00  0.00    -0.225 C  
BRANCH  18  19
HETATM   19  C   UNL     1      -7.941   7.785  65.833  1.00  0.00    -0.107 A  
HETATM   20  C   UNL     1      -7.230   5.930  64.478  1.00  0.00    -0.063 A  
HETATM   21  C   UNL     1      -6.093   5.808  65.267  1.00  0.00    -0.029 A  
HETATM   22  C   UNL     1      -6.783   7.674  66.602  1.00  0.00    -0.062 A  
HETATM   23  C   UNL     1      -5.852   6.674  66.348  1.00  0.00    -0.021 A  
HETATM   24  C   UNL     1      -8.152   6.922  64.754  1.00  0.00    -0.095 A  
ENDBRANCH  18  19
ENDBRANCH   8  18
BRANCH  13  25
HETATM   25  N   UNL     1      -8.876  12.533  68.969  1.00  0.00    -0.227 N  
HETATM   26  O   UNL     1      -9.124  12.957  66.676  1.00  0.00    -0.225 OA 
HETATM   27  C   UNL     1      -8.941  13.376  67.816  1.00  0.00    -0.205 C  
HETATM   28  H   UNL     1      -8.973  12.927  69.904  1.00  0.00     0.000 HD 
BRANCH  27  29
HETATM   29  C   UNL     1      -8.712  14.868  68.122  1.00  0.00    -0.164 C  
HETATM   30  C   UNL     1      -9.055  16.059  67.079  1.00  0.00    -0.234 C  
HETATM   31  N   UNL     1      -9.692  17.687  67.745  1.00  0.00    -0.272 NA 
HETATM   32  C   UNL     1      -9.794  18.872  68.866  1.00  0.00    -0.390 C  
HETATM   33  C   UNL     1     -10.865  17.121  67.778  1.00  0.00    -0.270 C  
HETATM   34  C   UNL     1     -10.191  18.191  66.316  1.00  0.00    -0.395 C  
HETATM   35  C   UNL     1      -8.325  18.472  66.347  1.00  0.00    -0.278 A  
HETATM   36  C   UNL     1      -7.377  18.743  65.391  1.00  0.00     0.228 A  
HETATM   37  N   UNL     1      -6.115  18.489  65.949  1.00  0.00    -0.186 NA 
HETATM   38  H   UNL     1      -5.246  18.608  65.430  1.00  0.00     0.000 HD 
HETATM   39  C   UNL     1      -6.151  18.059  67.276  1.00  0.00    -0.151 A  
HETATM   40  C   UNL     1      -5.158  17.609  68.159  1.00  0.00    -0.137 A  
HETATM   41  C   UNL     1      -5.543  17.096  69.433  1.00  0.00    -0.182 A  
HETATM   42  C   UNL     1      -6.878  16.913  69.849  1.00  0.00     0.325 A  
HETATM   43  C   UNL     1      -7.903  17.249  68.973  1.00  0.00    -0.144 A  
HETATM   44  C   UNL     1      -7.476  17.990  67.647  1.00  0.00    -0.215 A  
HETATM   45  C   UNL     1      -9.647  16.587  69.146  1.00  0.00    -0.228 C  
HETATM   46  C   UNL     1      -9.608  15.249  69.259  1.00  0.00    -0.249 C  
ENDBRANCH  27  29
ENDBRANCH  13  25
TORSDOF 4
ENDMDL
MODEL       80
REMARK 921   NORMALIZED FREE ENERGY PREDICTED BY IDOCK:   -5.14 KCAL/MOL
REMARK 922        TOTAL FREE ENERGY PREDICTED BY IDOCK:   -7.20 KCAL/MOL
REMARK 923 INTER-LIGAND FREE ENERGY PREDICTED BY IDOCK:   -6.76 KCAL/MOL
REMARK 924 INTRA-LIGAND FREE ENERGY PREDICTED BY IDOCK:   -0.44 KCAL/MOL
REMARK 927      BINDING AFFINITY PREDICTED BY RF-SCORE:    0.00 PKD
ROOT
HETATM    1  C   UNL     1     -11.941  13.759  70.357  1.00  0.00    -0.315 A  
HETATM    2  C   UNL     1     -12.935  14.079  71.484  1.00  0.00    -0.427 A  
HETATM    3  C   UNL     1     -13.034  15.649  71.446  1.00  0.00    -0.555 A  
HETATM    4  C   UNL     1     -11.982  16.102  70.440  1.00  0.00    -0.085 A  
HETATM    5  N   UNL     1     -11.133  14.940  70.313  1.00  0.00    -0.224 N  
HETATM    6  C   UNL     1     -10.055  15.002  69.489  1.00  0.00    -0.166 C  
HETATM    7  O   UNL     1      -9.252  15.929  69.571  1.00  0.00    -0.255 OA 
HETATM    8  C   UNL     1      -9.891  13.776  68.552  1.00  0.00    -0.204 C  
HETATM    9  O   UNL     1     -10.078  11.600  69.659  1.00  0.00     0.346 OA 
HETATM   10  N   UNL     1     -11.244  12.785  68.465  1.00  0.00    -0.259 N  
HETATM   11  C   UNL     1     -11.311  11.455  67.951  1.00  0.00    -0.303 C  
HETATM   12  H   UNL     1     -12.023  10.593  69.800  1.00  0.00     0.000 HD 
HETATM   13  C   UNL     1      -9.927  10.961  68.142  1.00  0.00    -0.174 C  
HETATM   14  O   UNL     1     -12.276  10.880  67.472  1.00  0.00     0.083 OA 
HETATM   15  O   UNL     1     -12.366  11.415  70.130  1.00  0.00    -0.297 OA 
HETATM   16  C   UNL     1      -9.708  11.482  66.634  1.00  0.00    -0.221 C  
HETATM   17  C   UNL     1     -11.352  12.351  69.791  1.00  0.00    -0.053 C  
ENDROOT
BRANCH   8  18
HETATM   18  C   UNL     1      -9.175  14.324  67.317  1.00  0.00    -0.218 C  
BRANCH  18  19
HETATM   19  C   UNL     1     -10.074  14.996  66.336  1.00  0.00    -0.289 A  
HETATM   20  C   UNL     1     -11.686  14.750  64.569  1.00  0.00    -0.398 A  
HETATM   21  C   UNL     1     -11.650  16.124  64.365  1.00  0.00    -0.146 A  
HETATM   22  C   UNL     1     -10.065  16.377  66.144  1.00  0.00    -0.364 A  
HETATM   23  C   UNL     1     -10.833  16.962  65.144  1.00  0.00    -0.105 A  
HETATM   24  C   UNL     1     -10.905  14.184  65.559  1.00  0.00    -0.312 A  
ENDBRANCH  18  19
ENDBRANCH   8  18
BRANCH  13  25
HETATM   25  N   UNL     1      -9.208   9.702  68.199  1.00  0.00    -0.126 N  
HETATM   26  O   UNL     1     -11.102   8.455  68.793  1.00  0.00     0.101 OA 
HETATM   27  C   UNL     1      -9.881   8.540  68.688  1.00  0.00    -0.170 C  
HETATM   28  H   UNL     1      -8.236   9.647  67.894  1.00  0.00     0.000 HD 
BRANCH  27  29
HETATM   29  C   UNL     1      -8.932   7.406  69.120  1.00  0.00    -0.135 C  
HETATM   30  C   UNL     1      -9.432   5.907  69.477  1.00  0.00    -0.166 C  
HETATM   31  N   UNL     1      -8.338   4.458  69.027  1.00  0.00    -0.078 NA 
HETATM   32  C   UNL     1      -6.893   3.734  68.786  1.00  0.00    -0.046 C  
HETATM   33  C   UNL     1      -8.848   4.548  67.832  1.00  0.00    -0.107 C  
HETATM   34  C   UNL     1      -9.501   3.386  69.233  1.00  0.00    -0.142 C  
HETATM   35  C   UNL     1      -8.875   3.815  70.961  1.00  0.00    -0.134 A  
HETATM   36  C   UNL     1      -9.348   3.613  72.234  1.00  0.00    -0.122 A  
HETATM   37  N   UNL     1      -8.642   4.462  73.098  1.00  0.00    -0.101 NA 
HETATM   38  H   UNL     1      -8.820   4.504  74.101  1.00  0.00     0.000 HD 
HETATM   39  C   UNL     1      -7.675   5.246  72.468  1.00  0.00    -0.098 A  
HETATM   40  C   UNL     1      -6.837   6.275  72.924  1.00  0.00    -0.078 A  
HETATM   41  C   UNL     1      -6.041   6.990  71.982  1.00  0.00    -0.038 A  
HETATM   42  C   UNL     1      -6.101   6.806  70.585  1.00  0.00    -0.028 A  
HETATM   43  C   UNL     1      -6.988   5.869  70.072  1.00  0.00    -0.066 A  
HETATM   44  C   UNL     1      -7.723   4.951  71.124  1.00  0.00    -0.083 A  
HETATM   45  C   UNL     1      -7.565   5.884  68.289  1.00  0.00    -0.090 C  
HETATM   46  C   UNL     1      -8.015   7.110  67.975  1.00  0.00    -0.119 C  
ENDBRANCH  27  29
ENDBRANCH  13  25
TORSDOF 4
ENDMDL
MODEL       81
REMARK 921   NORMALIZED FREE ENERGY PREDICTED BY IDOCK:   -5.11 KCAL/MOL
REMARK 922        TOTAL FREE ENERGY PREDICTED BY IDOCK:   -7.16 KCAL/MOL
REMARK 923 INTER-LIGAND FREE ENERGY PREDICTED BY IDOCK:   -7.05 KCAL/MOL
REMARK 924 INTRA-LIGAND FREE ENERGY PREDICTED BY IDOCK:   -0.11 KCAL/MOL
REMARK 927      BINDING AFFINITY PREDICTED BY RF-SCORE:    0.00 PKD
ROOT
HETATM    1  C   UNL     1      -9.290   4.646  67.838  1.00  0.00    -0.134 A  
HETATM    2  C   UNL     1      -9.653   3.716  66.669  1.00  0.00    -0.168 A  
HETATM    3  C   UNL     1      -8.924   2.372  67.036  1.00  0.00    -0.160 A  
HETATM    4  C   UNL     1      -8.079   2.685  68.265  1.00  0.00    -0.057 A  
HETATM    5  N   UNL     1      -8.025   4.129  68.263  1.00  0.00    -0.077 N  
HETATM    6  C   UNL     1      -7.318   4.761  69.235  1.00  0.00    -0.053 C  
HETATM    7  O   UNL     1      -6.158   4.437  69.483  1.00  0.00    -0.024 OA 
HETATM    8  C   UNL     1      -8.058   5.954  69.894  1.00  0.00    -0.116 C  
HETATM    9  O   UNL     1      -9.072   7.533  68.322  1.00  0.00    -0.133 OA 
HETATM   10  N   UNL     1      -9.701   6.025  69.553  1.00  0.00    -0.144 N  
HETATM   11  C   UNL     1     -10.578   7.134  69.747  1.00  0.00    -0.234 C  
HETATM   12  H   UNL     1     -11.149   7.264  67.666  1.00  0.00     0.000 HD 
HETATM   13  C   UNL     1      -9.660   8.294  69.666  1.00  0.00    -0.167 C  
HETATM   14  O   UNL     1     -11.785   7.117  69.933  1.00  0.00    -0.129 OA 
HETATM   15  O   UNL     1     -10.918   6.363  67.477  1.00  0.00    -0.318 OA 
HETATM   16  C   UNL     1      -9.584   8.137  71.266  1.00  0.00    -0.203 C  
HETATM   17  C   UNL     1      -9.686   6.192  68.163  1.00  0.00    -0.120 C  
ENDROOT
BRANCH   8  18
HETATM   18  C   UNL     1      -7.495   6.025  71.314  1.00  0.00    -0.089 C  
BRANCH  18  19
HETATM   19  C   UNL     1      -8.150   5.097  72.278  1.00  0.00    -0.110 A  
HETATM   20  C   UNL     1      -8.193   4.191  74.505  1.00  0.00    -0.090 A  
HETATM   21  C   UNL     1      -9.172   3.291  74.105  1.00  0.00    -0.102 A  
HETATM   22  C   UNL     1      -9.154   4.209  71.892  1.00  0.00    -0.165 A  
HETATM   23  C   UNL     1      -9.666   3.279  72.789  1.00  0.00    -0.187 A  
HETATM   24  C   UNL     1      -7.685   5.100  73.596  1.00  0.00    -0.099 A  
ENDBRANCH  18  19
ENDBRANCH   8  18
BRANCH  13  25
HETATM   25  N   UNL     1      -9.717   9.728  69.445  1.00  0.00    -0.190 N  
HETATM   26  O   UNL     1     -11.898   9.938  70.277  1.00  0.00    -0.249 OA 
HETATM   27  C   UNL     1     -10.954  10.412  69.652  1.00  0.00    -0.277 C  
HETATM   28  H   UNL     1      -8.886  10.239  69.147  1.00  0.00     0.000 HD 
BRANCH  27  29
HETATM   29  C   UNL     1     -11.021  11.796  68.976  1.00  0.00    -0.276 C  
HETATM   30  C   UNL     1      -9.779  12.464  68.180  1.00  0.00    -0.214 C  
HETATM   31  N   UNL     1     -10.132  13.507  66.667  1.00  0.00    -0.270 NA 
HETATM   32  C   UNL     1     -11.034  14.539  65.778  1.00  0.00    -0.319 C  
HETATM   33  C   UNL     1     -10.197  12.385  66.009  1.00  0.00    -0.245 C  
HETATM   34  C   UNL     1      -8.615  13.484  66.173  1.00  0.00     0.764 C  
HETATM   35  C   UNL     1      -8.696  14.771  67.551  1.00  0.00    -0.195 A  
HETATM   36  C   UNL     1      -7.760  15.426  68.312  1.00  0.00    -0.115 A  
HETATM   37  N   UNL     1      -8.417  15.991  69.415  1.00  0.00    -0.215 NA 
HETATM   38  H   UNL     1      -7.931  16.524  70.136  1.00  0.00     0.000 HD 
HETATM   39  C   UNL     1      -9.793  15.762  69.441  1.00  0.00    -0.286 A  
HETATM   40  C   UNL     1     -10.789  16.050  70.387  1.00  0.00    -0.295 A  
HETATM   41  C   UNL     1     -12.108  15.550  70.179  1.00  0.00    -0.404 A  
HETATM   42  C   UNL     1     -12.478  14.690  69.124  1.00  0.00    -0.013 A  
HETATM   43  C   UNL     1     -11.507  14.292  68.215  1.00  0.00    -0.334 A  
HETATM   44  C   UNL     1     -10.101  14.997  68.338  1.00  0.00    -0.225 A  
HETATM   45  C   UNL     1     -11.696  12.783  67.120  1.00  0.00    -0.443 C  
HETATM   46  C   UNL     1     -12.030  11.723  67.874  1.00  0.00    -0.168 C  
ENDBRANCH  27  29
ENDBRANCH  13  25
TORSDOF 4
ENDMDL
MODEL       82
REMARK 921   NORMALIZED FREE ENERGY PREDICTED BY IDOCK:   -5.02 KCAL/MOL
REMARK 922        TOTAL FREE ENERGY PREDICTED BY IDOCK:   -7.05 KCAL/MOL
REMARK 923 INTER-LIGAND FREE ENERGY PREDICTED BY IDOCK:   -6.40 KCAL/MOL
REMARK 924 INTRA-LIGAND FREE ENERGY PREDICTED BY IDOCK:   -0.65 KCAL/MOL
REMARK 927      BINDING AFFINITY PREDICTED BY RF-SCORE:    0.00 PKD
ROOT
HETATM    1  C   UNL     1      -6.811  11.306  69.024  1.00  0.00    -0.099 A  
HETATM    2  C   UNL     1      -5.708  12.159  69.670  1.00  0.00    -0.100 A  
HETATM    3  C   UNL     1      -5.441  13.279  68.599  1.00  0.00    -0.076 A  
HETATM    4  C   UNL     1      -6.268  12.888  67.381  1.00  0.00    -0.103 A  
HETATM    5  N   UNL     1      -6.570  11.496  67.627  1.00  0.00    -0.071 N  
HETATM    6  C   UNL     1      -7.295  10.809  66.706  1.00  0.00    -0.129 C  
HETATM    7  O   UNL     1      -6.981  10.824  65.518  1.00  0.00    -0.090 OA 
HETATM    8  C   UNL     1      -8.445   9.955  67.303  1.00  0.00    -0.121 C  
HETATM    9  O   UNL     1      -7.805   8.550  69.203  1.00  0.00    -0.096 OA 
HETATM   10  N   UNL     1      -8.811  10.306  68.904  1.00  0.00    -0.147 N  
HETATM   11  C   UNL     1      -9.582   9.516  69.808  1.00  0.00    -0.216 C  
HETATM   12  H   UNL     1      -7.988   9.309  71.253  1.00  0.00     0.000 HD 
HETATM   13  C   UNL     1      -9.405   8.144  69.276  1.00  0.00    -0.151 C  
HETATM   14  O   UNL     1     -10.224   9.891  70.777  1.00  0.00    -0.240 OA 
HETATM   15  O   UNL     1      -7.524  10.082  70.953  1.00  0.00    -0.265 OA 
HETATM   16  C   UNL     1     -10.763   8.459  68.471  1.00  0.00    -0.069 C  
HETATM   17  C   UNL     1      -7.606   9.982  69.538  1.00  0.00    -0.133 C  
ENDROOT
BRANCH   8  18
HETATM   18  C   UNL     1      -9.499   9.895  66.197  1.00  0.00    -0.254 C  
BRANCH  18  19
HETATM   19  C   UNL     1     -10.187  11.191  65.938  1.00  0.00    -0.303 A  
HETATM   20  C   UNL     1     -11.594  12.943  66.794  1.00  0.00    -0.416 A  
HETATM   21  C   UNL     1     -11.644  13.504  65.524  1.00  0.00    -0.337 A  
HETATM   22  C   UNL     1     -10.219  11.776  64.672  1.00  0.00    -0.326 A  
HETATM   23  C   UNL     1     -10.963  12.927  64.438  1.00  0.00    -0.400 A  
HETATM   24  C   UNL     1     -10.860  11.791  67.005  1.00  0.00    -0.306 A  
ENDBRANCH  18  19
ENDBRANCH   8  18
BRANCH  13  25
HETATM   25  N   UNL     1      -9.553   6.768  69.713  1.00  0.00    -0.151 N  
HETATM   26  O   UNL     1      -9.716   7.331  71.983  1.00  0.00    -0.157 OA 
HETATM   27  C   UNL     1      -9.548   6.481  71.113  1.00  0.00    -0.171 C  
HETATM   28  H   UNL     1      -9.661   6.018  69.030  1.00  0.00     0.000 HD 
BRANCH  27  29
HETATM   29  C   UNL     1      -9.263   5.003  71.444  1.00  0.00    -0.184 C  
HETATM   30  C   UNL     1      -7.972   4.508  72.287  1.00  0.00    -0.097 C  
HETATM   31  N   UNL     1      -8.155   3.047  73.443  1.00  0.00    -0.071 NA 
HETATM   32  C   UNL     1      -8.791   1.614  73.903  1.00  0.00    -0.058 C  
HETATM   33  C   UNL     1      -8.632   3.896  74.309  1.00  0.00    -0.096 C  
HETATM   34  C   UNL     1      -6.782   3.345  74.199  1.00  0.00    -0.043 C  
HETATM   35  C   UNL     1      -6.313   2.495  72.581  1.00  0.00    -0.013 A  
HETATM   36  C   UNL     1      -5.143   2.340  71.878  1.00  0.00     0.000 A  
HETATM   37  N   UNL     1      -5.470   1.931  70.577  1.00  0.00    -0.011 NA 
HETATM   38  H   UNL     1      -4.768   1.758  69.858  1.00  0.00     0.000 HD 
HETATM   39  C   UNL     1      -6.839   1.781  70.351  1.00  0.00    -0.033 A  
HETATM   40  C   UNL     1      -7.588   1.496  69.199  1.00  0.00    -0.042 A  
HETATM   41  C   UNL     1      -9.011   1.551  69.267  1.00  0.00    -0.132 A  
HETATM   42  C   UNL     1      -9.741   1.970  70.399  1.00  0.00    -0.033 A  
HETATM   43  C   UNL     1      -9.044   2.359  71.536  1.00  0.00    -0.159 A  
HETATM   44  C   UNL     1      -7.485   2.116  71.520  1.00  0.00    -0.040 A  
HETATM   45  C   UNL     1      -9.805   3.417  72.882  1.00  0.00    -0.201 C  
HETATM   46  C   UNL     1     -10.362   4.509  72.331  1.00  0.00    -0.256 C  
ENDBRANCH  27  29
ENDBRANCH  13  25
TORSDOF 4
ENDMDL
MODEL       83
REMARK 921   NORMALIZED FREE ENERGY PREDICTED BY IDOCK:   -4.88 KCAL/MOL
REMARK 922        TOTAL FREE ENERGY PREDICTED BY IDOCK:   -6.88 KCAL/MOL
REMARK 923 INTER-LIGAND FREE ENERGY PREDICTED BY IDOCK:   -7.52 KCAL/MOL
REMARK 924 INTRA-LIGAND FREE ENERGY PREDICTED BY IDOCK:    0.63 KCAL/MOL
REMARK 927      BINDING AFFINITY PREDICTED BY RF-SCORE:    0.00 PKD
ROOT
HETATM    1  C   UNL     1     -10.103   7.407  67.287  1.00  0.00    -0.228 A  
HETATM    2  C   UNL     1     -10.103   6.449  66.085  1.00  0.00     0.139 A  
HETATM    3  C   UNL     1     -10.323   5.038  66.745  1.00  0.00    -0.290 A  
HETATM    4  C   UNL     1     -10.257   5.274  68.249  1.00  0.00    -0.134 A  
HETATM    5  N   UNL     1      -9.628   6.572  68.347  1.00  0.00    -0.123 N  
HETATM    6  C   UNL     1      -9.390   7.095  69.578  1.00  0.00    -0.148 C  
HETATM    7  O   UNL     1      -8.815   6.437  70.442  1.00  0.00    -0.148 OA 
HETATM    8  C   UNL     1      -9.805   8.582  69.734  1.00  0.00    -0.186 C  
HETATM    9  O   UNL     1      -9.033  10.061  67.942  1.00  0.00    -0.131 OA 
HETATM   10  N   UNL     1     -10.784   9.161  68.499  1.00  0.00    -0.164 N  
HETATM   11  C   UNL     1     -11.077  10.525  68.194  1.00  0.00    -0.287 C  
HETATM   12  H   UNL     1     -10.293  10.421  66.183  1.00  0.00     0.000 HD 
HETATM   13  C   UNL     1      -9.890  11.239  68.721  1.00  0.00    -0.184 C  
HETATM   14  O   UNL     1     -12.065  10.977  67.638  1.00  0.00    -0.447 OA 
HETATM   15  O   UNL     1     -10.389   9.478  66.122  1.00  0.00    -0.233 OA 
HETATM   16  C   UNL     1     -10.781  11.396  70.053  1.00  0.00     0.382 C  
HETATM   17  C   UNL     1      -9.940   9.023  67.391  1.00  0.00    -0.209 C  
ENDROOT
BRANCH   8  18
HETATM   18  C   UNL     1     -10.148   8.736  71.216  1.00  0.00    -0.336 C  
BRANCH  18  19
HETATM   19  C   UNL     1      -8.976   8.626  72.130  1.00  0.00    -0.270 A  
HETATM   20  C   UNL     1      -6.585   8.694  72.372  1.00  0.00    -0.066 A  
HETATM   21  C   UNL     1      -6.721   8.278  73.690  1.00  0.00    -0.145 A  
HETATM   22  C   UNL     1      -9.106   8.236  73.462  1.00  0.00    -0.208 A  
HETATM   23  C   UNL     1      -7.984   8.035  74.258  1.00  0.00    -0.297 A  
HETATM   24  C   UNL     1      -7.711   8.876  71.591  1.00  0.00    -0.061 A  
ENDBRANCH  18  19
ENDBRANCH   8  18
BRANCH  13  25
HETATM   25  N   UNL     1      -9.225  12.521  68.577  1.00  0.00    -0.373 N  
HETATM   26  O   UNL     1     -11.161  13.764  69.027  1.00  0.00    -0.252 OA 
HETATM   27  C   UNL     1     -10.009  13.715  68.604  1.00  0.00    -0.161 C  
HETATM   28  H   UNL     1      -8.213  12.568  68.459  1.00  0.00     0.000 HD 
BRANCH  27  29
HETATM   29  C   UNL     1      -9.294  14.943  68.008  1.00  0.00    -0.193 C  
HETATM   30  C   UNL     1      -8.206  15.827  68.820  1.00  0.00    -0.192 C  
HETATM   31  N   UNL     1      -6.758  16.556  67.887  1.00  0.00    -0.133 NA 
HETATM   32  C   UNL     1      -6.040  17.199  66.567  1.00  0.00    -0.202 C  
HETATM   33  C   UNL     1      -6.190  15.391  68.018  1.00  0.00    -0.141 C  
HETATM   34  C   UNL     1      -5.939  16.888  69.215  1.00  0.00    -0.190 C  
HETATM   35  C   UNL     1      -7.230  18.253  69.043  1.00  0.00    -0.237 A  
HETATM   36  C   UNL     1      -7.728  19.220  69.883  1.00  0.00     0.547 A  
HETATM   37  N   UNL     1      -8.918  19.708  69.325  1.00  0.00    -0.084 NA 
HETATM   38  H   UNL     1      -9.483  20.430  69.770  1.00  0.00     0.000 HD 
HETATM   39  C   UNL     1      -9.263  19.119  68.107  1.00  0.00    -0.327 A  
HETATM   40  C   UNL     1     -10.391  19.234  67.280  1.00  0.00    -0.538 A  
HETATM   41  C   UNL     1     -10.510  18.375  66.148  1.00  0.00    -0.422 A  
HETATM   42  C   UNL     1      -9.611  17.333  65.838  1.00  0.00    -0.074 A  
HETATM   43  C   UNL     1      -8.530  17.112  66.682  1.00  0.00    -0.284 A  
HETATM   44  C   UNL     1      -8.299  18.180  67.819  1.00  0.00    -0.253 A  
HETATM   45  C   UNL     1      -7.586  15.494  66.721  1.00  0.00    -0.053 C  
HETATM   46  C   UNL     1      -8.451  14.475  66.864  1.00  0.00    -0.179 C  
ENDBRANCH  27  29
ENDBRANCH  13  25
TORSDOF 4
ENDMDL
MODEL       84
REMARK 921   NORMALIZED FREE ENERGY PREDICTED BY IDOCK:   -4.86 KCAL/MOL
REMARK 922        TOTAL FREE ENERGY PREDICTED BY IDOCK:   -6.85 KCAL/MOL
REMARK 923 INTER-LIGAND FREE ENERGY PREDICTED BY IDOCK:   -6.74 KCAL/MOL
REMARK 924 INTRA-LIGAND FREE ENERGY PREDICTED BY IDOCK:   -0.11 KCAL/MOL
REMARK 927      BINDING AFFINITY PREDICTED BY RF-SCORE:    0.00 PKD
ROOT
HETATM    1  C   UNL     1     -11.233  13.833  69.528  1.00  0.00    -0.165 A  
HETATM    2  C   UNL     1     -11.993  14.736  70.513  1.00  0.00    -0.373 A  
HETATM    3  C   UNL     1     -11.969  16.142  69.807  1.00  0.00    -0.064 A  
HETATM    4  C   UNL     1     -11.069  15.974  68.589  1.00  0.00    -0.349 A  
HETATM    5  N   UNL     1     -10.351  14.754  68.880  1.00  0.00    -0.238 N  
HETATM    6  C   UNL     1      -9.427  14.308  67.992  1.00  0.00    -0.204 C  
HETATM    7  O   UNL     1      -8.548  15.056  67.567  1.00  0.00    -0.162 OA 
HETATM    8  C   UNL     1      -9.525  12.793  67.669  1.00  0.00    -0.190 C  
HETATM    9  O   UNL     1      -9.698  11.332  69.626  1.00  0.00     0.279 OA 
HETATM   10  N   UNL     1     -10.949  12.066  68.183  1.00  0.00    -0.217 N  
HETATM   11  C   UNL     1     -11.210  10.669  68.310  1.00  0.00    -0.301 C  
HETATM   12  H   UNL     1     -11.666  10.773  70.420  1.00  0.00     0.000 HD 
HETATM   13  C   UNL     1      -9.859  10.103  68.533  1.00  0.00    -0.154 C  
HETATM   14  O   UNL     1     -12.286  10.095  68.247  1.00  0.00     0.390 OA 
HETATM   15  O   UNL     1     -11.881  11.698  70.396  1.00  0.00    -0.343 OA 
HETATM   16  C   UNL     1      -9.857   9.908  66.935  1.00  0.00    -0.252 C  
HETATM   17  C   UNL     1     -10.866  12.247  69.568  1.00  0.00     0.149 C  
ENDROOT
BRANCH   8  18
HETATM   18  C   UNL     1      -8.986  12.663  66.245  1.00  0.00     0.018 C  
BRANCH  18  19
HETATM   19  C   UNL     1     -10.026  12.785  65.184  1.00  0.00    -0.185 A  
HETATM   20  C   UNL     1     -11.965  13.953  64.375  1.00  0.00    -0.480 A  
HETATM   21  C   UNL     1     -12.101  13.003  63.370  1.00  0.00    -0.591 A  
HETATM   22  C   UNL     1     -10.152  11.851  64.155  1.00  0.00    -0.338 A  
HETATM   23  C   UNL     1     -11.200  11.931  63.246  1.00  0.00    -0.382 A  
HETATM   24  C   UNL     1     -10.925  13.850  65.278  1.00  0.00    -0.331 A  
ENDBRANCH  18  19
ENDBRANCH   8  18
BRANCH  13  25
HETATM   25  N   UNL     1      -9.245   8.893  69.047  1.00  0.00    -0.140 N  
HETATM   26  O   UNL     1     -11.266   7.707  69.135  1.00  0.00     0.051 OA 
HETATM   27  C   UNL     1     -10.084   7.809  69.453  1.00  0.00    -0.195 C  
HETATM   28  H   UNL     1      -8.230   8.817  69.117  1.00  0.00     0.000 HD 
BRANCH  27  29
HETATM   29  C   UNL     1      -9.384   6.790  70.373  1.00  0.00    -0.163 C  
HETATM   30  C   UNL     1      -8.805   5.368  69.858  1.00  0.00    -0.140 C  
HETATM   31  N   UNL     1      -7.237   4.699  70.627  1.00  0.00    -0.047 NA 
HETATM   32  C   UNL     1      -6.186   4.484  71.860  1.00  0.00    -0.021 C  
HETATM   33  C   UNL     1      -6.596   5.474  69.799  1.00  0.00    -0.050 C  
HETATM   34  C   UNL     1      -7.016   3.615  69.478  1.00  0.00    -0.042 C  
HETATM   35  C   UNL     1      -8.336   2.901  70.622  1.00  0.00    -0.082 A  
HETATM   36  C   UNL     1      -9.238   1.870  70.526  1.00  0.00    -0.103 A  
HETATM   37  N   UNL     1     -10.199   2.040  71.533  1.00  0.00     0.004 NA 
HETATM   38  H   UNL     1     -10.985   1.403  71.662  1.00  0.00     0.000 HD 
HETATM   39  C   UNL     1      -9.988   3.156  72.343  1.00  0.00    -0.164 A  
HETATM   40  C   UNL     1     -10.741   3.741  73.374  1.00  0.00    -0.297 A  
HETATM   41  C   UNL     1     -10.313   4.986  73.923  1.00  0.00    -0.289 A  
HETATM   42  C   UNL     1      -9.225   5.741  73.438  1.00  0.00    -0.132 A  
HETATM   43  C   UNL     1      -8.506   5.255  72.353  1.00  0.00    -0.122 A  
HETATM   44  C   UNL     1      -8.862   3.795  71.875  1.00  0.00    -0.134 A  
HETATM   45  C   UNL     1      -7.421   6.345  71.283  1.00  0.00    -0.089 C  
HETATM   46  C   UNL     1      -8.124   7.418  70.880  1.00  0.00    -0.105 C  
ENDBRANCH  27  29
ENDBRANCH  13  25
TORSDOF 4
ENDMDL
MODEL       85
REMARK 921   NORMALIZED FREE ENERGY PREDICTED BY IDOCK:   -4.80 KCAL/MOL
REMARK 922        TOTAL FREE ENERGY PREDICTED BY IDOCK:   -6.78 KCAL/MOL
REMARK 923 INTER-LIGAND FREE ENERGY PREDICTED BY IDOCK:   -5.87 KCAL/MOL
REMARK 924 INTRA-LIGAND FREE ENERGY PREDICTED BY IDOCK:   -0.91 KCAL/MOL
REMARK 927      BINDING AFFINITY PREDICTED BY RF-SCORE:    0.00 PKD
ROOT
HETATM    1  C   UNL     1      -7.822  10.132  69.917  1.00  0.00    -0.151 A  
HETATM    2  C   UNL     1      -7.070   9.438  71.063  1.00  0.00    -0.060 A  
HETATM    3  C   UNL     1      -8.012   8.236  71.439  1.00  0.00    -0.139 A  
HETATM    4  C   UNL     1      -9.279   8.434  70.616  1.00  0.00    -0.156 A  
HETATM    5  N   UNL     1      -9.187   9.817  70.207  1.00  0.00    -0.228 N  
HETATM    6  C   UNL     1     -10.187  10.347  69.456  1.00  0.00    -0.231 C  
HETATM    7  O   UNL     1     -11.362  10.234  69.800  1.00  0.00    -0.247 OA 
HETATM    8  C   UNL     1      -9.704  11.170  68.232  1.00  0.00    -0.190 C  
HETATM    9  O   UNL     1      -7.952  12.809  68.719  1.00  0.00    -0.060 OA 
HETATM   10  N   UNL     1      -8.082  10.960  67.853  1.00  0.00    -0.111 N  
HETATM   11  C   UNL     1      -7.279  11.779  67.003  1.00  0.00    -0.134 C  
HETATM   12  H   UNL     1      -5.837  12.256  68.541  1.00  0.00     0.000 HD 
HETATM   13  C   UNL     1      -7.950  13.098  67.092  1.00  0.00    -0.073 C  
HETATM   14  O   UNL     1      -6.288  11.460  66.366  1.00  0.00    -0.126 OA 
HETATM   15  O   UNL     1      -6.046  11.493  69.067  1.00  0.00    -0.049 OA 
HETATM   16  C   UNL     1      -8.741  12.598  65.782  1.00  0.00     0.727 C  
HETATM   17  C   UNL     1      -7.464  11.439  69.014  1.00  0.00    -0.093 C  
ENDROOT
BRANCH   8  18
HETATM   18  C   UNL     1     -10.828  11.034  67.205  1.00  0.00    -0.336 C  
BRANCH  18  19
HETATM   19  C   UNL     1     -11.517  12.315  66.879  1.00  0.00    -0.418 A  
HETATM   20  C   UNL     1     -12.618  13.654  65.213  1.00  0.00    -0.512 A  
HETATM   21  C   UNL     1     -12.658  14.713  66.111  1.00  0.00     0.090 A  
HETATM   22  C   UNL     1     -11.585  13.374  67.784  1.00  0.00    -0.375 A  
HETATM   23  C   UNL     1     -12.136  14.595  67.411  1.00  0.00    -0.216 A  
HETATM   24  C   UNL     1     -12.055  12.452  65.597  1.00  0.00    -0.396 A  
ENDBRANCH  18  19
ENDBRANCH   8  18
BRANCH  13  25
HETATM   25  N   UNL     1      -7.664  14.496  66.832  1.00  0.00    -0.285 N  
HETATM   26  O   UNL     1      -5.417  14.330  67.481  1.00  0.00    -0.337 OA 
HETATM   27  C   UNL     1      -6.392  15.027  67.213  1.00  0.00     0.233 C  
HETATM   28  H   UNL     1      -8.360  15.092  66.383  1.00  0.00     0.000 HD 
BRANCH  27  29
HETATM   29  C   UNL     1      -6.362  16.564  67.306  1.00  0.00    -0.213 C  
HETATM   30  C   UNL     1      -7.522  17.442  68.018  1.00  0.00    -0.201 C  
HETATM   31  N   UNL     1      -7.040  18.994  68.945  1.00  0.00    -0.317 NA 
HETATM   32  C   UNL     1      -6.118  20.318  69.204  1.00  0.00    -0.335 C  
HETATM   33  C   UNL     1      -6.754  18.211  69.946  1.00  0.00     0.233 C  
HETATM   34  C   UNL     1      -8.446  19.108  69.688  1.00  0.00     0.519 C  
HETATM   35  C   UNL     1      -8.722  19.775  67.945  1.00  0.00    -0.370 A  
HETATM   36  C   UNL     1      -9.832  20.057  67.187  1.00  0.00    -0.426 A  
HETATM   37  N   UNL     1      -9.423  20.182  65.851  1.00  0.00    -0.562 NA 
HETATM   38  H   UNL     1     -10.071  20.382  65.090  1.00  0.00     0.000 HD 
HETATM   39  C   UNL     1      -8.053  20.008  65.652  1.00  0.00     0.020 A  
HETATM   40  C   UNL     1      -7.257  19.949  64.497  1.00  0.00     0.828 A  
HETATM   41  C   UNL     1      -5.878  19.612  64.623  1.00  0.00    -0.288 A  
HETATM   42  C   UNL     1      -5.255  19.233  65.831  1.00  0.00    -0.169 A  
HETATM   43  C   UNL     1      -6.021  19.178  66.988  1.00  0.00    -0.167 A  
HETATM   44  C   UNL     1      -7.494  19.733  66.880  1.00  0.00    -0.266 A  
HETATM   45  C   UNL     1      -5.502  18.208  68.505  1.00  0.00    -0.167 C  
HETATM   46  C   UNL     1      -5.186  16.952  68.146  1.00  0.00    -0.116 C  
ENDBRANCH  27  29
ENDBRANCH  13  25
TORSDOF 4
ENDMDL
MODEL       86
REMARK 921   NORMALIZED FREE ENERGY PREDICTED BY IDOCK:   -4.77 KCAL/MOL
REMARK 922        TOTAL FREE ENERGY PREDICTED BY IDOCK:   -6.75 KCAL/MOL
REMARK 923 INTER-LIGAND FREE ENERGY PREDICTED BY IDOCK:   -6.30 KCAL/MOL
REMARK 924 INTRA-LIGAND FREE ENERGY PREDICTED BY IDOCK:   -0.46 KCAL/MOL
REMARK 927      BINDING AFFINITY PREDICTED BY RF-SCORE:    0.00 PKD
ROOT
HETATM    1  C   UNL     1     -11.070  14.600  69.093  1.00  0.00    -0.268 A  
HETATM    2  C   UNL     1     -11.502  15.914  69.763  1.00  0.00    -0.342 A  
HETATM    3  C   UNL     1     -11.260  16.990  68.641  1.00  0.00    -0.003 A  
HETATM    4  C   UNL     1     -10.562  16.250  67.506  1.00  0.00    -0.310 A  
HETATM    5  N   UNL     1     -10.092  15.042  68.147  1.00  0.00    -0.219 N  
HETATM    6  C   UNL     1      -9.392  14.140  67.413  1.00  0.00    -0.215 C  
HETATM    7  O   UNL     1      -8.429  14.491  66.733  1.00  0.00    -0.189 OA 
HETATM    8  C   UNL     1      -9.847  12.668  67.600  1.00  0.00    -0.210 C  
HETATM    9  O   UNL     1     -10.103  11.958  69.929  1.00  0.00     0.957 OA 
HETATM   10  N   UNL     1     -11.325  12.494  68.378  1.00  0.00    -0.267 N  
HETATM   11  C   UNL     1     -11.862  11.306  68.960  1.00  0.00    -0.352 C  
HETATM   12  H   UNL     1     -12.040  12.153  70.940  1.00  0.00     0.000 HD 
HETATM   13  C   UNL     1     -10.645  10.530  69.298  1.00  0.00    -0.236 C  
HETATM   14  O   UNL     1     -13.035  11.014  69.129  1.00  0.00     0.039 OA 
HETATM   15  O   UNL     1     -12.054  13.050  70.628  1.00  0.00    -0.348 OA 
HETATM   16  C   UNL     1     -10.868   9.863  67.850  1.00  0.00    -0.312 C  
HETATM   17  C   UNL     1     -11.047  13.062  69.627  1.00  0.00     0.091 C  
ENDROOT
BRANCH   8  18
HETATM   18  C   UNL     1      -9.515  11.986  66.273  1.00  0.00    -0.237 C  
BRANCH  18  19
HETATM   19  C   UNL     1      -8.227  11.235  66.277  1.00  0.00    -0.126 A  
HETATM   20  C   UNL     1      -6.218  10.669  67.469  1.00  0.00    -0.056 A  
HETATM   21  C   UNL     1      -5.742  10.026  66.333  1.00  0.00    -0.058 A  
HETATM   22  C   UNL     1      -7.755  10.563  65.149  1.00  0.00    -0.062 A  
HETATM   23  C   UNL     1      -6.500   9.967  65.150  1.00  0.00    -0.103 A  
HETATM   24  C   UNL     1      -7.463  11.268  67.445  1.00  0.00    -0.116 A  
ENDBRANCH  18  19
ENDBRANCH   8  18
BRANCH  13  25
HETATM   25  N   UNL     1     -10.249   9.424  70.150  1.00  0.00    -0.213 N  
HETATM   26  O   UNL     1      -8.943   8.399  68.495  1.00  0.00    -0.136 OA 
HETATM   27  C   UNL     1      -9.515   8.338  69.580  1.00  0.00    -0.162 C  
HETATM   28  H   UNL     1     -10.491   9.421  71.141  1.00  0.00     0.000 HD 
BRANCH  27  29
HETATM   29  C   UNL     1      -9.540   7.054  70.431  1.00  0.00    -0.169 C  
HETATM   30  C   UNL     1      -8.998   6.979  71.955  1.00  0.00    -0.137 C  
HETATM   31  N   UNL     1      -9.879   5.867  73.174  1.00  0.00    -0.166 NA 
HETATM   32  C   UNL     1     -10.729   4.536  73.593  1.00  0.00    -0.272 C  
HETATM   33  C   UNL     1     -10.730   6.843  73.324  1.00  0.00    -0.320 C  
HETATM   34  C   UNL     1      -9.183   6.538  74.443  1.00  0.00    -0.203 C  
HETATM   35  C   UNL     1      -7.905   5.360  73.709  1.00  0.00    -0.102 A  
HETATM   36  C   UNL     1      -6.553   5.184  73.871  1.00  0.00    -0.073 A  
HETATM   37  N   UNL     1      -6.087   4.404  72.803  1.00  0.00    -0.016 NA 
HETATM   38  H   UNL     1      -5.107   4.143  72.694  1.00  0.00     0.000 HD 
HETATM   39  C   UNL     1      -7.079   4.016  71.901  1.00  0.00    -0.049 A  
HETATM   40  C   UNL     1      -7.037   3.337  70.673  1.00  0.00    -0.034 A  
HETATM   41  C   UNL     1      -8.234   3.215  69.909  1.00  0.00    -0.067 A  
HETATM   42  C   UNL     1      -9.464   3.816  70.248  1.00  0.00    -0.257 A  
HETATM   43  C   UNL     1      -9.534   4.584  71.404  1.00  0.00    -0.219 A  
HETATM   44  C   UNL     1      -8.265   4.558  72.341  1.00  0.00    -0.109 A  
HETATM   45  C   UNL     1     -10.884   5.849  71.703  1.00  0.00    -0.321 C  
HETATM   46  C   UNL     1     -10.971   6.670  70.643  1.00  0.00    -0.329 C  
ENDBRANCH  27  29
ENDBRANCH  13  25
TORSDOF 4
ENDMDL
MODEL       87
REMARK 921   NORMALIZED FREE ENERGY PREDICTED BY IDOCK:   -4.71 KCAL/MOL
REMARK 922        TOTAL FREE ENERGY PREDICTED BY IDOCK:   -6.67 KCAL/MOL
REMARK 923 INTER-LIGAND FREE ENERGY PREDICTED BY IDOCK:   -5.58 KCAL/MOL
REMARK 924 INTRA-LIGAND FREE ENERGY PREDICTED BY IDOCK:   -1.09 KCAL/MOL
REMARK 927      BINDING AFFINITY PREDICTED BY RF-SCORE:    0.00 PKD
ROOT
HETATM    1  C   UNL     1      -9.103   4.502  68.587  1.00  0.00    -0.120 A  
HETATM    2  C   UNL     1      -9.251   3.429  67.497  1.00  0.00    -0.231 A  
HETATM    3  C   UNL     1      -8.589   2.158  68.147  1.00  0.00    -0.105 A  
HETATM    4  C   UNL     1      -7.975   2.640  69.455  1.00  0.00    -0.041 A  
HETATM    5  N   UNL     1      -7.930   4.074  69.285  1.00  0.00    -0.056 N  
HETATM    6  C   UNL     1      -7.408   4.837  70.279  1.00  0.00    -0.051 C  
HETATM    7  O   UNL     1      -6.307   4.577  70.762  1.00  0.00    -0.024 OA 
HETATM    8  C   UNL     1      -8.259   6.081  70.649  1.00  0.00    -0.120 C  
HETATM    9  O   UNL     1      -8.990   7.431  68.742  1.00  0.00    -0.130 OA 
HETATM   10  N   UNL     1      -9.817   6.065  70.021  1.00  0.00    -0.167 N  
HETATM   11  C   UNL     1     -10.721   7.165  69.922  1.00  0.00    -0.239 C  
HETATM   12  H   UNL     1     -10.918   7.029  67.775  1.00  0.00     0.000 HD 
HETATM   13  C   UNL     1      -9.809   8.332  69.859  1.00  0.00    -0.186 C  
HETATM   14  O   UNL     1     -11.941   7.138  69.898  1.00  0.00    -0.005 OA 
HETATM   15  O   UNL     1     -10.652   6.118  67.740  1.00  0.00    -0.208 OA 
HETATM   16  C   UNL     1     -10.014   8.370  71.456  1.00  0.00    -0.283 C  
HETATM   17  C   UNL     1      -9.559   6.064  68.646  1.00  0.00    -0.125 C  
ENDROOT
BRANCH   8  18
HETATM   18  C   UNL     1      -7.954   6.337  72.124  1.00  0.00    -0.108 C  
BRANCH  18  19
HETATM   19  C   UNL     1      -7.042   7.491  72.369  1.00  0.00    -0.072 A  
HETATM   20  C   UNL     1      -5.588   9.157  71.426  1.00  0.00    -0.055 A  
HETATM   21  C   UNL     1      -5.204   9.527  72.709  1.00  0.00    -0.047 A  
HETATM   22  C   UNL     1      -6.674   7.888  73.655  1.00  0.00    -0.112 A  
HETATM   23  C   UNL     1      -5.735   8.895  73.847  1.00  0.00    -0.116 A  
HETATM   24  C   UNL     1      -6.512   8.144  71.254  1.00  0.00    -0.040 A  
ENDBRANCH  18  19
ENDBRANCH   8  18
BRANCH  13  25
HETATM   25  N   UNL     1      -9.834   9.726  69.457  1.00  0.00    -0.201 N  
HETATM   26  O   UNL     1     -11.156   9.329  67.562  1.00  0.00    -0.101 OA 
HETATM   27  C   UNL     1     -10.418  10.075  68.200  1.00  0.00    -0.211 C  
HETATM   28  H   UNL     1      -9.442  10.447  70.063  1.00  0.00     0.000 HD 
BRANCH  27  29
HETATM   29  C   UNL     1     -10.001  11.465  67.684  1.00  0.00    -0.196 C  
HETATM   30  C   UNL     1      -9.741  12.738  68.650  1.00  0.00    -0.050 C  
HETATM   31  N   UNL     1      -8.394  13.956  68.199  1.00  0.00    -0.154 NA 
HETATM   32  C   UNL     1      -7.465  14.786  67.143  1.00  0.00    -0.034 C  
HETATM   33  C   UNL     1      -7.565  13.121  68.759  1.00  0.00    -0.033 C  
HETATM   34  C   UNL     1      -8.383  14.633  69.643  1.00  0.00     0.263 C  
HETATM   35  C   UNL     1      -9.871  15.359  68.738  1.00  0.00    -0.211 A  
HETATM   36  C   UNL     1     -10.979  16.072  69.124  1.00  0.00    -0.297 A  
HETATM   37  N   UNL     1     -11.913  16.022  68.078  1.00  0.00    -0.100 NA 
HETATM   38  H   UNL     1     -12.826  16.472  68.130  1.00  0.00     0.000 HD 
HETATM   39  C   UNL     1     -11.484  15.303  66.962  1.00  0.00    -0.167 A  
HETATM   40  C   UNL     1     -12.121  14.927  65.769  1.00  0.00     0.004 A  
HETATM   41  C   UNL     1     -11.443  14.055  64.867  1.00  0.00    -0.358 A  
HETATM   42  C   UNL     1     -10.195  13.451  65.126  1.00  0.00    -0.316 A  
HETATM   43  C   UNL     1      -9.566  13.711  66.337  1.00  0.00    -0.280 A  
HETATM   44  C   UNL     1     -10.226  14.821  67.245  1.00  0.00    -0.241 A  
HETATM   45  C   UNL     1      -8.225  12.610  67.043  1.00  0.00    -0.110 C  
HETATM   46  C   UNL     1      -8.650  11.336  67.052  1.00  0.00    -0.148 C  
ENDBRANCH  27  29
ENDBRANCH  13  25
TORSDOF 4
ENDMDL
MODEL       88
REMARK 921   NORMALIZED FREE ENERGY PREDICTED BY IDOCK:   -4.69 KCAL/MOL
REMARK 922        TOTAL FREE ENERGY PREDICTED BY IDOCK:   -6.65 KCAL/MOL
REMARK 923 INTER-LIGAND FREE ENERGY PREDICTED BY IDOCK:   -6.18 KCAL/MOL
REMARK 924 INTRA-LIGAND FREE ENERGY PREDICTED BY IDOCK:   -0.47 KCAL/MOL
REMARK 927      BINDING AFFINITY PREDICTED BY RF-SCORE:    0.00 PKD
ROOT
HETATM    1  C   UNL     1     -10.646  12.912  65.978  1.00  0.00    -0.270 A  
HETATM    2  C   UNL     1     -11.961  13.493  65.434  1.00  0.00    -0.406 A  
HETATM    3  C   UNL     1     -11.542  14.919  64.919  1.00  0.00    -0.395 A  
HETATM    4  C   UNL     1     -10.094  15.104  65.357  1.00  0.00    -0.350 A  
HETATM    5  N   UNL     1      -9.927  14.086  66.369  1.00  0.00    -0.285 N  
HETATM    6  C   UNL     1      -8.730  13.977  67.001  1.00  0.00    -0.203 C  
HETATM    7  O   UNL     1      -8.190  14.962  67.501  1.00  0.00    -0.155 OA 
HETATM    8  C   UNL     1      -8.193  12.526  67.115  1.00  0.00    -0.168 C  
HETATM    9  O   UNL     1      -9.818  10.889  67.937  1.00  0.00    -0.167 OA 
HETATM   10  N   UNL     1      -8.990  11.414  66.141  1.00  0.00    -0.202 N  
HETATM   11  C   UNL     1      -8.945   9.991  66.237  1.00  0.00    -0.148 C  
HETATM   12  H   UNL     1     -11.075   9.773  66.527  1.00  0.00     0.000 HD 
HETATM   13  C   UNL     1      -8.631   9.770  67.669  1.00  0.00    -0.125 C  
HETATM   14  O   UNL     1      -9.121   9.170  65.351  1.00  0.00    -0.207 OA 
HETATM   15  O   UNL     1     -11.283  10.610  66.130  1.00  0.00     0.089 OA 
HETATM   16  C   UNL     1      -7.105   9.736  67.159  1.00  0.00    -0.086 C  
HETATM   17  C   UNL     1     -10.289  11.476  66.658  1.00  0.00    -0.226 C  
ENDROOT
BRANCH   8  18
HETATM   18  C   UNL     1      -6.673  12.675  67.143  1.00  0.00    -0.025 C  
BRANCH  18  19
HETATM   19  C   UNL     1      -6.100  12.845  68.509  1.00  0.00    -0.071 A  
HETATM   20  C   UNL     1      -5.732  11.886  70.683  1.00  0.00    -0.125 A  
HETATM   21  C   UNL     1      -5.228  13.105  71.119  1.00  0.00    -0.178 A  
HETATM   22  C   UNL     1      -5.567  14.057  68.946  1.00  0.00    -0.082 A  
HETATM   23  C   UNL     1      -5.143  14.215  70.261  1.00  0.00    -0.091 A  
HETATM   24  C   UNL     1      -6.161  11.751  69.376  1.00  0.00    -0.103 A  
ENDBRANCH  18  19
ENDBRANCH   8  18
BRANCH  13  25
HETATM   25  N   UNL     1      -8.707   8.713  68.660  1.00  0.00    -0.137 N  
HETATM   26  O   UNL     1      -9.019  10.189  70.454  1.00  0.00     0.077 OA 
HETATM   27  C   UNL     1      -8.750   9.063  70.045  1.00  0.00    -0.157 C  
HETATM   28  H   UNL     1      -8.728   7.734  68.372  1.00  0.00     0.000 HD 
BRANCH  27  29
HETATM   29  C   UNL     1      -8.381   7.904  70.991  1.00  0.00    -0.112 C  
HETATM   30  C   UNL     1      -8.146   6.381  70.493  1.00  0.00    -0.117 C  
HETATM   31  N   UNL     1      -6.842   5.344  71.344  1.00  0.00    -0.055 NA 
HETATM   32  C   UNL     1      -5.952   4.878  72.633  1.00  0.00    -0.025 C  
HETATM   33  C   UNL     1      -5.980   5.933  70.564  1.00  0.00    -0.029 C  
HETATM   34  C   UNL     1      -6.830   4.236  70.196  1.00  0.00    -0.034 C  
HETATM   35  C   UNL     1      -8.351   3.877  71.252  1.00  0.00    -0.086 A  
HETATM   36  C   UNL     1      -9.474   3.103  71.091  1.00  0.00    -0.152 A  
HETATM   37  N   UNL     1     -10.421   3.510  72.043  1.00  0.00     0.030 NA 
HETATM   38  H   UNL     1     -11.346   3.089  72.118  1.00  0.00     0.000 HD 
HETATM   39  C   UNL     1      -9.987   4.540  72.878  1.00  0.00    -0.152 A  
HETATM   40  C   UNL     1     -10.630   5.296  73.870  1.00  0.00    -0.335 A  
HETATM   41  C   UNL     1      -9.940   6.397  74.458  1.00  0.00    -0.370 A  
HETATM   42  C   UNL     1      -8.671   6.855  74.047  1.00  0.00    -0.185 A  
HETATM   43  C   UNL     1      -8.033   6.204  73.000  1.00  0.00    -0.108 A  
HETATM   44  C   UNL     1      -8.712   4.876  72.484  1.00  0.00    -0.121 A  
HETATM   45  C   UNL     1      -6.649   6.986  72.008  1.00  0.00    -0.056 C  
HETATM   46  C   UNL     1      -7.037   8.199  71.579  1.00  0.00    -0.075 C  
ENDBRANCH  27  29
ENDBRANCH  13  25
TORSDOF 4
ENDMDL
MODEL       89
REMARK 921   NORMALIZED FREE ENERGY PREDICTED BY IDOCK:   -4.64 KCAL/MOL
REMARK 922        TOTAL FREE ENERGY PREDICTED BY IDOCK:   -6.59 KCAL/MOL
REMARK 923 INTER-LIGAND FREE ENERGY PREDICTED BY IDOCK:   -5.85 KCAL/MOL
REMARK 924 INTRA-LIGAND FREE ENERGY PREDICTED BY IDOCK:   -0.74 KCAL/MOL
REMARK 927      BINDING AFFINITY PREDICTED BY RF-SCORE:    0.00 PKD
ROOT
HETATM    1  C   UNL     1     -11.584  13.531  69.814  1.00  0.00    -0.244 A  
HETATM    2  C   UNL     1     -12.369  14.365  70.839  1.00  0.00    -0.419 A  
HETATM    3  C   UNL     1     -12.479  15.775  70.150  1.00  0.00    -0.240 A  
HETATM    4  C   UNL     1     -11.620  15.688  68.895  1.00  0.00    -0.383 A  
HETATM    5  N   UNL     1     -10.802  14.523  69.142  1.00  0.00    -0.259 N  
HETATM    6  C   UNL     1      -9.883  14.156  68.211  1.00  0.00    -0.235 C  
HETATM    7  O   UNL     1      -9.082  14.972  67.760  1.00  0.00    -0.177 OA 
HETATM    8  C   UNL     1      -9.881  12.641  67.874  1.00  0.00    -0.218 C  
HETATM    9  O   UNL     1      -9.863  11.153  69.818  1.00  0.00     0.264 OA 
HETATM   10  N   UNL     1     -11.224  11.804  68.436  1.00  0.00    -0.229 N  
HETATM   11  C   UNL     1     -11.374  10.390  68.556  1.00  0.00    -0.220 C  
HETATM   12  H   UNL     1     -11.749  10.440  70.684  1.00  0.00     0.000 HD 
HETATM   13  C   UNL     1      -9.976   9.926  68.717  1.00  0.00    -0.173 C  
HETATM   14  O   UNL     1     -12.405   9.737  68.529  1.00  0.00     1.178 OA 
HETATM   15  O   UNL     1     -12.033  11.346  70.681  1.00  0.00    -0.352 OA 
HETATM   16  C   UNL     1     -10.025   9.746  67.118  1.00  0.00    -0.252 C  
HETATM   17  C   UNL     1     -11.097  11.978  69.819  1.00  0.00     0.079 C  
ENDROOT
BRANCH   8  18
HETATM   18  C   UNL     1      -9.393  12.566  66.428  1.00  0.00    -0.209 C  
BRANCH  18  19
HETATM   19  C   UNL     1     -10.446  12.849  65.411  1.00  0.00    -0.308 A  
HETATM   20  C   UNL     1     -11.856  11.988  63.664  1.00  0.00    -0.602 A  
HETATM   21  C   UNL     1     -12.271  13.283  63.381  1.00  0.00    -0.476 A  
HETATM   22  C   UNL     1     -10.888  14.143  65.139  1.00  0.00    -0.380 A  
HETATM   23  C   UNL     1     -11.789  14.385  64.109  1.00  0.00    -0.316 A  
HETATM   24  C   UNL     1     -10.949  11.767  64.683  1.00  0.00    -0.368 A  
ENDBRANCH  18  19
ENDBRANCH   8  18
BRANCH  13  25
HETATM   25  N   UNL     1      -9.252   8.760  69.191  1.00  0.00    -0.148 N  
HETATM   26  O   UNL     1      -7.148   9.635  68.639  1.00  0.00    -0.070 OA 
HETATM   27  C   UNL     1      -7.845   8.674  68.955  1.00  0.00    -0.104 C  
HETATM   28  H   UNL     1      -9.741   8.014  69.686  1.00  0.00     0.000 HD 
BRANCH  27  29
HETATM   29  C   UNL     1      -7.278   7.248  69.086  1.00  0.00    -0.085 C  
HETATM   30  C   UNL     1      -7.952   5.949  68.393  1.00  0.00    -0.105 C  
HETATM   31  N   UNL     1      -6.840   4.588  67.752  1.00  0.00    -0.054 NA 
HETATM   32  C   UNL     1      -5.495   3.661  67.779  1.00  0.00    -0.020 C  
HETATM   33  C   UNL     1      -6.697   5.319  66.683  1.00  0.00    -0.061 C  
HETATM   34  C   UNL     1      -8.000   3.907  66.894  1.00  0.00    -0.096 C  
HETATM   35  C   UNL     1      -8.281   3.360  68.678  1.00  0.00    -0.082 A  
HETATM   36  C   UNL     1      -9.325   2.776  69.352  1.00  0.00    -0.119 A  
HETATM   37  N   UNL     1      -9.096   2.937  70.727  1.00  0.00    -0.107 NA 
HETATM   38  H   UNL     1      -9.740   2.595  71.439  1.00  0.00     0.000 HD 
HETATM   39  C   UNL     1      -7.912   3.608  71.036  1.00  0.00    -0.062 A  
HETATM   40  C   UNL     1      -7.361   4.060  72.245  1.00  0.00    -0.058 A  
HETATM   41  C   UNL     1      -6.176   4.853  72.212  1.00  0.00    -0.029 A  
HETATM   42  C   UNL     1      -5.553   5.309  71.032  1.00  0.00    -0.008 A  
HETATM   43  C   UNL     1      -6.115   4.973  69.808  1.00  0.00    -0.022 A  
HETATM   44  C   UNL     1      -7.309   3.942  69.844  1.00  0.00    -0.045 A  
HETATM   45  C   UNL     1      -5.745   5.910  68.228  1.00  0.00    -0.009 C  
HETATM   46  C   UNL     1      -5.932   7.225  68.434  1.00  0.00    -0.027 C  
ENDBRANCH  27  29
ENDBRANCH  13  25
TORSDOF 4
ENDMDL
MODEL       90
REMARK 921   NORMALIZED FREE ENERGY PREDICTED BY IDOCK:   -4.59 KCAL/MOL
REMARK 922        TOTAL FREE ENERGY PREDICTED BY IDOCK:   -6.52 KCAL/MOL
REMARK 923 INTER-LIGAND FREE ENERGY PREDICTED BY IDOCK:   -6.27 KCAL/MOL
REMARK 924 INTRA-LIGAND FREE ENERGY PREDICTED BY IDOCK:   -0.26 KCAL/MOL
REMARK 927      BINDING AFFINITY PREDICTED BY RF-SCORE:    0.00 PKD
ROOT
HETATM    1  C   UNL     1      -9.582   6.326  67.271  1.00  0.00    -0.123 A  
HETATM    2  C   UNL     1     -10.069   5.509  66.063  1.00  0.00    -0.067 A  
HETATM    3  C   UNL     1      -9.813   4.021  66.505  1.00  0.00    -0.175 A  
HETATM    4  C   UNL     1      -9.059   4.109  67.826  1.00  0.00    -0.136 A  
HETATM    5  N   UNL     1      -8.583   5.473  67.838  1.00  0.00    -0.105 N  
HETATM    6  C   UNL     1      -7.836   5.899  68.889  1.00  0.00    -0.095 C  
HETATM    7  O   UNL     1      -6.859   5.256  69.269  1.00  0.00    -0.050 OA 
HETATM    8  C   UNL     1      -8.262   7.275  69.465  1.00  0.00    -0.131 C  
HETATM    9  O   UNL     1      -8.582   9.036  67.793  1.00  0.00    -0.121 OA 
HETATM   10  N   UNL     1      -9.762   7.814  68.934  1.00  0.00    -0.158 N  
HETATM   11  C   UNL     1     -10.290   9.136  69.030  1.00  0.00    -0.215 C  
HETATM   12  H   UNL     1     -10.557   9.367  66.898  1.00  0.00     0.000 HD 
HETATM   13  C   UNL     1      -9.068   9.974  69.063  1.00  0.00    -0.171 C  
HETATM   14  O   UNL     1     -11.461   9.478  69.075  1.00  0.00     0.071 OA 
HETATM   15  O   UNL     1     -10.582   8.432  66.732  1.00  0.00    -0.295 OA 
HETATM   16  C   UNL     1      -9.224   9.848  70.661  1.00  0.00     0.197 C  
HETATM   17  C   UNL     1      -9.541   7.928  67.557  1.00  0.00    -0.152 C  
ENDROOT
BRANCH   8  18
HETATM   18  C   UNL     1      -7.868   7.219  70.940  1.00  0.00    -0.094 C  
BRANCH  18  19
HETATM   19  C   UNL     1      -8.920   6.658  71.834  1.00  0.00    -0.136 A  
HETATM   20  C   UNL     1      -9.934   6.654  74.014  1.00  0.00    -0.346 A  
HETATM   21  C   UNL     1     -10.718   5.572  73.632  1.00  0.00    -0.321 A  
HETATM   22  C   UNL     1      -9.731   5.590  71.449  1.00  0.00    -0.205 A  
HETATM   23  C   UNL     1     -10.626   5.016  72.344  1.00  0.00    -0.275 A  
HETATM   24  C   UNL     1      -9.040   7.203  73.115  1.00  0.00    -0.173 A  
ENDBRANCH  18  19
ENDBRANCH   8  18
BRANCH  13  25
HETATM   25  N   UNL     1      -8.675  11.354  68.845  1.00  0.00    -0.358 N  
HETATM   26  O   UNL     1     -10.869  12.173  68.970  1.00  0.00    -0.216 OA 
HETATM   27  C   UNL     1      -9.691  12.344  68.668  1.00  0.00    -0.055 C  
HETATM   28  H   UNL     1      -7.689  11.614  68.820  1.00  0.00     0.000 HD 
BRANCH  27  29
HETATM   29  C   UNL     1      -9.185  13.644  68.013  1.00  0.00    -0.197 C  
HETATM   30  C   UNL     1      -8.699  14.940  68.855  1.00  0.00    -0.180 C  
HETATM   31  N   UNL     1      -7.285  15.969  68.192  1.00  0.00    -0.127 NA 
HETATM   32  C   UNL     1      -6.385  16.624  66.995  1.00  0.00    -0.187 C  
HETATM   33  C   UNL     1      -6.495  15.086  68.732  1.00  0.00    -0.082 C  
HETATM   34  C   UNL     1      -7.058  16.732  69.575  1.00  0.00    -0.043 C  
HETATM   35  C   UNL     1      -8.547  17.558  68.761  1.00  0.00    -0.209 A  
HETATM   36  C   UNL     1      -9.530  18.413  69.195  1.00  0.00    -0.026 A  
HETATM   37  N   UNL     1     -10.564  18.400  68.248  1.00  0.00    -0.325 NA 
HETATM   38  H   UNL     1     -11.416  18.951  68.351  1.00  0.00     0.000 HD 
HETATM   39  C   UNL     1     -10.327  17.569  67.152  1.00  0.00    -0.330 A  
HETATM   40  C   UNL     1     -11.117  17.191  66.055  1.00  0.00     0.390 A  
HETATM   41  C   UNL     1     -10.627  16.194  65.160  1.00  0.00    -0.366 A  
HETATM   42  C   UNL     1      -9.429  15.474  65.346  1.00  0.00    -0.033 A  
HETATM   43  C   UNL     1      -8.658  15.739  66.470  1.00  0.00    -0.343 A  
HETATM   44  C   UNL     1      -9.104  16.969  67.351  1.00  0.00    -0.225 A  
HETATM   45  C   UNL     1      -7.373  14.543  67.127  1.00  0.00     0.057 C  
HETATM   46  C   UNL     1      -7.926  13.327  67.270  1.00  0.00    -0.134 C  
ENDBRANCH  27  29
ENDBRANCH  13  25
TORSDOF 4
ENDMDL
MODEL       91
REMARK 921   NORMALIZED FREE ENERGY PREDICTED BY IDOCK:   -4.58 KCAL/MOL
REMARK 922        TOTAL FREE ENERGY PREDICTED BY IDOCK:   -6.51 KCAL/MOL
REMARK 923 INTER-LIGAND FREE ENERGY PREDICTED BY IDOCK:   -5.63 KCAL/MOL
REMARK 924 INTRA-LIGAND FREE ENERGY PREDICTED BY IDOCK:   -0.89 KCAL/MOL
REMARK 927      BINDING AFFINITY PREDICTED BY RF-SCORE:    0.00 PKD
ROOT
HETATM    1  C   UNL     1      -6.027  12.796  70.293  1.00  0.00    -0.127 A  
HETATM    2  C   UNL     1      -5.213  13.359  71.469  1.00  0.00    -0.186 A  
HETATM    3  C   UNL     1      -5.471  14.908  71.379  1.00  0.00    -0.040 A  
HETATM    4  C   UNL     1      -6.250  15.120  70.087  1.00  0.00    -0.140 A  
HETATM    5  N   UNL     1      -6.028  13.887  69.367  1.00  0.00    -0.093 N  
HETATM    6  C   UNL     1      -6.577  13.738  68.134  1.00  0.00    -0.126 C  
HETATM    7  O   UNL     1      -6.427  14.599  67.269  1.00  0.00    -0.298 OA 
HETATM    8  C   UNL     1      -7.289  12.378  67.907  1.00  0.00    -0.112 C  
HETATM    9  O   UNL     1      -5.992  10.413  68.579  1.00  0.00    -0.044 OA 
HETATM   10  N   UNL     1      -7.565  11.498  69.311  1.00  0.00     0.006 N  
HETATM   11  C   UNL     1      -7.910  10.117  69.413  1.00  0.00    -0.150 C  
HETATM   12  H   UNL     1      -6.185   9.599  70.607  1.00  0.00     0.000 HD 
HETATM   13  C   UNL     1      -7.338   9.546  68.170  1.00  0.00    -0.078 C  
HETATM   14  O   UNL     1      -8.524   9.558  70.307  1.00  0.00    -0.180 OA 
HETATM   15  O   UNL     1      -6.051  10.486  70.920  1.00  0.00    -0.270 OA 
HETATM   16  C   UNL     1      -8.806   9.817  67.567  1.00  0.00    -0.129 C  
HETATM   17  C   UNL     1      -6.257  11.275  69.757  1.00  0.00    -0.124 C  
ENDROOT
BRANCH   8  18
HETATM   18  C   UNL     1      -8.380  12.676  66.879  1.00  0.00    -0.078 C  
BRANCH  18  19
HETATM   19  C   UNL     1      -9.405  13.655  67.342  1.00  0.00    -0.227 A  
HETATM   20  C   UNL     1     -11.180  14.149  68.887  1.00  0.00    -0.294 A  
HETATM   21  C   UNL     1     -11.451  15.314  68.180  1.00  0.00    -0.357 A  
HETATM   22  C   UNL     1      -9.665  14.840  66.654  1.00  0.00    -0.281 A  
HETATM   23  C   UNL     1     -10.703  15.678  67.047  1.00  0.00    -0.314 A  
HETATM   24  C   UNL     1     -10.153  13.322  68.474  1.00  0.00    -0.208 A  
ENDBRANCH  18  19
ENDBRANCH   8  18
BRANCH  13  25
HETATM   25  N   UNL     1      -6.957   8.254  67.628  1.00  0.00    -0.077 N  
HETATM   26  O   UNL     1      -6.276   9.135  65.565  1.00  0.00    -0.061 OA 
HETATM   27  C   UNL     1      -6.580   8.164  66.252  1.00  0.00    -0.047 C  
HETATM   28  H   UNL     1      -6.958   7.424  68.221  1.00  0.00     0.000 HD 
BRANCH  27  29
HETATM   29  C   UNL     1      -6.634   6.732  65.685  1.00  0.00    -0.051 C  
HETATM   30  C   UNL     1      -7.705   6.251  64.570  1.00  0.00    -0.106 C  
HETATM   31  N   UNL     1      -7.169   5.002  63.283  1.00  0.00    -0.047 NA 
HETATM   32  C   UNL     1      -6.304   3.719  62.759  1.00  0.00    -0.022 C  
HETATM   33  C   UNL     1      -6.660   6.011  62.634  1.00  0.00    -0.036 C  
HETATM   34  C   UNL     1      -8.426   5.282  62.342  1.00  0.00    -0.115 C  
HETATM   35  C   UNL     1      -9.049   4.160  63.726  1.00  0.00    -0.140 A  
HETATM   36  C   UNL     1     -10.291   3.795  64.184  1.00  0.00    -0.252 A  
HETATM   37  N   UNL     1     -10.133   3.228  65.457  1.00  0.00    -0.367 NA 
HETATM   38  H   UNL     1     -10.918   2.886  66.012  1.00  0.00     0.000 HD 
HETATM   39  C   UNL     1      -8.811   3.173  65.901  1.00  0.00    -0.139 A  
HETATM   40  C   UNL     1      -8.230   2.790  67.119  1.00  0.00    -0.081 A  
HETATM   41  C   UNL     1      -6.831   2.985  67.311  1.00  0.00    -0.045 A  
HETATM   42  C   UNL     1      -5.982   3.634  66.391  1.00  0.00    -0.024 A  
HETATM   43  C   UNL     1      -6.526   4.123  65.210  1.00  0.00    -0.039 A  
HETATM   44  C   UNL     1      -8.028   3.737  64.919  1.00  0.00    -0.090 A  
HETATM   45  C   UNL     1      -5.685   5.435  64.170  1.00  0.00    -0.017 C  
HETATM   46  C   UNL     1      -5.356   6.480  64.949  1.00  0.00    -0.022 C  
ENDBRANCH  27  29
ENDBRANCH  13  25
TORSDOF 4
ENDMDL
MODEL       92
REMARK 921   NORMALIZED FREE ENERGY PREDICTED BY IDOCK:   -4.56 KCAL/MOL
REMARK 922        TOTAL FREE ENERGY PREDICTED BY IDOCK:   -6.49 KCAL/MOL
REMARK 923 INTER-LIGAND FREE ENERGY PREDICTED BY IDOCK:   -7.03 KCAL/MOL
REMARK 924 INTRA-LIGAND FREE ENERGY PREDICTED BY IDOCK:    0.54 KCAL/MOL
REMARK 927      BINDING AFFINITY PREDICTED BY RF-SCORE:    0.00 PKD
ROOT
HETATM    1  C   UNL     1      -8.077  16.421  68.548  1.00  0.00    -0.205 A  
HETATM    2  C   UNL     1      -7.046  17.217  69.365  1.00  0.00    -0.094 A  
HETATM    3  C   UNL     1      -7.231  18.690  68.846  1.00  0.00    -0.311 A  
HETATM    4  C   UNL     1      -8.206  18.595  67.679  1.00  0.00    -0.258 A  
HETATM    5  N   UNL     1      -8.176  17.189  67.345  1.00  0.00    -0.180 N  
HETATM    6  C   UNL     1      -8.934  16.744  66.309  1.00  0.00    -0.290 C  
HETATM    7  O   UNL     1      -8.886  17.295  65.211  1.00  0.00     0.404 OA 
HETATM    8  C   UNL     1      -9.746  15.457  66.614  1.00  0.00    -0.269 C  
HETATM    9  O   UNL     1      -8.462  13.651  67.655  1.00  0.00    -0.158 OA 
HETATM   10  N   UNL     1      -9.826  15.058  68.243  1.00  0.00    -0.215 N  
HETATM   11  C   UNL     1     -10.223  13.810  68.809  1.00  0.00    -0.163 C  
HETATM   12  H   UNL     1      -8.350  13.489  69.840  1.00  0.00     0.000 HD 
HETATM   13  C   UNL     1      -9.902  12.845  67.730  1.00  0.00    -0.221 C  
HETATM   14  O   UNL     1     -10.706  13.602  69.911  1.00  0.00     0.236 OA 
HETATM   15  O   UNL     1      -8.118  14.410  69.845  1.00  0.00     0.360 OA 
HETATM   16  C   UNL     1     -11.434  13.078  67.293  1.00  0.00    -0.380 C  
HETATM   17  C   UNL     1      -8.476  14.843  68.540  1.00  0.00    -0.163 C  
ENDROOT
BRANCH   8  18
HETATM   18  C   UNL     1     -10.978  15.553  65.714  1.00  0.00    -0.285 C  
BRANCH  18  19
HETATM   19  C   UNL     1     -11.201  14.356  64.854  1.00  0.00    -0.392 A  
HETATM   20  C   UNL     1     -12.782  12.958  63.702  1.00  0.00    -0.193 A  
HETATM   21  C   UNL     1     -11.757  12.069  63.403  1.00  0.00    -0.519 A  
HETATM   22  C   UNL     1     -10.172  13.473  64.526  1.00  0.00    -0.296 A  
HETATM   23  C   UNL     1     -10.434  12.308  63.816  1.00  0.00    -0.476 A  
HETATM   24  C   UNL     1     -12.506  14.106  64.421  1.00  0.00    -0.325 A  
ENDBRANCH  18  19
ENDBRANCH   8  18
BRANCH  13  25
HETATM   25  N   UNL     1      -9.688  11.420  67.558  1.00  0.00    -0.177 N  
HETATM   26  O   UNL     1     -10.631  10.859  69.629  1.00  0.00    -0.214 OA 
HETATM   27  C   UNL     1      -9.960  10.541  68.651  1.00  0.00    -0.181 C  
HETATM   28  H   UNL     1      -9.350  11.052  66.669  1.00  0.00     0.000 HD 
BRANCH  27  29
HETATM   29  C   UNL     1      -9.292   9.159  68.519  1.00  0.00    -0.137 C  
HETATM   30  C   UNL     1      -9.303   8.286  67.155  1.00  0.00    -0.189 C  
HETATM   31  N   UNL     1      -7.802   7.252  66.733  1.00  0.00    -0.111 NA 
HETATM   32  C   UNL     1      -6.505   6.331  67.108  1.00  0.00    -0.053 C  
HETATM   33  C   UNL     1      -7.283   8.346  66.253  1.00  0.00    -0.078 C  
HETATM   34  C   UNL     1      -8.253   7.033  65.218  1.00  0.00    -0.128 C  
HETATM   35  C   UNL     1      -9.273   5.824  66.247  1.00  0.00    -0.168 A  
HETATM   36  C   UNL     1     -10.395   5.066  66.010  1.00  0.00    -0.237 A  
HETATM   37  N   UNL     1     -10.901   4.645  67.249  1.00  0.00     0.177 NA 
HETATM   38  H   UNL     1     -11.741   4.073  67.338  1.00  0.00     0.000 HD 
HETATM   39  C   UNL     1     -10.157   5.075  68.349  1.00  0.00    -0.107 A  
HETATM   40  C   UNL     1     -10.358   4.972  69.734  1.00  0.00    -0.286 A  
HETATM   41  C   UNL     1      -9.468   5.652  70.615  1.00  0.00    -0.203 A  
HETATM   42  C   UNL     1      -8.436   6.518  70.197  1.00  0.00    -0.135 A  
HETATM   43  C   UNL     1      -8.258   6.735  68.836  1.00  0.00    -0.121 A  
HETATM   44  C   UNL     1      -9.116   5.836  67.865  1.00  0.00    -0.109 A  
HETATM   45  C   UNL     1      -7.330   8.214  68.156  1.00  0.00    -0.096 C  
HETATM   46  C   UNL     1      -7.818   9.339  68.704  1.00  0.00    -0.089 C  
ENDBRANCH  27  29
ENDBRANCH  13  25
TORSDOF 4
ENDMDL
MODEL       93
REMARK 921   NORMALIZED FREE ENERGY PREDICTED BY IDOCK:   -4.55 KCAL/MOL
REMARK 922        TOTAL FREE ENERGY PREDICTED BY IDOCK:   -6.48 KCAL/MOL
REMARK 923 INTER-LIGAND FREE ENERGY PREDICTED BY IDOCK:   -5.89 KCAL/MOL
REMARK 924 INTRA-LIGAND FREE ENERGY PREDICTED BY IDOCK:   -0.59 KCAL/MOL
REMARK 927      BINDING AFFINITY PREDICTED BY RF-SCORE:    0.00 PKD
ROOT
HETATM    1  C   UNL     1      -9.004   4.809  66.270  1.00  0.00    -0.119 A  
HETATM    2  C   UNL     1      -9.491   3.554  65.528  1.00  0.00    -0.147 A  
HETATM    3  C   UNL     1      -8.208   2.645  65.473  1.00  0.00    -0.089 A  
HETATM    4  C   UNL     1      -7.073   3.503  66.020  1.00  0.00    -0.063 A  
HETATM    5  N   UNL     1      -7.612   4.842  65.942  1.00  0.00    -0.089 N  
HETATM    6  C   UNL     1      -6.839   5.885  66.340  1.00  0.00    -0.059 C  
HETATM    7  O   UNL     1      -5.693   6.018  65.916  1.00  0.00    -0.018 OA 
HETATM    8  C   UNL     1      -7.561   6.905  67.260  1.00  0.00    -0.108 C  
HETATM    9  O   UNL     1      -9.755   7.640  66.460  1.00  0.00    -0.208 OA 
HETATM   10  N   UNL     1      -9.024   6.363  67.882  1.00  0.00    -0.116 N  
HETATM   11  C   UNL     1     -10.049   7.147  68.492  1.00  0.00    -0.168 C  
HETATM   12  H   UNL     1     -11.572   6.572  67.071  1.00  0.00     0.000 HD 
HETATM   13  C   UNL     1      -9.847   8.481  67.879  1.00  0.00    -0.170 C  
HETATM   14  O   UNL     1     -10.878   6.794  69.315  1.00  0.00    -0.237 OA 
HETATM   15  O   UNL     1     -11.126   5.773  66.814  1.00  0.00    -0.230 OA 
HETATM   16  C   UNL     1      -8.932   8.756  69.176  1.00  0.00    -0.137 C  
HETATM   17  C   UNL     1      -9.768   6.178  66.711  1.00  0.00    -0.158 C  
ENDROOT
BRANCH   8  18
HETATM   18  C   UNL     1      -6.452   7.499  68.128  1.00  0.00    -0.049 C  
BRANCH  18  19
HETATM   19  C   UNL     1      -6.225   8.957  67.917  1.00  0.00    -0.052 A  
HETATM   20  C   UNL     1      -6.142  10.788  66.362  1.00  0.00    -0.118 A  
HETATM   21  C   UNL     1      -5.661  11.608  67.375  1.00  0.00    -0.086 A  
HETATM   22  C   UNL     1      -5.769   9.793  68.936  1.00  0.00    -0.035 A  
HETATM   23  C   UNL     1      -5.459  11.124  68.680  1.00  0.00    -0.043 A  
HETATM   24  C   UNL     1      -6.431   9.464  66.632  1.00  0.00    -0.067 A  
ENDBRANCH  18  19
ENDBRANCH   8  18
BRANCH  13  25
HETATM   25  N   UNL     1     -10.575   9.721  67.681  1.00  0.00    -0.259 N  
HETATM   26  O   UNL     1      -9.286  10.378  65.837  1.00  0.00    -0.159 OA 
HETATM   27  C   UNL     1     -10.097  10.659  66.715  1.00  0.00    -0.224 C  
HETATM   28  H   UNL     1     -11.417   9.919  68.223  1.00  0.00     0.000 HD 
BRANCH  27  29
HETATM   29  C   UNL     1     -10.656  12.083  66.900  1.00  0.00    -0.260 C  
HETATM   30  C   UNL     1     -10.018  13.394  66.195  1.00  0.00    -0.299 C  
HETATM   31  N   UNL     1     -11.162  14.765  65.635  1.00  0.00    -0.338 NA 
HETATM   32  C   UNL     1     -12.504  15.690  65.748  1.00  0.00     1.398 C  
HETATM   33  C   UNL     1     -11.360  14.052  64.564  1.00  0.00    -0.358 C  
HETATM   34  C   UNL     1     -10.048  15.462  64.731  1.00  0.00     0.193 C  
HETATM   35  C   UNL     1      -9.675  15.978  66.507  1.00  0.00    -0.284 A  
HETATM   36  C   UNL     1      -8.597  16.551  67.137  1.00  0.00    -0.186 A  
HETATM   37  N   UNL     1      -8.755  16.366  68.518  1.00  0.00    -0.213 NA 
HETATM   38  H   UNL     1      -8.075  16.697  69.202  1.00  0.00     0.000 HD 
HETATM   39  C   UNL     1      -9.922  15.690  68.876  1.00  0.00    -0.215 A  
HETATM   40  C   UNL     1     -10.410  15.216  70.104  1.00  0.00    -0.146 A  
HETATM   41  C   UNL     1     -11.595  14.424  70.119  1.00  0.00    -0.327 A  
HETATM   42  C   UNL     1     -12.279  13.987  68.965  1.00  0.00    -0.280 A  
HETATM   43  C   UNL     1     -11.780  14.344  67.719  1.00  0.00    -0.407 A  
HETATM   44  C   UNL     1     -10.586  15.375  67.712  1.00  0.00    -0.274 A  
HETATM   45  C   UNL     1     -12.231  13.434  66.145  1.00  0.00    -0.471 C  
HETATM   46  C   UNL     1     -12.034  12.116  66.318  1.00  0.00    -0.213 C  
ENDBRANCH  27  29
ENDBRANCH  13  25
TORSDOF 4
ENDMDL
MODEL       94
REMARK 921   NORMALIZED FREE ENERGY PREDICTED BY IDOCK:   -4.49 KCAL/MOL
REMARK 922        TOTAL FREE ENERGY PREDICTED BY IDOCK:   -6.40 KCAL/MOL
REMARK 923 INTER-LIGAND FREE ENERGY PREDICTED BY IDOCK:   -5.87 KCAL/MOL
REMARK 924 INTRA-LIGAND FREE ENERGY PREDICTED BY IDOCK:   -0.54 KCAL/MOL
REMARK 927      BINDING AFFINITY PREDICTED BY RF-SCORE:    0.00 PKD
ROOT
HETATM    1  C   UNL     1      -9.442   4.105  65.110  1.00  0.00    -0.173 A  
HETATM    2  C   UNL     1     -10.505   3.371  64.277  1.00  0.00    -0.131 A  
HETATM    3  C   UNL     1      -9.800   2.016  63.902  1.00  0.00    -0.129 A  
HETATM    4  C   UNL     1      -8.362   2.152  64.390  1.00  0.00    -0.082 A  
HETATM    5  N   UNL     1      -8.220   3.577  64.585  1.00  0.00    -0.090 N  
HETATM    6  C   UNL     1      -7.025   4.065  65.008  1.00  0.00    -0.058 C  
HETATM    7  O   UNL     1      -5.980   3.753  64.440  1.00  0.00    -0.017 OA 
HETATM    8  C   UNL     1      -7.125   5.098  66.161  1.00  0.00    -0.072 C  
HETATM    9  O   UNL     1      -8.772   6.876  65.811  1.00  0.00    -0.152 OA 
HETATM   10  N   UNL     1      -8.628   5.156  66.910  1.00  0.00    -0.106 N  
HETATM   11  C   UNL     1      -9.125   6.179  67.773  1.00  0.00    -0.117 C  
HETATM   12  H   UNL     1     -10.832   6.634  66.528  1.00  0.00     0.000 HD 
HETATM   13  C   UNL     1      -8.367   7.374  67.333  1.00  0.00    -0.116 C  
HETATM   14  O   UNL     1      -9.967   6.080  68.651  1.00  0.00    -0.134 OA 
HETATM   15  O   UNL     1     -10.828   5.788  66.096  1.00  0.00    -0.083 OA 
HETATM   16  C   UNL     1      -7.345   6.952  68.504  1.00  0.00    -0.090 C  
HETATM   17  C   UNL     1      -9.448   5.555  65.849  1.00  0.00    -0.096 C  
ENDROOT
BRANCH   8  18
HETATM   18  C   UNL     1      -5.812   4.952  66.929  1.00  0.00    -0.026 C  
BRANCH  18  19
HETATM   19  C   UNL     1      -5.828   3.885  67.970  1.00  0.00    -0.026 A  
HETATM   20  C   UNL     1      -5.494   3.304  70.279  1.00  0.00    -0.012 A  
HETATM   21  C   UNL     1      -5.658   1.964  69.950  1.00  0.00    -0.017 A  
HETATM   22  C   UNL     1      -6.020   2.540  67.653  1.00  0.00    -0.024 A  
HETATM   23  C   UNL     1      -5.917   1.557  68.630  1.00  0.00    -0.024 A  
HETATM   24  C   UNL     1      -5.585   4.267  69.292  1.00  0.00    -0.016 A  
ENDBRANCH  18  19
ENDBRANCH   8  18
BRANCH  13  25
HETATM   25  N   UNL     1      -8.445   8.820  67.424  1.00  0.00    -0.115 N  
HETATM   26  O   UNL     1     -10.785   8.852  67.556  1.00  0.00    -0.258 OA 
HETATM   27  C   UNL     1      -9.728   9.449  67.378  1.00  0.00    -0.159 C  
HETATM   28  H   UNL     1      -7.597   9.379  67.521  1.00  0.00     0.000 HD 
BRANCH  27  29
HETATM   29  C   UNL     1      -9.672  10.951  67.035  1.00  0.00    -0.203 C  
HETATM   30  C   UNL     1      -9.638  12.123  68.151  1.00  0.00    -0.208 C  
HETATM   31  N   UNL     1      -8.636  13.666  67.810  1.00  0.00    -0.168 NA 
HETATM   32  C   UNL     1      -7.996  14.811  66.836  1.00  0.00     0.013 C  
HETATM   33  C   UNL     1      -7.602  12.987  68.218  1.00  0.00    -0.135 C  
HETATM   34  C   UNL     1      -8.675  14.149  69.330  1.00  0.00     0.363 C  
HETATM   35  C   UNL     1     -10.349  14.611  68.593  1.00  0.00    -0.246 A  
HETATM   36  C   UNL     1     -11.559  14.995  69.118  1.00  0.00    -0.310 A  
HETATM   37  N   UNL     1     -12.529  14.855  68.115  1.00  0.00    -0.365 NA 
HETATM   38  H   UNL     1     -13.515  15.071  68.264  1.00  0.00     0.000 HD 
HETATM   39  C   UNL     1     -12.031  14.396  66.895  1.00  0.00    -0.399 A  
HETATM   40  C   UNL     1     -12.651  14.028  65.691  1.00  0.00    -0.542 A  
HETATM   41  C   UNL     1     -11.860  13.453  64.653  1.00  0.00    -0.430 A  
HETATM   42  C   UNL     1     -10.493  13.130  64.776  1.00  0.00    -0.390 A  
HETATM   43  C   UNL     1      -9.854  13.381  65.983  1.00  0.00    -0.273 A  
HETATM   44  C   UNL     1     -10.680  14.189  67.058  1.00  0.00    -0.285 A  
HETATM   45  C   UNL     1      -8.251  12.547  66.478  1.00  0.00     0.203 C  
HETATM   46  C   UNL     1      -8.377  11.217  66.335  1.00  0.00    -0.167 C  
ENDBRANCH  27  29
ENDBRANCH  13  25
TORSDOF 4
ENDMDL
MODEL       95
REMARK 921   NORMALIZED FREE ENERGY PREDICTED BY IDOCK:   -4.45 KCAL/MOL
REMARK 922        TOTAL FREE ENERGY PREDICTED BY IDOCK:   -6.35 KCAL/MOL
REMARK 923 INTER-LIGAND FREE ENERGY PREDICTED BY IDOCK:   -5.89 KCAL/MOL
REMARK 924 INTRA-LIGAND FREE ENERGY PREDICTED BY IDOCK:   -0.46 KCAL/MOL
REMARK 927      BINDING AFFINITY PREDICTED BY RF-SCORE:    0.00 PKD
ROOT
HETATM    1  C   UNL     1     -10.785  13.723  66.245  1.00  0.00    -0.285 A  
HETATM    2  C   UNL     1     -11.958  14.697  66.048  1.00  0.00    -0.248 A  
HETATM    3  C   UNL     1     -11.273  16.110  66.127  1.00  0.00     0.225 A  
HETATM    4  C   UNL     1      -9.827  15.844  66.527  1.00  0.00    -0.261 A  
HETATM    5  N   UNL     1      -9.875  14.492  67.036  1.00  0.00    -0.244 N  
HETATM    6  C   UNL     1      -8.734  13.928  67.510  1.00  0.00    -0.193 C  
HETATM    7  O   UNL     1      -8.036  14.515  68.335  1.00  0.00    -0.126 OA 
HETATM    8  C   UNL     1      -8.474  12.484  67.006  1.00  0.00    -0.161 C  
HETATM    9  O   UNL     1     -10.390  10.970  67.186  1.00  0.00    -0.202 OA 
HETATM   10  N   UNL     1      -9.436  12.019  65.710  1.00  0.00    -0.215 N  
HETATM   11  C   UNL     1      -9.654  10.694  65.226  1.00  0.00    -0.241 C  
HETATM   12  H   UNL     1     -11.795  10.759  65.513  1.00  0.00     0.000 HD 
HETATM   13  C   UNL     1      -9.422   9.864  66.432  1.00  0.00    -0.183 C  
HETATM   14  O   UNL     1      -9.955  10.345  64.096  1.00  0.00    -0.328 OA 
HETATM   15  O   UNL     1     -11.836  11.708  65.496  1.00  0.00    -0.246 OA 
HETATM   16  C   UNL     1      -7.915   9.768  65.873  1.00  0.00    -0.111 C  
HETATM   17  C   UNL     1     -10.714  12.097  66.275  1.00  0.00    -0.261 C  
ENDROOT
BRANCH   8  18
HETATM   18  C   UNL     1      -6.953  12.337  67.014  1.00  0.00    -0.036 C  
BRANCH  18  19
HETATM   19  C   UNL     1      -6.406  11.700  68.245  1.00  0.00    -0.050 A  
HETATM   20  C   UNL     1      -5.730   9.672  69.346  1.00  0.00    -0.034 A  
HETATM   21  C   UNL     1      -5.559  10.386  70.526  1.00  0.00    -0.083 A  
HETATM   22  C   UNL     1      -6.205  12.415  69.426  1.00  0.00    -0.114 A  
HETATM   23  C   UNL     1      -5.800  11.770  70.589  1.00  0.00    -0.074 A  
HETATM   24  C   UNL     1      -6.146  10.328  68.203  1.00  0.00    -0.047 A  
ENDBRANCH  18  19
ENDBRANCH   8  18
BRANCH  13  25
HETATM   25  N   UNL     1      -9.714   8.528  66.919  1.00  0.00    -0.200 N  
HETATM   26  O   UNL     1      -9.210   9.050  69.148  1.00  0.00    -0.142 OA 
HETATM   27  C   UNL     1      -9.421   8.208  68.281  1.00  0.00    -0.141 C  
HETATM   28  H   UNL     1     -10.123   7.829  66.299  1.00  0.00     0.000 HD 
BRANCH  27  29
HETATM   29  C   UNL     1      -9.345   6.694  68.561  1.00  0.00    -0.125 C  
HETATM   30  C   UNL     1      -8.261   6.022  69.560  1.00  0.00    -0.115 C  
HETATM   31  N   UNL     1      -8.773   4.542  70.584  1.00  0.00    -0.093 NA 
HETATM   32  C   UNL     1      -9.617   3.170  70.854  1.00  0.00    -0.155 C  
HETATM   33  C   UNL     1      -9.291   5.400  71.416  1.00  0.00    -0.147 C  
HETATM   34  C   UNL     1      -7.513   4.653  71.556  1.00  0.00    -0.073 C  
HETATM   35  C   UNL     1      -6.885   3.827  69.980  1.00  0.00    -0.034 A  
HETATM   36  C   UNL     1      -5.641   3.574  69.456  1.00  0.00    -0.017 A  
HETATM   37  N   UNL     1      -5.798   3.261  68.098  1.00  0.00    -0.022 NA 
HETATM   38  H   UNL     1      -5.013   3.043  67.486  1.00  0.00     0.000 HD 
HETATM   39  C   UNL     1      -7.122   3.274  67.657  1.00  0.00    -0.050 A  
HETATM   40  C   UNL     1      -7.706   3.125  66.390  1.00  0.00    -0.077 A  
HETATM   41  C   UNL     1      -9.108   3.334  66.244  1.00  0.00    -0.161 A  
HETATM   42  C   UNL     1      -9.961   3.781  67.275  1.00  0.00     0.138 A  
HETATM   43  C   UNL     1      -9.416   4.041  68.526  1.00  0.00    -0.215 A  
HETATM   44  C   UNL     1      -7.907   3.627  68.732  1.00  0.00    -0.055 A  
HETATM   45  C   UNL     1     -10.267   5.117  69.801  1.00  0.00    -0.357 C  
HETATM   46  C   UNL     1     -10.615   6.287  69.239  1.00  0.00    -0.332 C  
ENDBRANCH  27  29
ENDBRANCH  13  25
TORSDOF 4
ENDMDL
MODEL       96
REMARK 921   NORMALIZED FREE ENERGY PREDICTED BY IDOCK:   -4.43 KCAL/MOL
REMARK 922        TOTAL FREE ENERGY PREDICTED BY IDOCK:   -6.33 KCAL/MOL
REMARK 923 INTER-LIGAND FREE ENERGY PREDICTED BY IDOCK:   -5.55 KCAL/MOL
REMARK 924 INTRA-LIGAND FREE ENERGY PREDICTED BY IDOCK:   -0.78 KCAL/MOL
REMARK 927      BINDING AFFINITY PREDICTED BY RF-SCORE:    0.00 PKD
ROOT
HETATM    1  C   UNL     1     -11.203  14.049  68.577  1.00  0.00    -0.265 A  
HETATM    2  C   UNL     1     -11.450  15.408  69.252  1.00  0.00    -0.344 A  
HETATM    3  C   UNL     1     -11.608  16.393  68.036  1.00  0.00     0.068 A  
HETATM    4  C   UNL     1     -11.273  15.572  66.796  1.00  0.00    -0.139 A  
HETATM    5  N   UNL     1     -10.585  14.425  67.343  1.00  0.00    -0.268 N  
HETATM    6  C   UNL     1     -10.118  13.474  66.493  1.00  0.00    -0.282 C  
HETATM    7  O   UNL     1      -9.428  13.779  65.522  1.00  0.00    -0.029 OA 
HETATM    8  C   UNL     1     -10.441  12.017  66.920  1.00  0.00    -0.251 C  
HETATM    9  O   UNL     1      -9.931  11.492  69.257  1.00  0.00    -0.012 OA 
HETATM   10  N   UNL     1     -11.595  11.890  68.134  1.00  0.00    -0.320 N  
HETATM   11  C   UNL     1     -11.881  10.747  68.939  1.00  0.00    -0.216 C  
HETATM   12  H   UNL     1     -11.462  11.748  70.808  1.00  0.00     0.000 HD 
HETATM   13  C   UNL     1     -10.594  10.013  68.934  1.00  0.00    -0.218 C  
HETATM   14  O   UNL     1     -12.932  10.457  69.489  1.00  0.00     0.025 OA 
HETATM   15  O   UNL     1     -11.604  12.617  70.452  1.00  0.00    -0.120 OA 
HETATM   16  C   UNL     1     -11.234   9.230  67.681  1.00  0.00     0.349 C  
HETATM   17  C   UNL     1     -10.961  12.559  69.187  1.00  0.00    -0.144 C  
ENDROOT
BRANCH   8  18
HETATM   18  C   UNL     1     -10.516  11.235  65.609  1.00  0.00    -0.317 C  
BRANCH  18  19
HETATM   19  C   UNL     1      -9.233  10.591  65.207  1.00  0.00    -0.238 A  
HETATM   20  C   UNL     1      -6.866  10.389  65.577  1.00  0.00    -0.125 A  
HETATM   21  C   UNL     1      -6.771   9.592  64.442  1.00  0.00    -0.111 A  
HETATM   22  C   UNL     1      -9.134   9.767  64.085  1.00  0.00    -0.289 A  
HETATM   23  C   UNL     1      -7.903   9.272  63.672  1.00  0.00    -0.130 A  
HETATM   24  C   UNL     1      -8.097  10.883  65.965  1.00  0.00    -0.142 A  
ENDBRANCH  18  19
ENDBRANCH   8  18
BRANCH  13  25
HETATM   25  N   UNL     1      -9.913   8.982  69.696  1.00  0.00    -0.185 N  
HETATM   26  O   UNL     1      -7.781   9.594  68.937  1.00  0.00    -0.074 OA 
HETATM   27  C   UNL     1      -8.513   8.779  69.492  1.00  0.00    -0.128 C  
HETATM   28  H   UNL     1     -10.427   8.412  70.368  1.00  0.00     0.000 HD 
BRANCH  27  29
HETATM   29  C   UNL     1      -8.003   7.414  69.992  1.00  0.00    -0.119 C  
HETATM   30  C   UNL     1      -8.892   6.061  69.962  1.00  0.00    -0.139 C  
HETATM   31  N   UNL     1      -8.043   4.429  69.618  1.00  0.00    -0.060 NA 
HETATM   32  C   UNL     1      -6.781   3.394  69.679  1.00  0.00    -0.034 C  
HETATM   33  C   UNL     1      -8.133   4.742  68.356  1.00  0.00    -0.084 C  
HETATM   34  C   UNL     1      -9.412   3.664  69.326  1.00  0.00    -0.174 C  
HETATM   35  C   UNL     1      -9.269   3.779  71.204  1.00  0.00    -0.201 A  
HETATM   36  C   UNL     1     -10.141   3.594  72.249  1.00  0.00    -0.155 A  
HETATM   37  N   UNL     1      -9.570   4.168  73.395  1.00  0.00    -0.113 NA 
HETATM   38  H   UNL     1     -10.034   4.168  74.303  1.00  0.00     0.000 HD 
HETATM   39  C   UNL     1      -8.314   4.739  73.185  1.00  0.00    -0.100 A  
HETATM   40  C   UNL     1      -7.459   5.487  74.009  1.00  0.00    -0.090 A  
HETATM   41  C   UNL     1      -6.282   6.060  73.445  1.00  0.00    -0.063 A  
HETATM   42  C   UNL     1      -5.948   6.015  72.075  1.00  0.00    -0.040 A  
HETATM   43  C   UNL     1      -6.813   5.371  71.199  1.00  0.00    -0.052 A  
HETATM   44  C   UNL     1      -8.010   4.578  71.852  1.00  0.00    -0.098 A  
HETATM   45  C   UNL     1      -6.799   5.677  69.350  1.00  0.00    -0.061 C  
HETATM   46  C   UNL     1      -6.864   6.998  69.115  1.00  0.00    -0.061 C  
ENDBRANCH  27  29
ENDBRANCH  13  25
TORSDOF 4
ENDMDL
MODEL       97
REMARK 921   NORMALIZED FREE ENERGY PREDICTED BY IDOCK:   -4.12 KCAL/MOL
REMARK 922        TOTAL FREE ENERGY PREDICTED BY IDOCK:   -5.95 KCAL/MOL
REMARK 923 INTER-LIGAND FREE ENERGY PREDICTED BY IDOCK:   -5.80 KCAL/MOL
REMARK 924 INTRA-LIGAND FREE ENERGY PREDICTED BY IDOCK:   -0.15 KCAL/MOL
REMARK 927      BINDING AFFINITY PREDICTED BY RF-SCORE:    0.00 PKD
ROOT
HETATM    1  C   UNL     1      -9.579  17.262  67.113  1.00  0.00    -0.257 A  
HETATM    2  C   UNL     1      -9.725  18.349  66.036  1.00  0.00    -0.111 A  
HETATM    3  C   UNL     1     -10.356  19.556  66.823  1.00  0.00    -0.570 A  
HETATM    4  C   UNL     1     -10.675  19.018  68.213  1.00  0.00    -0.022 A  
HETATM    5  N   UNL     1     -10.633  17.586  68.025  1.00  0.00    -0.389 N  
HETATM    6  C   UNL     1     -10.896  16.777  69.083  1.00  0.00    -0.287 C  
HETATM    7  O   UNL     1     -11.905  16.942  69.767  1.00  0.00     0.692 OA 
HETATM    8  C   UNL     1      -9.892  15.608  69.263  1.00  0.00    -0.269 C  
HETATM    9  O   UNL     1      -9.421  14.333  67.227  1.00  0.00    -0.207 OA 
HETATM   10  N   UNL     1      -8.485  15.757  68.359  1.00  0.00    -0.164 N  
HETATM   11  C   UNL     1      -7.529  14.738  68.072  1.00  0.00    -0.129 C  
HETATM   12  H   UNL     1      -7.746  14.900  65.928  1.00  0.00     0.000 HD 
HETATM   13  C   UNL     1      -8.337  13.499  68.155  1.00  0.00    -0.167 C  
HETATM   14  O   UNL     1      -6.341  14.868  67.822  1.00  0.00    -0.146 OA 
HETATM   15  O   UNL     1      -8.088  15.786  65.962  1.00  0.00     0.066 OA 
HETATM   16  C   UNL     1      -7.836  13.471  69.685  1.00  0.00     0.930 C  
HETATM   17  C   UNL     1      -8.994  15.744  67.055  1.00  0.00    -0.224 C  
ENDROOT
BRANCH   8  18
HETATM   18  C   UNL     1      -9.895  15.320  70.764  1.00  0.00     0.874 C  
BRANCH  18  19
HETATM   19  C   UNL     1     -11.209  14.858  71.296  1.00  0.00    -0.183 A  
HETATM   20  C   UNL     1     -12.939  15.140  72.941  1.00  0.00    -0.561 A  
HETATM   21  C   UNL     1     -13.553  13.984  72.473  1.00  0.00    -0.670 A  
HETATM   22  C   UNL     1     -11.846  13.715  70.813  1.00  0.00    -0.169 A  
HETATM   23  C   UNL     1     -13.014  13.247  71.405  1.00  0.00    -0.398 A  
HETATM   24  C   UNL     1     -11.771  15.582  72.350  1.00  0.00    -0.570 A  
ENDBRANCH  18  19
ENDBRANCH   8  18
BRANCH  13  25
HETATM   25  N   UNL     1      -8.273  12.114  67.727  1.00  0.00    -0.143 N  
HETATM   26  O   UNL     1     -10.302  11.530  68.747  1.00  0.00    -0.203 OA 
HETATM   27  C   UNL     1      -9.246  11.190  68.219  1.00  0.00    -0.169 C  
HETATM   28  H   UNL     1      -7.544  11.804  67.084  1.00  0.00     0.000 HD 
BRANCH  27  29
HETATM   29  C   UNL     1      -8.833   9.713  68.073  1.00  0.00    -0.119 C  
HETATM   30  C   UNL     1      -9.691   8.479  68.676  1.00  0.00    -0.171 C  
HETATM   31  N   UNL     1      -9.755   6.871  67.721  1.00  0.00    -0.128 NA 
HETATM   32  C   UNL     1      -9.132   5.730  66.731  1.00  0.00    -0.126 C  
HETATM   33  C   UNL     1     -10.695   7.425  67.010  1.00  0.00    -0.319 C  
HETATM   34  C   UNL     1     -10.990   6.306  68.558  1.00  0.00    -0.340 C  
HETATM   35  C   UNL     1      -9.464   6.047  69.638  1.00  0.00    -0.167 A  
HETATM   36  C   UNL     1      -9.263   5.749  70.964  1.00  0.00    -0.149 A  
HETATM   37  N   UNL     1      -7.926   6.038  71.274  1.00  0.00    -0.111 NA 
HETATM   38  H   UNL     1      -7.533   5.908  72.206  1.00  0.00     0.000 HD 
HETATM   39  C   UNL     1      -7.179   6.519  70.197  1.00  0.00    -0.080 A  
HETATM   40  C   UNL     1      -5.870   7.013  70.092  1.00  0.00    -0.024 A  
HETATM   41  C   UNL     1      -5.438   7.571  68.853  1.00  0.00    -0.022 A  
HETATM   42  C   UNL     1      -6.268   7.756  67.728  1.00  0.00    -0.050 A  
HETATM   43  C   UNL     1      -7.602   7.375  67.812  1.00  0.00    -0.107 A  
HETATM   44  C   UNL     1      -8.024   6.588  69.112  1.00  0.00    -0.111 A  
HETATM   45  C   UNL     1      -8.920   8.025  66.651  1.00  0.00    -0.179 C  
HETATM   46  C   UNL     1      -8.864   9.367  66.617  1.00  0.00    -0.151 C  
ENDBRANCH  27  29
ENDBRANCH  13  25
TORSDOF 4
ENDMDL
MODEL       98
REMARK 921   NORMALIZED FREE ENERGY PREDICTED BY IDOCK:   -3.97 KCAL/MOL
REMARK 922        TOTAL FREE ENERGY PREDICTED BY IDOCK:   -5.76 KCAL/MOL
REMARK 923 INTER-LIGAND FREE ENERGY PREDICTED BY IDOCK:   -5.12 KCAL/MOL
REMARK 924 INTRA-LIGAND FREE ENERGY PREDICTED BY IDOCK:   -0.65 KCAL/MOL
REMARK 927      BINDING AFFINITY PREDICTED BY RF-SCORE:    0.00 PKD
ROOT
HETATM    1  C   UNL     1      -9.443   8.697  68.630  1.00  0.00    -0.142 A  
HETATM    2  C   UNL     1     -10.764   8.209  69.246  1.00  0.00    -0.141 A  
HETATM    3  C   UNL     1     -10.767   6.669  68.922  1.00  0.00    -0.304 A  
HETATM    4  C   UNL     1      -9.562   6.437  68.018  1.00  0.00    -0.118 A  
HETATM    5  N   UNL     1      -9.238   7.769  67.561  1.00  0.00    -0.132 N  
HETATM    6  C   UNL     1      -8.201   7.934  66.701  1.00  0.00    -0.119 C  
HETATM    7  O   UNL     1      -8.116   7.257  65.677  1.00  0.00    -0.118 OA 
HETATM    8  C   UNL     1      -7.235   9.090  67.073  1.00  0.00    -0.086 C  
HETATM    9  O   UNL     1      -8.330  11.214  67.608  1.00  0.00    -0.119 OA 
HETATM   10  N   UNL     1      -7.434   9.684  68.631  1.00  0.00    -0.075 N  
HETATM   11  C   UNL     1      -6.930  10.910  69.160  1.00  0.00    -0.096 C  
HETATM   12  H   UNL     1      -8.880  11.684  69.679  1.00  0.00     0.000 HD 
HETATM   13  C   UNL     1      -6.809  11.762  67.952  1.00  0.00    -0.077 C  
HETATM   14  O   UNL     1      -6.667  11.178  70.321  1.00  0.00    -0.218 OA 
HETATM   15  O   UNL     1      -9.286  10.827  69.712  1.00  0.00     0.097 OA 
HETATM   16  C   UNL     1      -5.296  11.212  67.918  1.00  0.00    -0.043 C  
HETATM   17  C   UNL     1      -8.746  10.168  68.575  1.00  0.00    -0.123 C  
ENDROOT
BRANCH   8  18
HETATM   18  C   UNL     1      -5.881   8.663  66.506  1.00  0.00    -0.051 C  
BRANCH  18  19
HETATM   19  C   UNL     1      -5.704   8.958  65.056  1.00  0.00    -0.055 A  
HETATM   20  C   UNL     1      -6.071  10.494  63.243  1.00  0.00    -0.085 A  
HETATM   21  C   UNL     1      -5.586   9.541  62.356  1.00  0.00    -0.085 A  
HETATM   22  C   UNL     1      -5.192   8.017  64.163  1.00  0.00    -0.040 A  
HETATM   23  C   UNL     1      -5.143   8.283  62.799  1.00  0.00    -0.059 A  
HETATM   24  C   UNL     1      -6.124  10.208  64.594  1.00  0.00    -0.128 A  
ENDBRANCH  18  19
ENDBRANCH   8  18
BRANCH  13  25
HETATM   25  N   UNL     1      -6.692  13.166  67.605  1.00  0.00    -0.151 N  
HETATM   26  O   UNL     1      -6.765  13.895  69.832  1.00  0.00    -0.074 OA 
HETATM   27  C   UNL     1      -6.837  14.149  68.633  1.00  0.00    -0.101 C  
HETATM   28  H   UNL     1      -6.509  13.447  66.642  1.00  0.00     0.000 HD 
BRANCH  27  29
HETATM   29  C   UNL     1      -7.139  15.563  68.103  1.00  0.00    -0.126 C  
HETATM   30  C   UNL     1      -7.103  16.893  69.028  1.00  0.00    -0.232 C  
HETATM   31  N   UNL     1      -6.504  18.498  68.278  1.00  0.00    -0.208 NA 
HETATM   32  C   UNL     1      -6.305  19.557  67.049  1.00  0.00    -0.185 C  
HETATM   33  C   UNL     1      -5.298  18.067  68.519  1.00  0.00    -0.158 C  
HETATM   34  C   UNL     1      -6.323  19.210  69.694  1.00  0.00    -0.257 C  
HETATM   35  C   UNL     1      -8.169  19.275  69.309  1.00  0.00    -0.070 A  
HETATM   36  C   UNL     1      -9.297  19.542  70.046  1.00  0.00     0.789 A  
HETATM   37  N   UNL     1     -10.407  19.089  69.317  1.00  0.00    -0.424 NA 
HETATM   38  H   UNL     1     -11.364  19.166  69.660  1.00  0.00     0.000 HD 
HETATM   39  C   UNL     1     -10.089  18.522  68.082  1.00  0.00    -0.375 A  
HETATM   40  C   UNL     1     -10.859  17.869  67.107  1.00  0.00    -0.149 A  
HETATM   41  C   UNL     1     -10.202  17.266  65.995  1.00  0.00    -0.314 A  
HETATM   42  C   UNL     1      -8.802  17.188  65.841  1.00  0.00    -0.008 A  
HETATM   43  C   UNL     1      -7.990  17.731  66.829  1.00  0.00    -0.265 A  
HETATM   44  C   UNL     1      -8.719  18.561  67.955  1.00  0.00    -0.313 A  
HETATM   45  C   UNL     1      -6.192  17.253  67.043  1.00  0.00    -0.203 C  
HETATM   46  C   UNL     1      -6.088  15.914  67.098  1.00  0.00     0.022 C  
ENDBRANCH  27  29
ENDBRANCH  13  25
TORSDOF 4
ENDMDL
MODEL       99
REMARK 921   NORMALIZED FREE ENERGY PREDICTED BY IDOCK:   -3.97 KCAL/MOL
REMARK 922        TOTAL FREE ENERGY PREDICTED BY IDOCK:   -5.76 KCAL/MOL
REMARK 923 INTER-LIGAND FREE ENERGY PREDICTED BY IDOCK:   -4.81 KCAL/MOL
REMARK 924 INTRA-LIGAND FREE ENERGY PREDICTED BY IDOCK:   -0.95 KCAL/MOL
REMARK 927      BINDING AFFINITY PREDICTED BY RF-SCORE:    0.00 PKD
ROOT
HETATM    1  C   UNL     1      -6.620  11.422  68.900  1.00  0.00    -0.071 A  
HETATM    2  C   UNL     1      -5.634  12.257  69.732  1.00  0.00    -0.101 A  
HETATM    3  C   UNL     1      -5.233  13.423  68.756  1.00  0.00    -0.072 A  
HETATM    4  C   UNL     1      -5.871  13.075  67.416  1.00  0.00    -0.022 A  
HETATM    5  N   UNL     1      -6.183  11.672  67.561  1.00  0.00    -0.072 N  
HETATM    6  C   UNL     1      -6.758  11.017  66.519  1.00  0.00    -0.135 C  
HETATM    7  O   UNL     1      -6.277  11.083  65.390  1.00  0.00     0.000 OA 
HETATM    8  C   UNL     1      -7.969  10.128  66.909  1.00  0.00    -0.114 C  
HETATM    9  O   UNL     1      -7.587   8.651  68.825  1.00  0.00    -0.092 OA 
HETATM   10  N   UNL     1      -8.566  10.409  68.454  1.00  0.00    -0.123 N  
HETATM   11  C   UNL     1      -9.447   9.575  69.206  1.00  0.00    -0.169 C  
HETATM   12  H   UNL     1      -8.074   9.324  70.856  1.00  0.00     0.000 HD 
HETATM   13  C   UNL     1      -9.175   8.228  68.651  1.00  0.00    -0.143 C  
HETATM   14  O   UNL     1     -10.227   9.904  70.085  1.00  0.00    -0.254 OA 
HETATM   15  O   UNL     1      -7.584  10.113  70.656  1.00  0.00    -0.237 OA 
HETATM   16  C   UNL     1     -10.408   8.564  67.671  1.00  0.00    -0.317 C  
HETATM   17  C   UNL     1      -7.460  10.070  69.242  1.00  0.00    -0.103 C  
ENDROOT
BRANCH   8  18
HETATM   18  C   UNL     1      -8.852  10.104  65.662  1.00  0.00    -0.185 C  
BRANCH  18  19
HETATM   19  C   UNL     1      -8.532   9.006  64.707  1.00  0.00    -0.197 A  
HETATM   20  C   UNL     1      -7.508   6.858  64.361  1.00  0.00    -0.100 A  
HETATM   21  C   UNL     1      -7.735   6.986  62.996  1.00  0.00    -0.115 A  
HETATM   22  C   UNL     1      -8.781   9.114  63.338  1.00  0.00    -0.147 A  
HETATM   23  C   UNL     1      -8.370   8.119  62.459  1.00  0.00    -0.124 A  
HETATM   24  C   UNL     1      -7.912   7.863  65.219  1.00  0.00    -0.126 A  
ENDBRANCH  18  19
ENDBRANCH   8  18
BRANCH  13  25
HETATM   25  N   UNL     1      -9.364   6.834  69.007  1.00  0.00    -0.135 N  
HETATM   26  O   UNL     1      -9.785   7.295  71.266  1.00  0.00    -0.167 OA 
HETATM   27  C   UNL     1      -9.515   6.485  70.384  1.00  0.00    -0.162 C  
HETATM   28  H   UNL     1      -9.389   6.115  68.284  1.00  0.00     0.000 HD 
BRANCH  27  29
HETATM   29  C   UNL     1      -9.261   4.994  70.680  1.00  0.00    -0.195 C  
HETATM   30  C   UNL     1      -8.012   4.456  71.560  1.00  0.00    -0.083 C  
HETATM   31  N   UNL     1      -8.259   2.963  72.660  1.00  0.00    -0.069 NA 
HETATM   32  C   UNL     1      -8.930   1.524  73.047  1.00  0.00    -0.062 C  
HETATM   33  C   UNL     1      -8.763   3.789  73.532  1.00  0.00    -0.086 C  
HETATM   34  C   UNL     1      -6.916   3.220  73.482  1.00  0.00    -0.040 C  
HETATM   35  C   UNL     1      -6.389   2.415  71.859  1.00  0.00    -0.014 A  
HETATM   36  C   UNL     1      -5.192   2.267  71.201  1.00  0.00    -0.004 A  
HETATM   37  N   UNL     1      -5.469   1.903  69.875  1.00  0.00    -0.012 NA 
HETATM   38  H   UNL     1      -4.739   1.744  69.181  1.00  0.00     0.000 HD 
HETATM   39  C   UNL     1      -6.829   1.778  69.587  1.00  0.00    -0.033 A  
HETATM   40  C   UNL     1      -7.532   1.538  68.396  1.00  0.00    -0.046 A  
HETATM   41  C   UNL     1      -8.956   1.608  68.407  1.00  0.00    -0.163 A  
HETATM   42  C   UNL     1      -9.728   2.001  69.520  1.00  0.00     0.071 A  
HETATM   43  C   UNL     1      -9.075   2.346  70.697  1.00  0.00    -0.177 A  
HETATM   44  C   UNL     1      -7.520   2.084  70.738  1.00  0.00    -0.033 A  
HETATM   45  C   UNL     1      -9.880   3.371  72.043  1.00  0.00    -0.239 C  
HETATM   46  C   UNL     1     -10.401   4.486  71.504  1.00  0.00    -0.138 C  
ENDBRANCH  27  29
ENDBRANCH  13  25
TORSDOF 4
ENDMDL
MODEL      100
REMARK 921   NORMALIZED FREE ENERGY PREDICTED BY IDOCK:   -3.95 KCAL/MOL
REMARK 922        TOTAL FREE ENERGY PREDICTED BY IDOCK:   -5.74 KCAL/MOL
REMARK 923 INTER-LIGAND FREE ENERGY PREDICTED BY IDOCK:   -6.23 KCAL/MOL
REMARK 924 INTRA-LIGAND FREE ENERGY PREDICTED BY IDOCK:    0.49 KCAL/MOL
REMARK 927      BINDING AFFINITY PREDICTED BY RF-SCORE:    0.00 PKD
ROOT
HETATM    1  C   UNL     1     -10.847  14.260  68.240  1.00  0.00    -0.246 A  
HETATM    2  C   UNL     1     -12.243  14.867  68.455  1.00  0.00    -0.084 A  
HETATM    3  C   UNL     1     -11.935  16.372  68.795  1.00  0.00     0.272 A  
HETATM    4  C   UNL     1     -10.419  16.464  68.916  1.00  0.00    -0.285 A  
HETATM    5  N   UNL     1     -10.021  15.083  69.069  1.00  0.00    -0.239 N  
HETATM    6  C   UNL     1      -8.704  14.793  69.226  1.00  0.00    -0.026 C  
HETATM    7  O   UNL     1      -8.026  15.377  70.070  1.00  0.00    -0.042 OA 
HETATM    8  C   UNL     1      -8.194  13.623  68.344  1.00  0.00    -0.146 C  
HETATM    9  O   UNL     1      -9.590  11.612  68.393  1.00  0.00    -0.189 OA 
HETATM   10  N   UNL     1      -9.247  13.173  67.115  1.00  0.00    -0.219 N  
HETATM   11  C   UNL     1      -9.215  11.971  66.346  1.00  0.00    -0.216 C  
HETATM   12  H   UNL     1     -11.201  11.346  66.927  1.00  0.00     0.000 HD 
HETATM   13  C   UNL     1      -8.545  11.016  67.260  1.00  0.00    -0.130 C  
HETATM   14  O   UNL     1      -9.638  11.788  65.216  1.00  0.00    -0.229 OA 
HETATM   15  O   UNL     1     -11.483  12.224  67.155  1.00  0.00    -0.311 OA 
HETATM   16  C   UNL     1      -7.205  11.481  66.497  1.00  0.00    -0.009 C  
HETATM   17  C   UNL     1     -10.363  12.756  67.849  1.00  0.00    -0.226 C  
ENDROOT
BRANCH   8  18
HETATM   18  C   UNL     1      -6.715  13.929  68.108  1.00  0.00    -0.125 C  
BRANCH  18  19
HETATM   19  C   UNL     1      -6.408  15.380  67.952  1.00  0.00    -0.170 A  
HETATM   20  C   UNL     1      -5.212  17.295  68.777  1.00  0.00    -0.146 A  
HETATM   21  C   UNL     1      -5.894  18.095  67.868  1.00  0.00    -0.159 A  
HETATM   22  C   UNL     1      -7.068  16.184  67.023  1.00  0.00    -0.248 A  
HETATM   23  C   UNL     1      -6.839  17.554  66.979  1.00  0.00    -0.208 A  
HETATM   24  C   UNL     1      -5.462  15.937  68.817  1.00  0.00    -0.104 A  
ENDBRANCH  18  19
ENDBRANCH   8  18
BRANCH  13  25
HETATM   25  N   UNL     1      -8.386   9.584  67.430  1.00  0.00    -0.124 N  
HETATM   26  O   UNL     1     -10.336   9.058  66.239  1.00  0.00    -0.247 OA 
HETATM   27  C   UNL     1      -9.436   8.714  67.000  1.00  0.00    -0.171 C  
HETATM   28  H   UNL     1      -7.537   9.203  67.849  1.00  0.00     0.000 HD 
BRANCH  27  29
HETATM   29  C   UNL     1      -9.368   7.304  67.618  1.00  0.00    -0.139 C  
HETATM   30  C   UNL     1      -8.383   6.908  68.840  1.00  0.00    -0.121 C  
HETATM   31  N   UNL     1      -8.975   5.674  70.115  1.00  0.00    -0.136 NA 
HETATM   32  C   UNL     1      -9.824   4.365  70.603  1.00  0.00    -0.210 C  
HETATM   33  C   UNL     1      -9.586   6.675  70.682  1.00  0.00    -0.169 C  
HETATM   34  C   UNL     1      -7.822   6.042  71.154  1.00  0.00    -0.111 C  
HETATM   35  C   UNL     1      -7.026   4.911  69.870  1.00  0.00    -0.053 A  
HETATM   36  C   UNL     1      -5.732   4.594  69.537  1.00  0.00    -0.016 A  
HETATM   37  N   UNL     1      -5.747   3.983  68.275  1.00  0.00    -0.020 NA 
HETATM   38  H   UNL     1      -4.901   3.663  67.804  1.00  0.00     0.000 HD 
HETATM   39  C   UNL     1      -7.020   3.851  67.717  1.00  0.00    -0.055 A  
HETATM   40  C   UNL     1      -7.469   3.404  66.465  1.00  0.00    -0.076 A  
HETATM   41  C   UNL     1      -8.853   3.525  66.143  1.00  0.00    -0.130 A  
HETATM   42  C   UNL     1      -9.811   4.158  66.961  1.00  0.00    -0.190 A  
HETATM   43  C   UNL     1      -9.399   4.707  68.169  1.00  0.00    -0.177 A  
HETATM   44  C   UNL     1      -7.914   4.404  68.606  1.00  0.00    -0.077 A  
HETATM   45  C   UNL     1     -10.390   6.008  69.085  1.00  0.00    -0.289 C  
HETATM   46  C   UNL     1     -10.695   7.011  68.245  1.00  0.00    -0.231 C  
ENDBRANCH  27  29
ENDBRANCH  13  25
TORSDOF 4
ENDMDL
MODEL      101
REMARK 921   NORMALIZED FREE ENERGY PREDICTED BY IDOCK:   -3.92 KCAL/MOL
REMARK 922        TOTAL FREE ENERGY PREDICTED BY IDOCK:   -5.69 KCAL/MOL
REMARK 923 INTER-LIGAND FREE ENERGY PREDICTED BY IDOCK:   -5.26 KCAL/MOL
REMARK 924 INTRA-LIGAND FREE ENERGY PREDICTED BY IDOCK:   -0.43 KCAL/MOL
REMARK 927      BINDING AFFINITY PREDICTED BY RF-SCORE:    0.00 PKD
ROOT
HETATM    1  C   UNL     1      -8.755   9.104  69.965  1.00  0.00    -0.177 A  
HETATM    2  C   UNL     1      -9.166   8.675  71.382  1.00  0.00    -0.303 A  
HETATM    3  C   UNL     1      -9.823   7.263  71.157  1.00  0.00    -0.182 A  
HETATM    4  C   UNL     1      -9.892   7.079  69.645  1.00  0.00    -0.164 A  
HETATM    5  N   UNL     1      -9.710   8.423  69.146  1.00  0.00    -0.168 N  
HETATM    6  C   UNL     1      -9.737   8.634  67.805  1.00  0.00    -0.165 C  
HETATM    7  O   UNL     1     -10.659   8.201  67.117  1.00  0.00    -0.322 OA 
HETATM    8  C   UNL     1      -8.589   9.534  67.273  1.00  0.00    -0.128 C  
HETATM    9  O   UNL     1      -8.245  11.610  68.524  1.00  0.00    -0.149 OA 
HETATM   10  N   UNL     1      -7.340   9.782  68.368  1.00  0.00    -0.078 N  
HETATM   11  C   UNL     1      -6.318  10.776  68.304  1.00  0.00    -0.057 C  
HETATM   12  H   UNL     1      -6.833  11.672  70.202  1.00  0.00     0.000 HD 
HETATM   13  C   UNL     1      -6.960  11.853  67.514  1.00  0.00    -0.123 C  
HETATM   14  O   UNL     1      -5.196  10.736  68.783  1.00  0.00    -0.042 OA 
HETATM   15  O   UNL     1      -7.267  10.892  70.528  1.00  0.00     0.046 OA 
HETATM   16  C   UNL     1      -6.262  11.124  66.260  1.00  0.00    -0.102 C  
HETATM   17  C   UNL     1      -8.010  10.440  69.405  1.00  0.00    -0.157 C  
ENDROOT
BRANCH   8  18
HETATM   18  C   UNL     1      -8.361   9.065  65.836  1.00  0.00    -0.129 C  
BRANCH  18  19
HETATM   19  C   UNL     1      -7.766   7.703  65.724  1.00  0.00    -0.100 A  
HETATM   20  C   UNL     1      -7.956   5.478  64.834  1.00  0.00    -0.115 A  
HETATM   21  C   UNL     1      -6.848   5.100  65.582  1.00  0.00    -0.061 A  
HETATM   22  C   UNL     1      -6.637   7.323  66.450  1.00  0.00    -0.053 A  
HETATM   23  C   UNL     1      -6.172   6.014  66.409  1.00  0.00    -0.037 A  
HETATM   24  C   UNL     1      -8.412   6.781  64.898  1.00  0.00     0.045 A  
ENDBRANCH  18  19
ENDBRANCH   8  18
BRANCH  13  25
HETATM   25  N   UNL     1      -6.792  13.270  67.248  1.00  0.00    -0.322 N  
HETATM   26  O   UNL     1      -6.901  13.878  69.510  1.00  0.00    -0.100 OA 
HETATM   27  C   UNL     1      -6.934  14.199  68.325  1.00  0.00    -0.106 C  
HETATM   28  H   UNL     1      -6.576  13.598  66.307  1.00  0.00     0.000 HD 
BRANCH  27  29
HETATM   29  C   UNL     1      -7.181  15.650  67.868  1.00  0.00    -0.152 C  
HETATM   30  C   UNL     1      -7.046  16.932  68.848  1.00  0.00    -0.220 C  
HETATM   31  N   UNL     1      -6.390  18.538  68.147  1.00  0.00    -0.201 NA 
HETATM   32  C   UNL     1      -6.178  19.640  66.959  1.00  0.00    -0.187 C  
HETATM   33  C   UNL     1      -5.201  18.037  68.327  1.00  0.00    -0.160 C  
HETATM   34  C   UNL     1      -6.127  19.175  69.586  1.00  0.00    -0.266 C  
HETATM   35  C   UNL     1      -7.979  19.349  69.269  1.00  0.00    -0.127 A  
HETATM   36  C   UNL     1      -9.067  19.639  70.055  1.00  0.00     0.928 A  
HETATM   37  N   UNL     1     -10.222  19.275  69.347  1.00  0.00    -0.487 NA 
HETATM   38  H   UNL     1     -11.162  19.385  69.726  1.00  0.00     0.000 HD 
HETATM   39  C   UNL     1      -9.974  18.749  68.078  1.00  0.00    -0.356 A  
HETATM   40  C   UNL     1     -10.808  18.180  67.103  1.00  0.00    -0.212 A  
HETATM   41  C   UNL     1     -10.219  17.596  65.943  1.00  0.00    -0.240 A  
HETATM   42  C   UNL     1      -8.831  17.455  65.737  1.00  0.00     0.224 A  
HETATM   43  C   UNL     1      -7.960  17.912  66.719  1.00  0.00    -0.259 A  
HETATM   44  C   UNL     1      -8.608  18.726  67.905  1.00  0.00    -0.321 A  
HETATM   45  C   UNL     1      -6.182  17.335  66.849  1.00  0.00    -0.220 C  
HETATM   46  C   UNL     1      -6.146  15.992  66.843  1.00  0.00     0.239 C  
ENDBRANCH  27  29
ENDBRANCH  13  25
TORSDOF 4
ENDMDL
MODEL      102
REMARK 921   NORMALIZED FREE ENERGY PREDICTED BY IDOCK:   -3.85 KCAL/MOL
REMARK 922        TOTAL FREE ENERGY PREDICTED BY IDOCK:   -5.62 KCAL/MOL
REMARK 923 INTER-LIGAND FREE ENERGY PREDICTED BY IDOCK:   -5.42 KCAL/MOL
REMARK 924 INTRA-LIGAND FREE ENERGY PREDICTED BY IDOCK:   -0.19 KCAL/MOL
REMARK 927      BINDING AFFINITY PREDICTED BY RF-SCORE:    0.00 PKD
ROOT
HETATM    1  C   UNL     1      -9.611  13.537  66.616  1.00  0.00    -0.278 A  
HETATM    2  C   UNL     1      -8.963  14.549  65.656  1.00  0.00     0.776 A  
HETATM    3  C   UNL     1      -9.913  15.799  65.752  1.00  0.00    -0.389 A  
HETATM    4  C   UNL     1     -11.096  15.351  66.603  1.00  0.00    -0.236 A  
HETATM    5  N   UNL     1     -10.991  13.910  66.572  1.00  0.00    -0.298 N  
HETATM    6  C   UNL     1     -11.922  13.170  67.229  1.00  0.00    -0.335 C  
HETATM    7  O   UNL     1     -13.123  13.369  67.055  1.00  0.00     0.697 OA 
HETATM    8  C   UNL     1     -11.336  12.026  68.098  1.00  0.00    -0.349 C  
HETATM    9  O   UNL     1      -9.675  10.624  66.971  1.00  0.00    -0.170 OA 
HETATM   10  N   UNL     1      -9.679  12.131  68.356  1.00  0.00    -0.210 N  
HETATM   11  C   UNL     1      -8.812  11.105  68.838  1.00  0.00    -0.079 C  
HETATM   12  H   UNL     1      -7.541  11.122  67.090  1.00  0.00     0.000 HD 
HETATM   13  C   UNL     1      -9.516   9.865  68.430  1.00  0.00    -0.137 C  
HETATM   14  O   UNL     1      -7.756  11.231  69.437  1.00  0.00    -0.050 OA 
HETATM   15  O   UNL     1      -7.786  12.005  66.838  1.00  0.00    -0.154 OA 
HETATM   16  C   UNL     1     -10.161   9.944  69.903  1.00  0.00    -0.298 C  
HETATM   17  C   UNL     1      -9.191  12.025  67.049  1.00  0.00    -0.195 C  
ENDROOT
BRANCH   8  18
HETATM   18  C   UNL     1     -12.348  11.839  69.228  1.00  0.00    -0.047 C  
BRANCH  18  19
HETATM   19  C   UNL     1     -12.355  12.940  70.232  1.00  0.00    -0.294 A  
HETATM   20  C   UNL     1     -13.142  13.733  72.361  1.00  0.00    -0.520 A  
HETATM   21  C   UNL     1     -12.580  14.975  72.090  1.00  0.00    -0.405 A  
HETATM   22  C   UNL     1     -11.769  14.180  69.980  1.00  0.00    -0.358 A  
HETATM   23  C   UNL     1     -11.889  15.223  70.891  1.00  0.00    -0.387 A  
HETATM   24  C   UNL     1     -13.024  12.712  71.437  1.00  0.00    -0.353 A  
ENDBRANCH  18  19
ENDBRANCH   8  18
BRANCH  13  25
HETATM   25  N   UNL     1      -9.233   8.456  68.234  1.00  0.00    -0.135 N  
HETATM   26  O   UNL     1      -7.163   8.843  67.203  1.00  0.00    -0.081 OA 
HETATM   27  C   UNL     1      -8.087   8.079  67.467  1.00  0.00    -0.123 C  
HETATM   28  H   UNL     1      -9.843   7.744  68.637  1.00  0.00     0.000 HD 
BRANCH  27  29
HETATM   29  C   UNL     1      -8.132   6.627  66.953  1.00  0.00    -0.113 C  
HETATM   30  C   UNL     1      -6.934   5.939  66.107  1.00  0.00    -0.062 C  
HETATM   31  N   UNL     1      -6.572   4.122  66.368  1.00  0.00    -0.041 NA 
HETATM   32  C   UNL     1      -6.991   2.578  66.702  1.00  0.00    -0.048 C  
HETATM   33  C   UNL     1      -5.880   4.492  67.407  1.00  0.00    -0.023 C  
HETATM   34  C   UNL     1      -5.154   4.197  65.640  1.00  0.00    -0.009 C  
HETATM   35  C   UNL     1      -6.444   4.135  64.264  1.00  0.00    -0.042 A  
HETATM   36  C   UNL     1      -6.424   4.385  62.914  1.00  0.00    -0.026 A  
HETATM   37  N   UNL     1      -7.750   4.524  62.480  1.00  0.00    -0.059 NA 
HETATM   38  H   UNL     1      -7.997   4.725  61.511  1.00  0.00     0.000 HD 
HETATM   39  C   UNL     1      -8.703   4.365  63.487  1.00  0.00    -0.129 A  
HETATM   40  C   UNL     1     -10.097   4.519  63.512  1.00  0.00     0.226 A  
HETATM   41  C   UNL     1     -10.783   4.418  64.759  1.00  0.00    -0.080 A  
HETATM   42  C   UNL     1     -10.148   4.268  66.009  1.00  0.00    -0.217 A  
HETATM   43  C   UNL     1      -8.761   4.210  66.051  1.00  0.00    -0.115 A  
HETATM   44  C   UNL     1      -8.021   4.130  64.660  1.00  0.00    -0.089 A  
HETATM   45  C   UNL     1      -7.777   4.548  67.609  1.00  0.00    -0.085 C  
HETATM   46  C   UNL     1      -8.169   5.718  68.141  1.00  0.00    -0.104 C  
ENDBRANCH  27  29
ENDBRANCH  13  25
TORSDOF 4
ENDMDL
MODEL      103
REMARK 921   NORMALIZED FREE ENERGY PREDICTED BY IDOCK:   -3.65 KCAL/MOL
REMARK 922        TOTAL FREE ENERGY PREDICTED BY IDOCK:   -5.36 KCAL/MOL
REMARK 923 INTER-LIGAND FREE ENERGY PREDICTED BY IDOCK:   -5.22 KCAL/MOL
REMARK 924 INTRA-LIGAND FREE ENERGY PREDICTED BY IDOCK:   -0.15 KCAL/MOL
REMARK 927      BINDING AFFINITY PREDICTED BY RF-SCORE:    0.00 PKD
ROOT
HETATM    1  C   UNL     1     -10.104  17.777  67.948  1.00  0.00    -0.342 A  
HETATM    2  C   UNL     1     -11.500  18.417  67.906  1.00  0.00     0.985 A  
HETATM    3  C   UNL     1     -11.190  19.956  67.794  1.00  0.00     0.320 A  
HETATM    4  C   UNL     1      -9.680  20.083  67.953  1.00  0.00    -0.390 A  
HETATM    5  N   UNL     1      -9.306  18.812  68.531  1.00  0.00    -0.337 N  
HETATM    6  C   UNL     1      -8.001  18.585  68.829  1.00  0.00    -0.267 C  
HETATM    7  O   UNL     1      -7.355  19.395  69.491  1.00  0.00    -0.262 OA 
HETATM    8  C   UNL     1      -7.466  17.205  68.361  1.00  0.00    -0.227 C  
HETATM    9  O   UNL     1      -8.886  15.298  68.944  1.00  0.00    -0.182 OA 
HETATM   10  N   UNL     1      -8.467  16.406  67.275  1.00  0.00    -0.170 N  
HETATM   11  C   UNL     1      -8.415  15.029  66.903  1.00  0.00    -0.236 C  
HETATM   12  H   UNL     1     -10.432  14.603  67.551  1.00  0.00     0.000 HD 
HETATM   13  C   UNL     1      -7.798  14.393  68.091  1.00  0.00    -0.138 C  
HETATM   14  O   UNL     1      -8.788  14.516  65.860  1.00  0.00     0.166 OA 
HETATM   15  O   UNL     1     -10.714  15.508  67.493  1.00  0.00    -0.288 OA 
HETATM   16  C   UNL     1      -6.420  14.611  67.288  1.00  0.00     0.263 C  
HETATM   17  C   UNL     1      -9.620  16.225  68.047  1.00  0.00    -0.224 C  
ENDROOT
BRANCH   8  18
HETATM   18  C   UNL     1      -5.974  17.430  68.115  1.00  0.00    -0.154 C  
BRANCH  18  19
HETATM   19  C   UNL     1      -5.671  18.276  66.926  1.00  0.00    -0.163 A  
HETATM   20  C   UNL     1      -5.256  20.482  66.064  1.00  0.00    -0.205 A  
HETATM   21  C   UNL     1      -5.277  19.966  64.774  1.00  0.00    -0.197 A  
HETATM   22  C   UNL     1      -5.663  17.761  65.629  1.00  0.00    -0.123 A  
HETATM   23  C   UNL     1      -5.488  18.597  64.533  1.00  0.00    -0.212 A  
HETATM   24  C   UNL     1      -5.445  19.638  67.141  1.00  0.00    -0.167 A  
ENDBRANCH  18  19
ENDBRANCH   8  18
BRANCH  13  25
HETATM   25  N   UNL     1      -7.665  13.077  68.688  1.00  0.00    -0.250 N  
HETATM   26  O   UNL     1      -8.400  11.948  66.770  1.00  0.00    -0.178 OA 
HETATM   27  C   UNL     1      -8.145  11.938  67.971  1.00  0.00    -0.151 C  
HETATM   28  H   UNL     1      -7.234  12.966  69.606  1.00  0.00     0.000 HD 
BRANCH  27  29
HETATM   29  C   UNL     1      -8.364  10.693  68.852  1.00  0.00    -0.150 C  
HETATM   30  C   UNL     1      -8.265   9.175  68.298  1.00  0.00    -0.116 C  
HETATM   31  N   UNL     1      -7.569   7.847  69.418  1.00  0.00    -0.100 NA 
HETATM   32  C   UNL     1      -7.298   7.152  70.871  1.00  0.00    -0.075 C  
HETATM   33  C   UNL     1      -6.392   8.262  69.044  1.00  0.00    -0.044 C  
HETATM   34  C   UNL     1      -7.366   6.806  68.226  1.00  0.00    -0.093 C  
HETATM   35  C   UNL     1      -9.202   6.750  68.662  1.00  0.00    -0.132 A  
HETATM   36  C   UNL     1     -10.322   6.246  68.048  1.00  0.00    -0.192 A  
HETATM   37  N   UNL     1     -11.446   6.815  68.664  1.00  0.00    -0.553 NA 
HETATM   38  H   UNL     1     -12.401   6.604  68.377  1.00  0.00     0.000 HD 
HETATM   39  C   UNL     1     -11.145   7.695  69.705  1.00  0.00    -0.062 A  
HETATM   40  C   UNL     1     -11.939   8.537  70.500  1.00  0.00     0.055 A  
HETATM   41  C   UNL     1     -11.302   9.438  71.403  1.00  0.00    -0.451 A  
HETATM   42  C   UNL     1      -9.907   9.623  71.497  1.00  0.00     0.479 A  
HETATM   43  C   UNL     1      -9.079   8.886  70.660  1.00  0.00    -0.247 A  
HETATM   44  C   UNL     1      -9.773   7.759  69.802  1.00  0.00    -0.176 A  
HETATM   45  C   UNL     1      -7.312   9.383  70.285  1.00  0.00    -0.118 C  
HETATM   46  C   UNL     1      -7.283  10.665  69.887  1.00  0.00    -0.109 C  
ENDBRANCH  27  29
ENDBRANCH  13  25
TORSDOF 4
ENDMDL
MODEL      104
REMARK 921   NORMALIZED FREE ENERGY PREDICTED BY IDOCK:   -3.56 KCAL/MOL
REMARK 922        TOTAL FREE ENERGY PREDICTED BY IDOCK:   -5.25 KCAL/MOL
REMARK 923 INTER-LIGAND FREE ENERGY PREDICTED BY IDOCK:   -5.30 KCAL/MOL
REMARK 924 INTRA-LIGAND FREE ENERGY PREDICTED BY IDOCK:    0.05 KCAL/MOL
REMARK 927      BINDING AFFINITY PREDICTED BY RF-SCORE:    0.00 PKD
ROOT
HETATM    1  C   UNL     1     -10.832  14.261  68.222  1.00  0.00    -0.246 A  
HETATM    2  C   UNL     1     -12.202  14.872  68.557  1.00  0.00    -0.084 A  
HETATM    3  C   UNL     1     -11.862  16.378  68.862  1.00  0.00     0.066 A  
HETATM    4  C   UNL     1     -10.341  16.466  68.849  1.00  0.00    -0.270 A  
HETATM    5  N   UNL     1      -9.934  15.084  68.972  1.00  0.00    -0.239 N  
HETATM    6  C   UNL     1      -8.609  14.791  69.014  1.00  0.00    -0.137 C  
HETATM    7  O   UNL     1      -7.859  15.376  69.793  1.00  0.00    -0.196 OA 
HETATM    8  C   UNL     1      -8.182  13.616  68.095  1.00  0.00    -0.158 C  
HETATM    9  O   UNL     1      -9.573  11.609  68.275  1.00  0.00    -0.187 OA 
HETATM   10  N   UNL     1      -9.339  13.164  66.965  1.00  0.00    -0.230 N  
HETATM   11  C   UNL     1      -9.378  11.959  66.201  1.00  0.00    -0.219 C  
HETATM   12  H   UNL     1     -11.307  11.343  66.957  1.00  0.00     0.000 HD 
HETATM   13  C   UNL     1      -8.632  11.006  67.057  1.00  0.00    -0.140 C  
HETATM   14  O   UNL     1      -9.899  11.774  65.113  1.00  0.00    -0.243 OA 
HETATM   15  O   UNL     1     -11.566  12.222  67.206  1.00  0.00    -0.334 OA 
HETATM   16  C   UNL     1      -7.364  11.465  66.178  1.00  0.00     0.136 C  
HETATM   17  C   UNL     1     -10.388  12.753  67.796  1.00  0.00    -0.221 C  
ENDROOT
BRANCH   8  18
HETATM   18  C   UNL     1      -6.728  13.917  67.730  1.00  0.00    -0.186 C  
BRANCH  18  19
HETATM   19  C   UNL     1      -6.451  15.357  67.462  1.00  0.00    -0.174 A  
HETATM   20  C   UNL     1      -5.213  17.327  68.069  1.00  0.00    -0.121 A  
HETATM   21  C   UNL     1      -5.975  18.065  67.171  1.00  0.00    -0.157 A  
HETATM   22  C   UNL     1      -7.192  16.099  66.542  1.00  0.00     0.044 A  
HETATM   23  C   UNL     1      -6.983  17.465  66.396  1.00  0.00    -0.314 A  
HETATM   24  C   UNL     1      -5.444  15.972  68.211  1.00  0.00    -0.110 A  
ENDBRANCH  18  19
ENDBRANCH   8  18
BRANCH  13  25
HETATM   25  N   UNL     1      -8.463   9.574  67.218  1.00  0.00    -0.127 N  
HETATM   26  O   UNL     1      -6.765   9.785  68.819  1.00  0.00    -0.050 OA 
HETATM   27  C   UNL     1      -7.386   9.089  68.021  1.00  0.00    -0.084 C  
HETATM   28  H   UNL     1      -9.105   8.923  66.764  1.00  0.00     0.000 HD 
BRANCH  27  29
HETATM   29  C   UNL     1      -7.034   7.611  67.765  1.00  0.00    -0.077 C  
HETATM   30  C   UNL     1      -7.619   6.754  66.520  1.00  0.00    -0.089 C  
HETATM   31  N   UNL     1      -6.522   5.472  65.712  1.00  0.00    -0.039 NA 
HETATM   32  C   UNL     1      -5.346   4.338  65.717  1.00  0.00    -0.009 C  
HETATM   33  C   UNL     1      -6.005   6.459  65.036  1.00  0.00    -0.029 C  
HETATM   34  C   UNL     1      -7.457   5.337  64.426  1.00  0.00    -0.066 C  
HETATM   35  C   UNL     1      -8.288   4.325  65.784  1.00  0.00    -0.109 A  
HETATM   36  C   UNL     1      -9.537   3.777  65.949  1.00  0.00    -0.160 A  
HETATM   37  N   UNL     1      -9.691   3.450  67.304  1.00  0.00    -0.335 NA 
HETATM   38  H   UNL     1     -10.543   3.035  67.680  1.00  0.00     0.000 HD 
HETATM   39  C   UNL     1      -8.578   3.742  68.094  1.00  0.00    -0.097 A  
HETATM   40  C   UNL     1      -8.347   3.675  69.477  1.00  0.00    -0.077 A  
HETATM   41  C   UNL     1      -7.124   4.188  70.001  1.00  0.00    -0.042 A  
HETATM   42  C   UNL     1      -6.147   4.859  69.236  1.00  0.00    -0.025 A  
HETATM   43  C   UNL     1      -6.372   5.042  67.878  1.00  0.00    -0.040 A  
HETATM   44  C   UNL     1      -7.630   4.308  67.271  1.00  0.00    -0.077 A  
HETATM   45  C   UNL     1      -5.472   6.335  66.864  1.00  0.00    -0.012 C  
HETATM   46  C   UNL     1      -5.569   7.529  67.474  1.00  0.00    -0.034 C  
ENDBRANCH  27  29
ENDBRANCH  13  25
TORSDOF 4
ENDMDL
MODEL      105
REMARK 921   NORMALIZED FREE ENERGY PREDICTED BY IDOCK:   -3.47 KCAL/MOL
REMARK 922        TOTAL FREE ENERGY PREDICTED BY IDOCK:   -5.15 KCAL/MOL
REMARK 923 INTER-LIGAND FREE ENERGY PREDICTED BY IDOCK:   -4.64 KCAL/MOL
REMARK 924 INTRA-LIGAND FREE ENERGY PREDICTED BY IDOCK:   -0.51 KCAL/MOL
REMARK 927      BINDING AFFINITY PREDICTED BY RF-SCORE:    0.00 PKD
ROOT
HETATM    1  C   UNL     1     -10.161   8.136  70.019  1.00  0.00    -0.202 A  
HETATM    2  C   UNL     1     -10.954   7.443  71.139  1.00  0.00    -0.265 A  
HETATM    3  C   UNL     1     -11.259   6.021  70.539  1.00  0.00    -0.363 A  
HETATM    4  C   UNL     1     -10.780   6.074  69.093  1.00  0.00    -0.331 A  
HETATM    5  N   UNL     1     -10.659   7.492  68.843  1.00  0.00    -0.199 N  
HETATM    6  C   UNL     1     -10.263   7.909  67.613  1.00  0.00    -0.226 C  
HETATM    7  O   UNL     1     -10.815   7.491  66.597  1.00  0.00    -0.183 OA 
HETATM    8  C   UNL     1      -9.164   9.005  67.630  1.00  0.00    -0.150 C  
HETATM    9  O   UNL     1      -9.604  10.881  69.140  1.00  0.00    -0.186 OA 
HETATM   10  N   UNL     1      -8.418   9.214  69.120  1.00  0.00    -0.129 N  
HETATM   11  C   UNL     1      -7.609  10.315  69.535  1.00  0.00    -0.150 C  
HETATM   12  H   UNL     1      -8.874  10.833  71.209  1.00  0.00     0.000 HD 
HETATM   13  C   UNL     1      -8.110  11.425  68.691  1.00  0.00    -0.141 C  
HETATM   14  O   UNL     1      -6.725  10.325  70.377  1.00  0.00    -0.142 OA 
HETATM   15  O   UNL     1      -9.261   9.968  71.270  1.00  0.00     0.502 OA 
HETATM   16  C   UNL     1      -6.920  10.988  67.698  1.00  0.00    -0.083 C  
HETATM   17  C   UNL     1      -9.497   9.619  69.913  1.00  0.00    -0.231 C  
ENDROOT
BRANCH   8  18
HETATM   18  C   UNL     1      -8.391   8.800  66.328  1.00  0.00    -0.120 C  
BRANCH  18  19
HETATM   19  C   UNL     1      -7.603   7.536  66.277  1.00  0.00    -0.088 A  
HETATM   20  C   UNL     1      -5.804   6.233  67.199  1.00  0.00    -0.020 A  
HETATM   21  C   UNL     1      -5.965   5.311  66.172  1.00  0.00    -0.022 A  
HETATM   22  C   UNL     1      -7.777   6.591  65.265  1.00  0.00    -0.102 A  
HETATM   23  C   UNL     1      -6.950   5.477  65.182  1.00  0.00    -0.060 A  
HETATM   24  C   UNL     1      -6.626   7.342  67.257  1.00  0.00    -0.061 A  
ENDBRANCH  18  19
ENDBRANCH   8  18
BRANCH  13  25
HETATM   25  N   UNL     1      -8.093  12.876  68.660  1.00  0.00    -0.321 N  
HETATM   26  O   UNL     1     -10.126  13.041  67.505  1.00  0.00    -0.214 OA 
HETATM   27  C   UNL     1      -9.088  13.565  67.900  1.00  0.00    -0.204 C  
HETATM   28  H   UNL     1      -7.382  13.396  69.174  1.00  0.00     0.000 HD 
BRANCH  27  29
HETATM   29  C   UNL     1      -8.722  15.025  67.573  1.00  0.00    -0.194 C  
HETATM   30  C   UNL     1      -8.155  16.073  68.671  1.00  0.00    -0.187 C  
HETATM   31  N   UNL     1      -6.884  17.339  68.139  1.00  0.00    -0.177 NA 
HETATM   32  C   UNL     1      -6.190  18.354  67.064  1.00  0.00    -0.169 C  
HETATM   33  C   UNL     1      -5.998  16.397  68.300  1.00  0.00    -0.107 C  
HETATM   34  C   UNL     1      -6.478  17.709  69.637  1.00  0.00    -0.136 C  
HETATM   35  C   UNL     1      -8.093  18.622  69.293  1.00  0.00     0.103 A  
HETATM   36  C   UNL     1      -9.026  19.257  70.076  1.00  0.00     1.105 A  
HETATM   37  N   UNL     1     -10.187  19.432  69.309  1.00  0.00    -0.574 NA 
HETATM   38  H   UNL     1     -11.031  19.874  69.675  1.00  0.00     0.000 HD 
HETATM   39  C   UNL     1     -10.090  18.949  68.003  1.00  0.00    -0.377 A  
HETATM   40  C   UNL     1     -11.022  18.831  66.960  1.00  0.00    -0.198 A  
HETATM   41  C   UNL     1     -10.641  18.151  65.766  1.00  0.00    -0.186 A  
HETATM   42  C   UNL     1      -9.408  17.491  65.581  1.00  0.00     0.403 A  
HETATM   43  C   UNL     1      -8.488  17.492  66.621  1.00  0.00    -0.288 A  
HETATM   44  C   UNL     1      -8.835  18.403  67.862  1.00  0.00    -0.293 A  
HETATM   45  C   UNL     1      -7.087  16.254  66.740  1.00  0.00    -0.200 C  
HETATM   46  C   UNL     1      -7.578  15.010  66.610  1.00  0.00     0.527 C  
ENDBRANCH  27  29
ENDBRANCH  13  25
TORSDOF 4
ENDMDL
MODEL      106
REMARK 921   NORMALIZED FREE ENERGY PREDICTED BY IDOCK:   -3.41 KCAL/MOL
REMARK 922        TOTAL FREE ENERGY PREDICTED BY IDOCK:   -5.07 KCAL/MOL
REMARK 923 INTER-LIGAND FREE ENERGY PREDICTED BY IDOCK:   -4.87 KCAL/MOL
REMARK 924 INTRA-LIGAND FREE ENERGY PREDICTED BY IDOCK:   -0.20 KCAL/MOL
REMARK 927      BINDING AFFINITY PREDICTED BY RF-SCORE:    0.00 PKD
ROOT
HETATM    1  C   UNL     1     -10.167  12.880  65.809  1.00  0.00    -0.288 A  
HETATM    2  C   UNL     1     -10.163  13.602  64.452  1.00  0.00    -0.117 A  
HETATM    3  C   UNL     1     -11.110  14.834  64.694  1.00  0.00    -0.337 A  
HETATM    4  C   UNL     1     -11.704  14.629  66.083  1.00  0.00    -0.313 A  
HETATM    5  N   UNL     1     -11.448  13.231  66.342  1.00  0.00    -0.316 N  
HETATM    6  C   UNL     1     -11.873  12.691  67.514  1.00  0.00    -0.334 C  
HETATM    7  O   UNL     1     -13.034  12.839  67.891  1.00  0.00     1.238 OA 
HETATM    8  C   UNL     1     -10.817  11.816  68.239  1.00  0.00    -0.259 C  
HETATM    9  O   UNL     1      -9.698  10.164  66.820  1.00  0.00    -0.173 OA 
HETATM   10  N   UNL     1      -9.254  11.983  67.646  1.00  0.00    -0.176 N  
HETATM   11  C   UNL     1      -8.143  11.119  67.881  1.00  0.00    -0.119 C  
HETATM   12  H   UNL     1      -7.829  10.673  65.790  1.00  0.00     0.000 HD 
HETATM   13  C   UNL     1      -8.795   9.817  68.159  1.00  0.00    -0.119 C  
HETATM   14  O   UNL     1      -6.954  11.397  67.859  1.00  0.00    -0.069 OA 
HETATM   15  O   UNL     1      -8.269  11.458  65.487  1.00  0.00     0.093 OA 
HETATM   16  C   UNL     1      -8.697  10.282  69.697  1.00  0.00    -0.125 C  
HETATM   17  C   UNL     1      -9.411  11.535  66.329  1.00  0.00    -0.217 C  
ENDROOT
BRANCH   8  18
HETATM   18  C   UNL     1     -11.165  11.935  69.722  1.00  0.00    -0.133 C  
BRANCH  18  19
HETATM   19  C   UNL     1     -11.411  13.331  70.183  1.00  0.00    -0.038 A  
HETATM   20  C   UNL     1     -10.698  15.627  70.156  1.00  0.00    -0.355 A  
HETATM   21  C   UNL     1     -11.666  15.924  71.107  1.00  0.00    -0.490 A  
HETATM   22  C   UNL     1     -12.400  13.643  71.117  1.00  0.00    -0.403 A  
HETATM   23  C   UNL     1     -12.530  14.936  71.610  1.00  0.00    -0.395 A  
HETATM   24  C   UNL     1     -10.573  14.333  69.687  1.00  0.00     0.035 A  
ENDBRANCH  18  19
ENDBRANCH   8  18
BRANCH  13  25
HETATM   25  N   UNL     1      -8.461   8.405  68.185  1.00  0.00    -0.131 N  
HETATM   26  O   UNL     1     -10.376   7.804  69.397  1.00  0.00    -0.210 OA 
HETATM   27  C   UNL     1      -9.260   7.518  68.972  1.00  0.00    -0.146 C  
HETATM   28  H   UNL     1      -7.668   8.050  67.650  1.00  0.00     0.000 HD 
BRANCH  27  29
HETATM   29  C   UNL     1      -8.576   6.174  69.284  1.00  0.00    -0.119 C  
HETATM   30  C   UNL     1      -8.627   4.892  68.295  1.00  0.00    -0.105 C  
HETATM   31  N   UNL     1      -7.128   3.779  68.181  1.00  0.00    -0.051 NA 
HETATM   32  C   UNL     1      -5.802   3.041  68.787  1.00  0.00    -0.023 C  
HETATM   33  C   UNL     1      -6.648   4.648  67.338  1.00  0.00    -0.047 C  
HETATM   34  C   UNL     1      -7.637   3.061  66.850  1.00  0.00    -0.075 C  
HETATM   35  C   UNL     1      -8.594   2.267  68.270  1.00  0.00    -0.109 A  
HETATM   36  C   UNL     1      -9.711   1.472  68.353  1.00  0.00    -0.042 A  
HETATM   37  N   UNL     1     -10.159   1.493  69.682  1.00  0.00     0.338 NA 
HETATM   38  H   UNL     1     -10.985   0.983  69.996  1.00  0.00     0.000 HD 
HETATM   39  C   UNL     1      -9.378   2.270  70.538  1.00  0.00    -0.128 A  
HETATM   40  C   UNL     1      -9.520   2.640  71.885  1.00  0.00    -0.196 A  
HETATM   41  C   UNL     1      -8.606   3.580  72.445  1.00  0.00    -0.093 A  
HETATM   42  C   UNL     1      -7.607   4.255  71.714  1.00  0.00    -0.070 A  
HETATM   43  C   UNL     1      -7.488   4.001  70.353  1.00  0.00    -0.045 A  
HETATM   44  C   UNL     1      -8.370   2.825  69.781  1.00  0.00    -0.080 A  
HETATM   45  C   UNL     1      -6.614   5.165  69.174  1.00  0.00    -0.051 C  
HETATM   46  C   UNL     1      -7.099   6.409  69.332  1.00  0.00    -0.073 C  
ENDBRANCH  27  29
ENDBRANCH  13  25
TORSDOF 4
ENDMDL
MODEL      107
REMARK 921   NORMALIZED FREE ENERGY PREDICTED BY IDOCK:   -3.32 KCAL/MOL
REMARK 922        TOTAL FREE ENERGY PREDICTED BY IDOCK:   -4.96 KCAL/MOL
REMARK 923 INTER-LIGAND FREE ENERGY PREDICTED BY IDOCK:   -4.71 KCAL/MOL
REMARK 924 INTRA-LIGAND FREE ENERGY PREDICTED BY IDOCK:   -0.25 KCAL/MOL
REMARK 927      BINDING AFFINITY PREDICTED BY RF-SCORE:    0.00 PKD
ROOT
HETATM    1  C   UNL     1      -6.962   5.804  71.983  1.00  0.00    -0.078 A  
HETATM    2  C   UNL     1      -5.487   5.608  72.366  1.00  0.00    -0.018 A  
HETATM    3  C   UNL     1      -5.565   4.742  73.678  1.00  0.00    -0.017 A  
HETATM    4  C   UNL     1      -7.046   4.662  74.029  1.00  0.00    -0.076 A  
HETATM    5  N   UNL     1      -7.623   5.734  73.251  1.00  0.00    -0.095 N  
HETATM    6  C   UNL     1      -8.958   5.966  73.341  1.00  0.00    -0.129 C  
HETATM    7  O   UNL     1      -9.503   6.088  74.436  1.00  0.00    -0.145 OA 
HETATM    8  C   UNL     1      -9.670   6.162  71.976  1.00  0.00    -0.167 C  
HETATM    9  O   UNL     1      -8.566   7.731  70.455  1.00  0.00    -0.134 OA 
HETATM   10  N   UNL     1      -8.754   5.702  70.645  1.00  0.00    -0.133 N  
HETATM   11  C   UNL     1      -8.992   6.031  69.277  1.00  0.00    -0.122 C  
HETATM   12  H   UNL     1      -7.085   7.010  69.005  1.00  0.00     0.000 HD 
HETATM   13  C   UNL     1      -9.740   7.306  69.373  1.00  0.00    -0.161 C  
HETATM   14  O   UNL     1      -8.657   5.406  68.283  1.00  0.00    -0.097 OA 
HETATM   15  O   UNL     1      -6.672   6.556  69.730  1.00  0.00    -0.046 OA 
HETATM   16  C   UNL     1     -11.040   6.357  69.320  1.00  0.00    -0.437 C  
HETATM   17  C   UNL     1      -7.670   6.582  70.740  1.00  0.00    -0.101 C  
ENDROOT
BRANCH   8  18
HETATM   18  C   UNL     1     -11.102   5.683  72.213  1.00  0.00    -0.318 C  
BRANCH  18  19
HETATM   19  C   UNL     1     -11.207   4.264  72.655  1.00  0.00     0.080 A  
HETATM   20  C   UNL     1     -10.473   1.993  72.365  1.00  0.00    -0.184 A  
HETATM   21  C   UNL     1     -11.440   1.579  73.273  1.00  0.00    -0.274 A  
HETATM   22  C   UNL     1     -12.156   3.844  73.587  1.00  0.00     0.523 A  
HETATM   23  C   UNL     1     -12.304   2.497  73.896  1.00  0.00     0.820 A  
HETATM   24  C   UNL     1     -10.350   3.335  72.060  1.00  0.00    -0.015 A  
ENDBRANCH  18  19
ENDBRANCH   8  18
BRANCH  13  25
HETATM   25  N   UNL     1     -10.087   8.442  68.539  1.00  0.00    -0.192 N  
HETATM   26  O   UNL     1      -9.021   7.583  66.636  1.00  0.00    -0.139 OA 
HETATM   27  C   UNL     1      -9.535   8.531  67.224  1.00  0.00    -0.157 C  
HETATM   28  H   UNL     1     -10.716   9.166  68.886  1.00  0.00     0.000 HD 
BRANCH  27  29
HETATM   29  C   UNL     1      -9.598   9.946  66.616  1.00  0.00    -0.235 C  
HETATM   30  C   UNL     1     -10.466  11.155  67.252  1.00  0.00    -0.263 C  
HETATM   31  N   UNL     1      -9.797  12.899  67.149  1.00  0.00    -0.221 NA 
HETATM   32  C   UNL     1      -8.959  14.106  66.435  1.00  0.00    -0.037 C  
HETATM   33  C   UNL     1      -9.088  12.603  68.201  1.00  0.00    -0.204 C  
HETATM   34  C   UNL     1     -10.818  13.463  68.237  1.00  0.00    -0.256 C  
HETATM   35  C   UNL     1     -11.792  13.332  66.626  1.00  0.00    -0.447 A  
HETATM   36  C   UNL     1     -13.126  13.367  66.302  1.00  0.00     0.900 A  
HETATM   37  N   UNL     1     -13.269  12.860  65.002  1.00  0.00    -0.689 NA 
HETATM   38  H   UNL     1     -14.173  12.774  64.538  1.00  0.00     0.000 HD 
HETATM   39  C   UNL     1     -12.069  12.482  64.399  1.00  0.00    -0.424 A  
HETATM   40  C   UNL     1     -11.772  11.849  63.182  1.00  0.00    -0.249 A  
HETATM   41  C   UNL     1     -10.426  11.466  62.911  1.00  0.00    -0.093 A  
HETATM   42  C   UNL     1      -9.361  11.587  63.828  1.00  0.00    -0.075 A  
HETATM   43  C   UNL     1      -9.620  12.115  65.087  1.00  0.00    -0.051 A  
HETATM   44  C   UNL     1     -11.063  12.712  65.312  1.00  0.00    -0.330 A  
HETATM   45  C   UNL     1      -8.485  11.852  66.553  1.00  0.00    -0.097 C  
HETATM   46  C   UNL     1      -8.227  10.540  66.689  1.00  0.00    -0.129 C  
ENDBRANCH  27  29
ENDBRANCH  13  25
TORSDOF 4
ENDMDL
MODEL      108
REMARK 921   NORMALIZED FREE ENERGY PREDICTED BY IDOCK:   -3.32 KCAL/MOL
REMARK 922        TOTAL FREE ENERGY PREDICTED BY IDOCK:   -4.95 KCAL/MOL
REMARK 923 INTER-LIGAND FREE ENERGY PREDICTED BY IDOCK:   -4.04 KCAL/MOL
REMARK 924 INTRA-LIGAND FREE ENERGY PREDICTED BY IDOCK:   -0.91 KCAL/MOL
REMARK 927      BINDING AFFINITY PREDICTED BY RF-SCORE:    0.00 PKD
ROOT
HETATM    1  C   UNL     1      -6.255   6.244  64.238  1.00  0.00    -0.030 A  
HETATM    2  C   UNL     1      -5.157   5.529  63.435  1.00  0.00    -0.010 A  
HETATM    3  C   UNL     1      -5.359   4.016  63.812  1.00  0.00    -0.012 A  
HETATM    4  C   UNL     1      -6.418   4.004  64.909  1.00  0.00    -0.038 A  
HETATM    5  N   UNL     1      -6.432   5.376  65.361  1.00  0.00    -0.038 N  
HETATM    6  C   UNL     1      -7.269   5.725  66.372  1.00  0.00    -0.077 C  
HETATM    7  O   UNL     1      -7.293   5.083  67.420  1.00  0.00    -0.079 OA 
HETATM    8  C   UNL     1      -8.074   7.027  66.118  1.00  0.00    -0.119 C  
HETATM    9  O   UNL     1      -6.743   8.925  65.331  1.00  0.00    -0.070 OA 
HETATM   10  N   UNL     1      -8.041   7.563  64.527  1.00  0.00    -0.119 N  
HETATM   11  C   UNL     1      -8.412   8.852  64.040  1.00  0.00    -0.133 C  
HETATM   12  H   UNL     1      -6.475   9.274  63.181  1.00  0.00     0.000 HD 
HETATM   13  C   UNL     1      -8.185   9.724  65.218  1.00  0.00    -0.137 C  
HETATM   14  O   UNL     1      -8.817   9.150  62.928  1.00  0.00    -0.213 OA 
HETATM   15  O   UNL     1      -6.230   8.358  63.116  1.00  0.00    -0.080 OA 
HETATM   16  C   UNL     1      -9.741   9.443  65.519  1.00  0.00    -0.300 C  
HETATM   17  C   UNL     1      -6.675   7.813  64.350  1.00  0.00    -0.056 C  
ENDROOT
BRANCH   8  18
HETATM   18  C   UNL     1      -9.367   6.846  66.913  1.00  0.00    -0.177 C  
BRANCH  18  19
HETATM   19  C   UNL     1      -9.464   7.706  68.127  1.00  0.00    -0.150 A  
HETATM   20  C   UNL     1      -8.443   8.437  70.177  1.00  0.00    -0.126 A  
HETATM   21  C   UNL     1      -9.607   9.127  70.494  1.00  0.00    -0.293 A  
HETATM   22  C   UNL     1     -10.619   8.425  68.438  1.00  0.00    -0.155 A  
HETATM   23  C   UNL     1     -10.718   9.128  69.633  1.00  0.00    -0.236 A  
HETATM   24  C   UNL     1      -8.367   7.732  68.991  1.00  0.00    -0.131 A  
ENDBRANCH  18  19
ENDBRANCH   8  18
BRANCH  13  25
HETATM   25  N   UNL     1      -8.004  11.130  65.525  1.00  0.00    -0.367 N  
HETATM   26  O   UNL     1      -7.458  10.741  67.771  1.00  0.00    -0.092 OA 
HETATM   27  C   UNL     1      -7.788  11.521  66.883  1.00  0.00    -0.163 C  
HETATM   28  H   UNL     1      -8.030  11.830  64.783  1.00  0.00     0.000 HD 
BRANCH  27  29
HETATM   29  C   UNL     1      -8.055  13.015  67.151  1.00  0.00    -0.114 C  
HETATM   30  C   UNL     1      -8.551  13.594  68.580  1.00  0.00    -0.103 C  
HETATM   31  N   UNL     1      -7.934  15.269  69.139  1.00  0.00    -0.197 NA 
HETATM   32  C   UNL     1      -7.429  16.803  68.886  1.00  0.00    -0.240 C  
HETATM   33  C   UNL     1      -6.864  14.649  69.547  1.00  0.00    -0.165 C  
HETATM   34  C   UNL     1      -8.401  15.050  70.648  1.00  0.00     1.734 C  
HETATM   35  C   UNL     1      -9.954  15.518  69.684  1.00  0.00    -0.287 A  
HETATM   36  C   UNL     1     -11.302  15.452  69.939  1.00  0.00    -0.304 A  
HETATM   37  N   UNL     1     -11.981  15.603  68.721  1.00  0.00    -0.550 NA 
HETATM   38  H   UNL     1     -12.998  15.580  68.648  1.00  0.00     0.000 HD 
HETATM   39  C   UNL     1     -11.146  15.787  67.618  1.00  0.00    -0.283 A  
HETATM   40  C   UNL     1     -11.393  15.873  66.240  1.00  0.00     0.225 A  
HETATM   41  C   UNL     1     -10.289  15.922  65.339  1.00  0.00    -0.399 A  
HETATM   42  C   UNL     1      -8.939  15.791  65.724  1.00  0.00    -0.072 A  
HETATM   43  C   UNL     1      -8.643  15.602  67.068  1.00  0.00    -0.253 A  
HETATM   44  C   UNL     1      -9.848  15.741  68.076  1.00  0.00    -0.217 A  
HETATM   45  C   UNL     1      -7.013  14.894  67.660  1.00  0.00    -0.207 C  
HETATM   46  C   UNL     1      -6.759  13.748  67.006  1.00  0.00     0.790 C  
ENDBRANCH  27  29
ENDBRANCH  13  25
TORSDOF 4
ENDMDL
MODEL      109
REMARK 921   NORMALIZED FREE ENERGY PREDICTED BY IDOCK:   -3.27 KCAL/MOL
REMARK 922        TOTAL FREE ENERGY PREDICTED BY IDOCK:   -4.90 KCAL/MOL
REMARK 923 INTER-LIGAND FREE ENERGY PREDICTED BY IDOCK:   -5.69 KCAL/MOL
REMARK 924 INTRA-LIGAND FREE ENERGY PREDICTED BY IDOCK:    0.79 KCAL/MOL
REMARK 927      BINDING AFFINITY PREDICTED BY RF-SCORE:    0.00 PKD
ROOT
HETATM    1  C   UNL     1     -10.950  14.352  69.617  1.00  0.00    -0.157 A  
HETATM    2  C   UNL     1     -11.573  14.916  70.904  1.00  0.00    -0.344 A  
HETATM    3  C   UNL     1     -11.622  16.465  70.635  1.00  0.00    -0.114 A  
HETATM    4  C   UNL     1     -10.881  16.677  69.320  1.00  0.00    -0.310 A  
HETATM    5  N   UNL     1     -10.146  15.443  69.160  1.00  0.00    -0.221 N  
HETATM    6  C   UNL     1      -9.343  15.294  68.074  1.00  0.00    -0.197 C  
HETATM    7  O   UNL     1      -8.516  16.155  67.779  1.00  0.00    -0.157 OA 
HETATM    8  C   UNL     1      -9.496  13.934  67.344  1.00  0.00    -0.226 C  
HETATM    9  O   UNL     1      -9.441  11.969  68.804  1.00  0.00    -0.102 OA 
HETATM   10  N   UNL     1     -10.853  13.054  67.796  1.00  0.00    -0.235 N  
HETATM   11  C   UNL     1     -11.111  11.673  67.546  1.00  0.00    -0.276 C  
HETATM   12  H   UNL     1     -11.301  11.156  69.636  1.00  0.00     0.000 HD 
HETATM   13  C   UNL     1      -9.748  11.102  67.431  1.00  0.00    -0.173 C  
HETATM   14  O   UNL     1     -12.192  11.113  67.452  1.00  0.00    -0.099 OA 
HETATM   15  O   UNL     1     -11.507  12.043  69.906  1.00  0.00    -0.253 OA 
HETATM   16  C   UNL     1      -9.946  11.373  65.857  1.00  0.00    -0.274 C  
HETATM   17  C   UNL     1     -10.597  12.832  69.154  1.00  0.00     0.054 C  
ENDROOT
BRANCH   8  18
HETATM   18  C   UNL     1      -9.139  14.232  65.888  1.00  0.00     0.226 C  
BRANCH  18  19
HETATM   19  C   UNL     1     -10.290  14.141  64.945  1.00  0.00    -0.435 A  
HETATM   20  C   UNL     1     -12.393  15.055  64.223  1.00  0.00    -0.247 A  
HETATM   21  C   UNL     1     -12.552  13.974  63.366  1.00  0.00     0.499 A  
HETATM   22  C   UNL     1     -10.444  13.073  64.061  1.00  0.00    -0.337 A  
HETATM   23  C   UNL     1     -11.584  12.959  63.274  1.00  0.00    -0.326 A  
HETATM   24  C   UNL     1     -11.259  15.145  65.008  1.00  0.00    -0.414 A  
ENDBRANCH  18  19
ENDBRANCH   8  18
BRANCH  13  25
HETATM   25  N   UNL     1      -9.089   9.811  67.497  1.00  0.00    -0.131 N  
HETATM   26  O   UNL     1      -6.940  10.708  67.225  1.00  0.00    -0.080 OA 
HETATM   27  C   UNL     1      -7.687   9.734  67.226  1.00  0.00    -0.095 C  
HETATM   28  H   UNL     1      -9.618   8.971  67.733  1.00  0.00     0.000 HD 
BRANCH  27  29
HETATM   29  C   UNL     1      -7.196   8.313  66.886  1.00  0.00    -0.083 C  
HETATM   30  C   UNL     1      -7.948   7.333  65.839  1.00  0.00    -0.115 C  
HETATM   31  N   UNL     1      -6.919   6.193  64.770  1.00  0.00    -0.053 NA 
HETATM   32  C   UNL     1      -5.625   5.243  64.466  1.00  0.00    -0.017 C  
HETATM   33  C   UNL     1      -6.749   7.216  63.983  1.00  0.00    -0.047 C  
HETATM   34  C   UNL     1      -8.123   5.873  63.775  1.00  0.00    -0.095 C  
HETATM   35  C   UNL     1      -8.412   4.805  65.304  1.00  0.00    -0.132 A  
HETATM   36  C   UNL     1      -9.478   4.088  65.790  1.00  0.00    -0.178 A  
HETATM   37  N   UNL     1      -9.224   3.796  67.138  1.00  0.00    -0.168 NA 
HETATM   38  H   UNL     1      -9.877   3.277  67.725  1.00  0.00     0.000 HD 
HETATM   39  C   UNL     1      -8.002   4.278  67.608  1.00  0.00    -0.091 A  
HETATM   40  C   UNL     1      -7.413   4.299  68.882  1.00  0.00    -0.055 A  
HETATM   41  C   UNL     1      -6.188   5.005  69.067  1.00  0.00    -0.030 A  
HETATM   42  C   UNL     1      -5.555   5.780  68.073  1.00  0.00    -0.012 A  
HETATM   43  C   UNL     1      -6.149   5.875  66.821  1.00  0.00    -0.026 A  
HETATM   44  C   UNL     1      -7.396   4.943  66.566  1.00  0.00    -0.082 A  
HETATM   45  C   UNL     1      -5.748   7.244  65.607  1.00  0.00    -0.036 C  
HETATM   46  C   UNL     1      -5.861   8.434  66.221  1.00  0.00    -0.044 C  
ENDBRANCH  27  29
ENDBRANCH  13  25
TORSDOF 4
ENDMDL
MODEL      110
REMARK 921   NORMALIZED FREE ENERGY PREDICTED BY IDOCK:   -3.21 KCAL/MOL
REMARK 922        TOTAL FREE ENERGY PREDICTED BY IDOCK:   -4.83 KCAL/MOL
REMARK 923 INTER-LIGAND FREE ENERGY PREDICTED BY IDOCK:   -4.15 KCAL/MOL
REMARK 924 INTRA-LIGAND FREE ENERGY PREDICTED BY IDOCK:   -0.67 KCAL/MOL
REMARK 927      BINDING AFFINITY PREDICTED BY RF-SCORE:    0.00 PKD
ROOT
HETATM    1  C   UNL     1      -6.400  15.907  69.436  1.00  0.00    -0.160 A  
HETATM    2  C   UNL     1      -5.554  16.218  70.681  1.00  0.00    -0.043 A  
HETATM    3  C   UNL     1      -5.495  17.790  70.695  1.00  0.00    -0.213 A  
HETATM    4  C   UNL     1      -6.147  18.237  69.393  1.00  0.00    -0.252 A  
HETATM    5  N   UNL     1      -6.136  17.033  68.594  1.00  0.00    -0.147 N  
HETATM    6  C   UNL     1      -6.638  17.078  67.333  1.00  0.00    -0.151 C  
HETATM    7  O   UNL     1      -6.274  17.945  66.540  1.00  0.00    -0.150 OA 
HETATM    8  C   UNL     1      -7.592  15.907  66.979  1.00  0.00    -0.264 C  
HETATM    9  O   UNL     1      -6.747  13.682  67.553  1.00  0.00    -0.171 OA 
HETATM   10  N   UNL     1      -8.110  15.012  68.302  1.00  0.00    -0.128 N  
HETATM   11  C   UNL     1      -8.727  13.725  68.288  1.00  0.00    -0.179 C  
HETATM   12  H   UNL     1      -7.204  12.794  69.507  1.00  0.00     0.000 HD 
HETATM   13  C   UNL     1      -8.215  13.132  67.029  1.00  0.00    -0.051 C  
HETATM   14  O   UNL     1      -9.486  13.244  69.113  1.00  0.00     0.282 OA 
HETATM   15  O   UNL     1      -6.914  13.614  69.889  1.00  0.00     0.112 OA 
HETATM   16  C   UNL     1      -9.566  13.732  66.391  1.00  0.00    -0.285 C  
HETATM   17  C   UNL     1      -6.898  14.502  68.780  1.00  0.00    -0.094 C  
ENDROOT
BRANCH   8  18
HETATM   18  C   UNL     1      -8.546  16.485  65.934  1.00  0.00    -0.075 C  
BRANCH  18  19
HETATM   19  C   UNL     1      -9.414  17.586  66.440  1.00  0.00    -0.276 A  
HETATM   20  C   UNL     1      -9.919  19.936  66.422  1.00  0.00    -0.593 A  
HETATM   21  C   UNL     1     -10.845  19.731  67.436  1.00  0.00    -0.440 A  
HETATM   22  C   UNL     1     -10.366  17.383  67.439  1.00  0.00    -0.343 A  
HETATM   23  C   UNL     1     -11.081  18.451  67.968  1.00  0.00     0.206 A  
HETATM   24  C   UNL     1      -9.207  18.865  65.917  1.00  0.00     0.143 A  
ENDBRANCH  18  19
ENDBRANCH   8  18
BRANCH  13  25
HETATM   25  N   UNL     1      -8.069  11.828  66.409  1.00  0.00    -0.374 N  
HETATM   26  O   UNL     1      -7.829  10.698  68.449  1.00  0.00    -0.103 OA 
HETATM   27  C   UNL     1      -7.727  10.706  67.225  1.00  0.00    -0.108 C  
HETATM   28  H   UNL     1      -8.208  11.714  65.405  1.00  0.00     0.000 HD 
BRANCH  27  29
HETATM   29  C   UNL     1      -7.169   9.507  66.434  1.00  0.00    -0.089 C  
HETATM   30  C   UNL     1      -7.867   8.913  65.098  1.00  0.00    -0.106 C  
HETATM   31  N   UNL     1      -6.778   8.247  63.731  1.00  0.00    -0.075 NA 
HETATM   32  C   UNL     1      -5.440   7.509  63.152  1.00  0.00    -0.041 C  
HETATM   33  C   UNL     1      -6.648   9.484  63.342  1.00  0.00    -0.102 C  
HETATM   34  C   UNL     1      -7.958   8.238  62.658  1.00  0.00    -0.159 C  
HETATM   35  C   UNL     1      -8.212   6.703  63.725  1.00  0.00     0.082 A  
HETATM   36  C   UNL     1      -9.248   5.822  63.913  1.00  0.00     0.856 A  
HETATM   37  N   UNL     1      -8.993   5.098  65.088  1.00  0.00    -0.217 NA 
HETATM   38  H   UNL     1      -9.627   4.385  65.447  1.00  0.00     0.000 HD 
HETATM   39  C   UNL     1      -7.798   5.438  65.722  1.00  0.00    -0.100 A  
HETATM   40  C   UNL     1      -7.221   5.048  66.941  1.00  0.00    -0.077 A  
HETATM   41  C   UNL     1      -6.031   5.696  67.383  1.00  0.00    -0.018 A  
HETATM   42  C   UNL     1      -5.425   6.788  66.727  1.00  0.00    -0.017 A  
HETATM   43  C   UNL     1      -6.013   7.280  65.569  1.00  0.00    -0.037 A  
HETATM   44  C   UNL     1      -7.214   6.442  64.982  1.00  0.00    -0.067 A  
HETATM   45  C   UNL     1      -5.663   8.996  64.902  1.00  0.00    -0.062 C  
HETATM   46  C   UNL     1      -5.836   9.899  65.881  1.00  0.00    -0.070 C  
ENDBRANCH  27  29
ENDBRANCH  13  25
TORSDOF 4
ENDMDL
MODEL      111
REMARK 921   NORMALIZED FREE ENERGY PREDICTED BY IDOCK:   -3.18 KCAL/MOL
REMARK 922        TOTAL FREE ENERGY PREDICTED BY IDOCK:   -4.79 KCAL/MOL
REMARK 923 INTER-LIGAND FREE ENERGY PREDICTED BY IDOCK:   -4.51 KCAL/MOL
REMARK 924 INTRA-LIGAND FREE ENERGY PREDICTED BY IDOCK:   -0.28 KCAL/MOL
REMARK 927      BINDING AFFINITY PREDICTED BY RF-SCORE:    0.00 PKD
ROOT
HETATM    1  C   UNL     1      -8.492   7.897  68.814  1.00  0.00    -0.128 A  
HETATM    2  C   UNL     1      -7.648   6.659  69.155  1.00  0.00    -0.100 A  
HETATM    3  C   UNL     1      -8.713   5.628  69.682  1.00  0.00    -0.110 A  
HETATM    4  C   UNL     1     -10.025   6.399  69.763  1.00  0.00    -0.166 A  
HETATM    5  N   UNL     1      -9.595   7.778  69.717  1.00  0.00    -0.167 N  
HETATM    6  C   UNL     1     -10.530   8.759  69.790  1.00  0.00    -0.219 C  
HETATM    7  O   UNL     1     -11.377   8.758  70.681  1.00  0.00    -0.262 OA 
HETATM    8  C   UNL     1     -10.357   9.891  68.742  1.00  0.00    -0.222 C  
HETATM    9  O   UNL     1      -8.087  10.794  68.569  1.00  0.00    -0.118 OA 
HETATM   10  N   UNL     1      -9.286   9.526  67.500  1.00  0.00    -0.126 N  
HETATM   11  C   UNL     1      -8.690  10.437  66.577  1.00  0.00    -0.136 C  
HETATM   12  H   UNL     1      -6.662   9.941  67.135  1.00  0.00     0.000 HD 
HETATM   13  C   UNL     1      -8.687  11.712  67.332  1.00  0.00    -0.155 C  
HETATM   14  O   UNL     1      -8.288  10.209  65.447  1.00  0.00    -0.144 OA 
HETATM   15  O   UNL     1      -6.896   9.090  67.488  1.00  0.00    -0.075 OA 
HETATM   16  C   UNL     1     -10.096  11.962  66.594  1.00  0.00    -0.225 C  
HETATM   17  C   UNL     1      -8.092   9.355  68.209  1.00  0.00    -0.109 C  
ENDROOT
BRANCH   8  18
HETATM   18  C   UNL     1     -11.771  10.418  68.501  1.00  0.00    -0.039 C  
BRANCH  18  19
HETATM   19  C   UNL     1     -12.124  11.617  69.313  1.00  0.00    -0.323 A  
HETATM   20  C   UNL     1     -12.037  14.009  69.533  1.00  0.00    -0.397 A  
HETATM   21  C   UNL     1     -12.574  13.897  70.810  1.00  0.00    -0.424 A  
HETATM   22  C   UNL     1     -12.689  11.514  70.584  1.00  0.00    -0.259 A  
HETATM   23  C   UNL     1     -12.904  12.646  71.361  1.00  0.00    -0.358 A  
HETATM   24  C   UNL     1     -11.818  12.871  68.780  1.00  0.00    -0.353 A  
ENDBRANCH  18  19
ENDBRANCH   8  18
BRANCH  13  25
HETATM   25  N   UNL     1      -8.028  13.005  67.303  1.00  0.00    -0.284 N  
HETATM   26  O   UNL     1      -8.471  13.468  69.558  1.00  0.00     0.747 OA 
HETATM   27  C   UNL     1      -8.122  13.857  68.447  1.00  0.00    -0.145 C  
HETATM   28  H   UNL     1      -7.505  13.300  66.479  1.00  0.00     0.000 HD 
BRANCH  27  29
HETATM   29  C   UNL     1      -7.788  15.332  68.153  1.00  0.00    -0.122 C  
HETATM   30  C   UNL     1      -7.321  16.388  69.289  1.00  0.00    -0.211 C  
HETATM   31  N   UNL     1      -6.067  17.701  68.840  1.00  0.00    -0.189 NA 
HETATM   32  C   UNL     1      -5.348  18.750  67.814  1.00  0.00    -0.173 C  
HETATM   33  C   UNL     1      -5.159  16.790  69.045  1.00  0.00    -0.128 C  
HETATM   34  C   UNL     1      -5.760  18.071  70.361  1.00  0.00    -0.161 C  
HETATM   35  C   UNL     1      -7.383  18.932  69.932  1.00  0.00     0.459 A  
HETATM   36  C   UNL     1      -8.381  19.527  70.665  1.00  0.00     2.118 A  
HETATM   37  N   UNL     1      -9.502  19.670  69.835  1.00  0.00     0.320 NA 
HETATM   38  H   UNL     1     -10.379  20.079  70.155  1.00  0.00     0.000 HD 
HETATM   39  C   UNL     1      -9.314  19.203  68.533  1.00  0.00    -0.374 A  
HETATM   40  C   UNL     1     -10.180  19.062  67.437  1.00  0.00    -0.473 A  
HETATM   41  C   UNL     1      -9.708  18.408  66.262  1.00  0.00    -0.298 A  
HETATM   42  C   UNL     1      -8.445  17.792  66.143  1.00  0.00    -0.158 A  
HETATM   43  C   UNL     1      -7.586  17.815  67.234  1.00  0.00    -0.217 A  
HETATM   44  C   UNL     1      -8.034  18.701  68.460  1.00  0.00    -0.365 A  
HETATM   45  C   UNL     1      -6.152  16.624  67.424  1.00  0.00    -0.191 C  
HETATM   46  C   UNL     1      -6.591  15.365  67.256  1.00  0.00    -0.049 C  
ENDBRANCH  27  29
ENDBRANCH  13  25
TORSDOF 4
ENDMDL
MODEL      112
REMARK 921   NORMALIZED FREE ENERGY PREDICTED BY IDOCK:   -3.16 KCAL/MOL
REMARK 922        TOTAL FREE ENERGY PREDICTED BY IDOCK:   -4.76 KCAL/MOL
REMARK 923 INTER-LIGAND FREE ENERGY PREDICTED BY IDOCK:   -4.60 KCAL/MOL
REMARK 924 INTRA-LIGAND FREE ENERGY PREDICTED BY IDOCK:   -0.16 KCAL/MOL
REMARK 927      BINDING AFFINITY PREDICTED BY RF-SCORE:    0.00 PKD
ROOT
HETATM    1  C   UNL     1      -8.873  12.673  68.364  1.00  0.00    -0.119 A  
HETATM    2  C   UNL     1      -9.164  14.097  68.862  1.00  0.00    -0.003 A  
HETATM    3  C   UNL     1      -8.387  15.005  67.839  1.00  0.00    -0.151 A  
HETATM    4  C   UNL     1      -7.590  14.046  66.963  1.00  0.00     0.244 A  
HETATM    5  N   UNL     1      -7.599  12.822  67.730  1.00  0.00    -0.126 N  
HETATM    6  C   UNL     1      -6.946  11.736  67.240  1.00  0.00    -0.138 C  
HETATM    7  O   UNL     1      -5.781  11.820  66.859  1.00  0.00    -0.131 OA 
HETATM    8  C   UNL     1      -7.755  10.414  67.313  1.00  0.00    -0.099 C  
HETATM    9  O   UNL     1      -8.794   9.960  69.484  1.00  0.00    -0.168 OA 
HETATM   10  N   UNL     1      -9.390  10.618  67.640  1.00  0.00    -0.146 N  
HETATM   11  C   UNL     1     -10.319   9.621  68.063  1.00  0.00    -0.218 C  
HETATM   12  H   UNL     1     -10.839  10.641  69.896  1.00  0.00     0.000 HD 
HETATM   13  C   UNL     1      -9.450   8.634  68.747  1.00  0.00    -0.143 C  
HETATM   14  O   UNL     1     -11.528   9.598  67.895  1.00  0.00     0.073 OA 
HETATM   15  O   UNL     1     -10.564  11.493  69.579  1.00  0.00    -0.095 OA 
HETATM   16  C   UNL     1      -9.411   7.917  67.306  1.00  0.00    -0.180 C  
HETATM   17  C   UNL     1      -9.344  11.212  68.907  1.00  0.00    -0.106 C  
ENDROOT
BRANCH   8  18
HETATM   18  C   UNL     1      -7.234   9.574  66.147  1.00  0.00    -0.093 C  
BRANCH  18  19
HETATM   19  C   UNL     1      -7.780   9.968  64.818  1.00  0.00    -0.142 A  
HETATM   20  C   UNL     1      -7.315  10.662  62.563  1.00  0.00    -0.114 A  
HETATM   21  C   UNL     1      -8.674  10.874  62.364  1.00  0.00    -0.355 A  
HETATM   22  C   UNL     1      -9.145  10.156  64.601  1.00  0.00    -0.268 A  
HETATM   23  C   UNL     1      -9.613  10.631  63.381  1.00  0.00    -0.373 A  
HETATM   24  C   UNL     1      -6.867  10.202  63.787  1.00  0.00    -0.109 A  
ENDBRANCH  18  19
ENDBRANCH   8  18
BRANCH  13  25
HETATM   25  N   UNL     1      -9.563   7.540  69.694  1.00  0.00    -0.160 N  
HETATM   26  O   UNL     1      -7.485   7.967  70.691  1.00  0.00    -0.065 OA 
HETATM   27  C   UNL     1      -8.440   7.216  70.516  1.00  0.00    -0.139 C  
HETATM   28  H   UNL     1     -10.432   7.011  69.771  1.00  0.00     0.000 HD 
BRANCH  27  29
HETATM   29  C   UNL     1      -8.508   5.806  71.134  1.00  0.00    -0.128 C  
HETATM   30  C   UNL     1      -7.310   5.152  72.006  1.00  0.00    -0.090 C  
HETATM   31  N   UNL     1      -7.744   4.040  73.446  1.00  0.00    -0.082 NA 
HETATM   32  C   UNL     1      -8.675   2.943  74.221  1.00  0.00    -0.075 C  
HETATM   33  C   UNL     1      -7.906   5.133  74.137  1.00  0.00    -0.097 C  
HETATM   34  C   UNL     1      -6.275   4.098  74.065  1.00  0.00    -0.036 C  
HETATM   35  C   UNL     1      -6.193   2.863  72.640  1.00  0.00    -0.009 A  
HETATM   36  C   UNL     1      -5.173   2.271  71.936  1.00  0.00     0.000 A  
HETATM   37  N   UNL     1      -5.717   1.726  70.764  1.00  0.00    -0.015 NA 
HETATM   38  H   UNL     1      -5.153   1.239  70.067  1.00  0.00     0.000 HD 
HETATM   39  C   UNL     1      -7.094   1.907  70.632  1.00  0.00    -0.033 A  
HETATM   40  C   UNL     1      -7.998   1.620  69.597  1.00  0.00    -0.052 A  
HETATM   41  C   UNL     1      -9.347   2.064  69.713  1.00  0.00    -0.158 A  
HETATM   42  C   UNL     1      -9.835   2.869  70.763  1.00  0.00    -0.004 A  
HETATM   43  C   UNL     1      -8.957   3.266  71.764  1.00  0.00    -0.148 A  
HETATM   44  C   UNL     1      -7.520   2.617  71.732  1.00  0.00    -0.040 A  
HETATM   45  C   UNL     1      -9.293   4.724  72.892  1.00  0.00    -0.143 C  
HETATM   46  C   UNL     1      -9.606   5.800  72.151  1.00  0.00    -0.167 C  
ENDBRANCH  27  29
ENDBRANCH  13  25
TORSDOF 4
ENDMDL
MODEL      113
REMARK 921   NORMALIZED FREE ENERGY PREDICTED BY IDOCK:   -3.06 KCAL/MOL
REMARK 922        TOTAL FREE ENERGY PREDICTED BY IDOCK:   -4.64 KCAL/MOL
REMARK 923 INTER-LIGAND FREE ENERGY PREDICTED BY IDOCK:   -4.34 KCAL/MOL
REMARK 924 INTRA-LIGAND FREE ENERGY PREDICTED BY IDOCK:   -0.30 KCAL/MOL
REMARK 927      BINDING AFFINITY PREDICTED BY RF-SCORE:    0.00 PKD
ROOT
HETATM    1  C   UNL     1      -8.324   7.428  69.384  1.00  0.00    -0.132 A  
HETATM    2  C   UNL     1      -8.268   6.707  70.740  1.00  0.00    -0.121 A  
HETATM    3  C   UNL     1      -8.669   5.228  70.381  1.00  0.00    -0.138 A  
HETATM    4  C   UNL     1      -9.082   5.259  68.915  1.00  0.00    -0.111 A  
HETATM    5  N   UNL     1      -9.301   6.666  68.669  1.00  0.00    -0.131 N  
HETATM    6  C   UNL     1      -9.709   7.061  67.435  1.00  0.00    -0.141 C  
HETATM    7  O   UNL     1     -10.671   6.526  66.888  1.00  0.00    -0.297 OA 
HETATM    8  C   UNL     1      -8.935   8.278  66.862  1.00  0.00    -0.169 C  
HETATM    9  O   UNL     1      -8.702  10.168  68.401  1.00  0.00    -0.118 OA 
HETATM   10  N   UNL     1      -7.523   8.654  67.690  1.00  0.00    -0.089 N  
HETATM   11  C   UNL     1      -6.768   9.862  67.610  1.00  0.00    -0.073 C  
HETATM   12  H   UNL     1      -6.951  10.317  69.715  1.00  0.00     0.000 HD 
HETATM   13  C   UNL     1      -7.790  10.859  67.209  1.00  0.00    -0.116 C  
HETATM   14  O   UNL     1      -5.577  10.021  67.820  1.00  0.00    -0.039 OA 
HETATM   15  O   UNL     1      -7.125   9.417  69.963  1.00  0.00    -0.062 OA 
HETATM   16  C   UNL     1      -7.303  10.512  65.714  1.00  0.00    -0.137 C  
HETATM   17  C   UNL     1      -8.025   8.970  68.958  1.00  0.00    -0.102 C  
ENDROOT
BRANCH   8  18
HETATM   18  C   UNL     1      -8.992   8.096  65.345  1.00  0.00    -0.024 C  
BRANCH  18  19
HETATM   19  C   UNL     1      -7.886   7.268  64.787  1.00  0.00    -0.126 A  
HETATM   20  C   UNL     1      -6.461   5.350  65.052  1.00  0.00    -0.039 A  
HETATM   21  C   UNL     1      -5.735   5.753  63.938  1.00  0.00    -0.021 A  
HETATM   22  C   UNL     1      -7.169   7.651  63.653  1.00  0.00    -0.079 A  
HETATM   23  C   UNL     1      -6.072   6.915  63.222  1.00  0.00    -0.043 A  
HETATM   24  C   UNL     1      -7.541   6.101  65.474  1.00  0.00    -0.086 A  
ENDBRANCH  18  19
ENDBRANCH   8  18
BRANCH  13  25
HETATM   25  N   UNL     1      -7.979  12.298  67.205  1.00  0.00    -0.220 N  
HETATM   26  O   UNL     1      -6.140  12.711  68.598  1.00  0.00    -0.061 OA 
HETATM   27  C   UNL     1      -7.174  13.105  68.066  1.00  0.00    -0.125 C  
HETATM   28  H   UNL     1      -8.675  12.726  66.595  1.00  0.00     0.000 HD 
BRANCH  27  29
HETATM   29  C   UNL     1      -7.745  14.515  68.311  1.00  0.00    -0.126 C  
HETATM   30  C   UNL     1      -9.251  14.953  67.908  1.00  0.00    -0.183 C  
HETATM   31  N   UNL     1     -10.168  16.155  69.010  1.00  0.00    -0.234 NA 
HETATM   32  C   UNL     1     -10.260  17.420  70.040  1.00  0.00     0.612 C  
HETATM   33  C   UNL     1     -10.463  15.124  69.751  1.00  0.00    -0.233 C  
HETATM   34  C   UNL     1     -11.585  15.838  68.348  1.00  0.00    -0.338 C  
HETATM   35  C   UNL     1     -10.702  17.009  67.160  1.00  0.00    -0.177 A  
HETATM   36  C   UNL     1     -10.903  17.388  65.855  1.00  0.00     0.002 A  
HETATM   37  N   UNL     1      -9.728  18.001  65.396  1.00  0.00     0.168 NA 
HETATM   38  H   UNL     1      -9.625  18.362  64.448  1.00  0.00     0.000 HD 
HETATM   39  C   UNL     1      -8.711  18.075  66.349  1.00  0.00    -0.227 A  
HETATM   40  C   UNL     1      -7.376  18.504  66.286  1.00  0.00    -0.290 A  
HETATM   41  C   UNL     1      -6.535  18.319  67.423  1.00  0.00    -0.194 A  
HETATM   42  C   UNL     1      -6.918  17.639  68.597  1.00  0.00    -0.237 A  
HETATM   43  C   UNL     1      -8.198  17.106  68.673  1.00  0.00    -0.255 A  
HETATM   44  C   UNL     1      -9.182  17.478  67.497  1.00  0.00    -0.242 A  
HETATM   45  C   UNL     1      -8.668  15.758  69.886  1.00  0.00     0.299 C  
HETATM   46  C   UNL     1      -7.792  14.744  69.789  1.00  0.00     0.109 C  
ENDBRANCH  27  29
ENDBRANCH  13  25
TORSDOF 4
ENDMDL
MODEL      114
REMARK 921   NORMALIZED FREE ENERGY PREDICTED BY IDOCK:   -2.97 KCAL/MOL
REMARK 922        TOTAL FREE ENERGY PREDICTED BY IDOCK:   -4.53 KCAL/MOL
REMARK 923 INTER-LIGAND FREE ENERGY PREDICTED BY IDOCK:   -4.55 KCAL/MOL
REMARK 924 INTRA-LIGAND FREE ENERGY PREDICTED BY IDOCK:    0.02 KCAL/MOL
REMARK 927      BINDING AFFINITY PREDICTED BY RF-SCORE:    0.00 PKD
ROOT
HETATM    1  C   UNL     1      -9.467  17.256  66.808  1.00  0.00    -0.265 A  
HETATM    2  C   UNL     1      -9.564  18.182  65.585  1.00  0.00     0.519 A  
HETATM    3  C   UNL     1     -10.530  19.324  66.071  1.00  0.00    -0.573 A  
HETATM    4  C   UNL     1     -11.036  18.880  67.438  1.00  0.00    -0.242 A  
HETATM    5  N   UNL     1     -10.724  17.469  67.457  1.00  0.00    -0.324 N  
HETATM    6  C   UNL     1     -11.064  16.736  68.549  1.00  0.00    -0.260 C  
HETATM    7  O   UNL     1     -12.205  16.778  69.006  1.00  0.00     0.520 OA 
HETATM    8  C   UNL     1      -9.942  15.798  69.068  1.00  0.00    -0.234 C  
HETATM    9  O   UNL     1      -8.861  14.434  67.346  1.00  0.00    -0.182 OA 
HETATM   10  N   UNL     1      -8.422  16.115  68.426  1.00  0.00    -0.177 N  
HETATM   11  C   UNL     1      -7.275  15.268  68.462  1.00  0.00    -0.114 C  
HETATM   12  H   UNL     1      -7.071  15.169  66.312  1.00  0.00     0.000 HD 
HETATM   13  C   UNL     1      -7.871  13.914  68.562  1.00  0.00    -0.139 C  
HETATM   14  O   UNL     1      -6.098  15.591  68.420  1.00  0.00    -0.096 OA 
HETATM   15  O   UNL     1      -7.551  15.975  66.162  1.00  0.00     0.072 OA 
HETATM   16  C   UNL     1      -7.696  14.135  70.147  1.00  0.00     1.001 C  
HETATM   17  C   UNL     1      -8.643  15.875  67.065  1.00  0.00    -0.216 C  
ENDROOT
BRANCH   8  18
HETATM   18  C   UNL     1     -10.206  15.668  70.568  1.00  0.00     0.132 C  
BRANCH  18  19
HETATM   19  C   UNL     1     -11.202  14.618  70.925  1.00  0.00    -0.052 A  
HETATM   20  C   UNL     1     -12.273  12.553  70.316  1.00  0.00    -0.345 A  
HETATM   21  C   UNL     1     -13.136  12.700  71.394  1.00  0.00    -0.308 A  
HETATM   22  C   UNL     1     -12.054  14.743  72.022  1.00  0.00    -0.403 A  
HETATM   23  C   UNL     1     -13.047  13.801  72.263  1.00  0.00    -0.500 A  
HETATM   24  C   UNL     1     -11.300  13.507  70.083  1.00  0.00     0.042 A  
ENDBRANCH  18  19
ENDBRANCH   8  18
BRANCH  13  25
HETATM   25  N   UNL     1      -7.496  12.529  68.345  1.00  0.00    -0.121 N  
HETATM   26  O   UNL     1      -9.061  12.199  66.632  1.00  0.00    -0.201 OA 
HETATM   27  C   UNL     1      -8.274  11.732  67.451  1.00  0.00    -0.160 C  
HETATM   28  H   UNL     1      -6.688  12.131  68.824  1.00  0.00     0.000 HD 
BRANCH  27  29
HETATM   29  C   UNL     1      -8.076  10.215  67.635  1.00  0.00    -0.109 C  
HETATM   30  C   UNL     1      -7.328   9.272  66.552  1.00  0.00    -0.092 C  
HETATM   31  N   UNL     1      -6.288   7.842  67.164  1.00  0.00    -0.054 NA 
HETATM   32  C   UNL     1      -5.920   6.640  68.208  1.00  0.00    -0.021 C  
HETATM   33  C   UNL     1      -5.338   8.715  67.342  1.00  0.00    -0.034 C  
HETATM   34  C   UNL     1      -5.567   7.633  65.757  1.00  0.00    -0.033 C  
HETATM   35  C   UNL     1      -7.266   6.827  65.597  1.00  0.00    -0.073 A  
HETATM   36  C   UNL     1      -8.025   6.382  64.543  1.00  0.00    -0.117 A  
HETATM   37  N   UNL     1      -9.341   6.212  64.999  1.00  0.00    -0.079 NA 
HETATM   38  H   UNL     1     -10.099   5.896  64.395  1.00  0.00     0.000 HD 
HETATM   39  C   UNL     1      -9.523   6.513  66.349  1.00  0.00    -0.126 A  
HETATM   40  C   UNL     1     -10.663   6.578  67.165  1.00  0.00    -0.438 A  
HETATM   41  C   UNL     1     -10.533   7.063  68.500  1.00  0.00    -0.226 A  
HETATM   42  C   UNL     1      -9.342   7.584  69.047  1.00  0.00    -0.146 A  
HETATM   43  C   UNL     1      -8.207   7.636  68.249  1.00  0.00    -0.125 A  
HETATM   44  C   UNL     1      -8.306   6.925  66.844  1.00  0.00    -0.114 A  
HETATM   45  C   UNL     1      -6.750   8.752  68.625  1.00  0.00    -0.059 C  
HETATM   46  C   UNL     1      -7.187  10.007  68.821  1.00  0.00    -0.076 C  
ENDBRANCH  27  29
ENDBRANCH  13  25
TORSDOF 4
ENDMDL
MODEL      115
REMARK 921   NORMALIZED FREE ENERGY PREDICTED BY IDOCK:   -2.70 KCAL/MOL
REMARK 922        TOTAL FREE ENERGY PREDICTED BY IDOCK:   -4.20 KCAL/MOL
REMARK 923 INTER-LIGAND FREE ENERGY PREDICTED BY IDOCK:   -3.96 KCAL/MOL
REMARK 924 INTRA-LIGAND FREE ENERGY PREDICTED BY IDOCK:   -0.24 KCAL/MOL
REMARK 927      BINDING AFFINITY PREDICTED BY RF-SCORE:    0.00 PKD
ROOT
HETATM    1  C   UNL     1      -8.956   6.091  70.364  1.00  0.00    -0.149 A  
HETATM    2  C   UNL     1      -9.013   5.585  71.814  1.00  0.00    -0.144 A  
HETATM    3  C   UNL     1      -9.131   4.025  71.649  1.00  0.00    -0.174 A  
HETATM    4  C   UNL     1      -9.304   3.782  70.155  1.00  0.00    -0.174 A  
HETATM    5  N   UNL     1      -9.685   5.084  69.656  1.00  0.00    -0.176 N  
HETATM    6  C   UNL     1      -9.943   5.229  68.330  1.00  0.00    -0.159 C  
HETATM    7  O   UNL     1     -10.717   4.469  67.752  1.00  0.00     0.353 OA 
HETATM    8  C   UNL     1      -9.274   6.468  67.678  1.00  0.00    -0.113 C  
HETATM    9  O   UNL     1      -9.569   8.565  68.907  1.00  0.00    -0.157 OA 
HETATM   10  N   UNL     1      -8.083   7.188  68.618  1.00  0.00    -0.123 N  
HETATM   11  C   UNL     1      -7.510   8.484  68.445  1.00  0.00    -0.095 C  
HETATM   12  H   UNL     1      -8.091   9.188  70.404  1.00  0.00     0.000 HD 
HETATM   13  C   UNL     1      -8.589   9.228  67.753  1.00  0.00    -0.117 C  
HETATM   14  O   UNL     1      -6.404   8.870  68.786  1.00  0.00    -0.048 OA 
HETATM   15  O   UNL     1      -8.169   8.315  70.769  1.00  0.00    -0.103 OA 
HETATM   16  C   UNL     1      -7.824   8.765  66.414  1.00  0.00    -0.099 C  
HETATM   17  C   UNL     1      -8.822   7.588  69.737  1.00  0.00    -0.141 C  
ENDROOT
BRANCH   8  18
HETATM   18  C   UNL     1      -9.061   6.070  66.217  1.00  0.00    -0.160 C  
BRANCH  18  19
HETATM   19  C   UNL     1      -7.845   5.241  65.981  1.00  0.00    -0.103 A  
HETATM   20  C   UNL     1      -6.414   4.157  64.381  1.00  0.00    -0.042 A  
HETATM   21  C   UNL     1      -5.712   3.572  65.428  1.00  0.00    -0.018 A  
HETATM   22  C   UNL     1      -7.117   4.673  67.026  1.00  0.00    -0.072 A  
HETATM   23  C   UNL     1      -6.055   3.814  66.770  1.00  0.00    -0.025 A  
HETATM   24  C   UNL     1      -7.476   4.997  64.655  1.00  0.00    -0.075 A  
ENDBRANCH  18  19
ENDBRANCH   8  18
BRANCH  13  25
HETATM   25  N   UNL     1      -8.983  10.600  67.489  1.00  0.00    -0.135 N  
HETATM   26  O   UNL     1      -7.182  11.521  68.673  1.00  0.00    -0.088 OA 
HETATM   27  C   UNL     1      -8.277  11.661  68.136  1.00  0.00    -0.151 C  
HETATM   28  H   UNL     1      -9.752  10.803  66.851  1.00  0.00     0.000 HD 
BRANCH  27  29
HETATM   29  C   UNL     1      -9.038  13.000  68.144  1.00  0.00    -0.204 C  
HETATM   30  C   UNL     1     -10.269  13.337  67.147  1.00  0.00    -0.246 C  
HETATM   31  N   UNL     1     -11.682  14.388  67.779  1.00  0.00    -0.362 NA 
HETATM   32  C   UNL     1     -12.328  15.574  68.698  1.00  0.00     0.251 C  
HETATM   33  C   UNL     1     -12.156  13.292  68.301  1.00  0.00    -0.211 C  
HETATM   34  C   UNL     1     -12.646  13.998  66.569  1.00  0.00    -0.174 C  
HETATM   35  C   UNL     1     -11.468  15.309  65.896  1.00  0.00    -0.092 A  
HETATM   36  C   UNL     1     -11.136  15.750  64.639  1.00  0.00    -0.361 A  
HETATM   37  N   UNL     1      -9.946  16.486  64.738  1.00  0.00     0.402 NA 
HETATM   38  H   UNL     1      -9.490  16.912  63.932  1.00  0.00     0.000 HD 
HETATM   39  C   UNL     1      -9.440  16.584  66.035  1.00  0.00    -0.282 A  
HETATM   40  C   UNL     1      -8.254  17.124  66.556  1.00  0.00    -0.308 A  
HETATM   41  C   UNL     1      -7.957  16.939  67.938  1.00  0.00    -0.187 A  
HETATM   42  C   UNL     1      -8.729  16.158  68.823  1.00  0.00    -0.240 A  
HETATM   43  C   UNL     1      -9.861  15.517  68.334  1.00  0.00    -0.210 A  
HETATM   44  C   UNL     1     -10.288  15.879  66.859  1.00  0.00    -0.291 A  
HETATM   45  C   UNL     1     -10.660  14.062  69.202  1.00  0.00    -0.149 C  
HETATM   46  C   UNL     1      -9.728  13.131  69.466  1.00  0.00     1.189 C  
ENDBRANCH  27  29
ENDBRANCH  13  25
TORSDOF 4
ENDMDL
MODEL      116
REMARK 921   NORMALIZED FREE ENERGY PREDICTED BY IDOCK:   -2.34 KCAL/MOL
REMARK 922        TOTAL FREE ENERGY PREDICTED BY IDOCK:   -3.76 KCAL/MOL
REMARK 923 INTER-LIGAND FREE ENERGY PREDICTED BY IDOCK:   -4.43 KCAL/MOL
REMARK 924 INTRA-LIGAND FREE ENERGY PREDICTED BY IDOCK:    0.68 KCAL/MOL
REMARK 927      BINDING AFFINITY PREDICTED BY RF-SCORE:    0.00 PKD
ROOT
HETATM    1  C   UNL     1     -10.065  17.451  69.108  1.00  0.00    -0.242 A  
HETATM    2  C   UNL     1     -10.904  18.333  70.045  1.00  0.00     1.876 A  
HETATM    3  C   UNL     1     -10.223  19.745  69.921  1.00  0.00     0.318 A  
HETATM    4  C   UNL     1      -8.972  19.524  69.079  1.00  0.00    -0.192 A  
HETATM    5  N   UNL     1      -8.787  18.093  69.142  1.00  0.00     0.020 N  
HETATM    6  C   UNL     1      -7.725  17.539  68.501  1.00  0.00    -0.272 C  
HETATM    7  O   UNL     1      -6.588  17.977  68.669  1.00  0.00    -0.211 OA 
HETATM    8  C   UNL     1      -8.068  16.282  67.658  1.00  0.00    -0.161 C  
HETATM    9  O   UNL     1      -9.419  14.602  68.818  1.00  0.00    -0.204 OA 
HETATM   10  N   UNL     1      -9.711  16.048  67.400  1.00  0.00    -0.230 N  
HETATM   11  C   UNL     1     -10.353  14.859  66.942  1.00  0.00    -0.264 C  
HETATM   12  H   UNL     1     -11.609  14.661  68.690  1.00  0.00     0.000 HD 
HETATM   13  C   UNL     1      -9.418  13.794  67.376  1.00  0.00    -0.224 C  
HETATM   14  O   UNL     1     -11.411  14.758  66.341  1.00  0.00    -0.350 OA 
HETATM   15  O   UNL     1     -11.546  15.580  68.922  1.00  0.00    -0.332 OA 
HETATM   16  C   UNL     1      -8.796  13.968  65.901  1.00  0.00     0.700 C  
HETATM   17  C   UNL     1     -10.173  15.876  68.710  1.00  0.00    -0.220 C  
ENDROOT
BRANCH   8  18
HETATM   18  C   UNL     1      -7.034  16.275  66.532  1.00  0.00     0.105 C  
BRANCH  18  19
HETATM   19  C   UNL     1      -6.802  17.609  65.907  1.00  0.00    -0.253 A  
HETATM   20  C   UNL     1      -5.246  19.103  64.845  1.00  0.00    -0.214 A  
HETATM   21  C   UNL     1      -6.206  20.106  64.883  1.00  0.00    -0.318 A  
HETATM   22  C   UNL     1      -7.770  18.613  65.916  1.00  0.00    -0.143 A  
HETATM   23  C   UNL     1      -7.483  19.882  65.425  1.00  0.00    -0.105 A  
HETATM   24  C   UNL     1      -5.544  17.851  65.350  1.00  0.00    -0.084 A  
ENDBRANCH  18  19
ENDBRANCH   8  18
BRANCH  13  25
HETATM   25  N   UNL     1      -9.415  12.361  67.605  1.00  0.00    -0.185 N  
HETATM   26  O   UNL     1     -11.401  12.386  68.849  1.00  0.00    -0.254 OA 
HETATM   27  C   UNL     1     -10.385  11.798  68.490  1.00  0.00    -0.217 C  
HETATM   28  H   UNL     1      -8.730  11.765  67.140  1.00  0.00     0.000 HD 
BRANCH  27  29
HETATM   29  C   UNL     1     -10.020  10.390  68.999  1.00  0.00    -0.224 C  
HETATM   30  C   UNL     1     -10.378   9.854  70.485  1.00  0.00    -0.298 C  
HETATM   31  N   UNL     1     -10.828   8.052  70.711  1.00  0.00    -0.228 NA 
HETATM   32  C   UNL     1     -10.733   6.462  70.347  1.00  0.00    -0.262 C  
HETATM   33  C   UNL     1     -12.030   8.389  70.337  1.00  0.00     0.184 C  
HETATM   34  C   UNL     1     -11.429   8.281  72.171  1.00  0.00    -0.361 C  
HETATM   35  C   UNL     1      -9.554   8.235  72.379  1.00  0.00    -0.364 A  
HETATM   36  C   UNL     1      -8.688   8.589  73.385  1.00  0.00     0.027 A  
HETATM   37  N   UNL     1      -7.399   8.668  72.838  1.00  0.00    -0.349 NA 
HETATM   38  H   UNL     1      -6.579   8.925  73.388  1.00  0.00     0.000 HD 
HETATM   39  C   UNL     1      -7.334   8.366  71.477  1.00  0.00    -0.095 A  
HETATM   40  C   UNL     1      -6.292   8.420  70.538  1.00  0.00    -0.035 A  
HETATM   41  C   UNL     1      -6.585   8.177  69.164  1.00  0.00    -0.043 A  
HETATM   42  C   UNL     1      -7.882   7.975  68.648  1.00  0.00    -0.118 A  
HETATM   43  C   UNL     1      -8.962   8.012  69.521  1.00  0.00    -0.148 A  
HETATM   44  C   UNL     1      -8.616   8.090  71.059  1.00  0.00    -0.142 A  
HETATM   45  C   UNL     1     -10.723   8.297  68.949  1.00  0.00    -0.089 C  
HETATM   46  C   UNL     1     -10.769   9.392  68.173  1.00  0.00    -0.230 C  
ENDBRANCH  27  29
ENDBRANCH  13  25
TORSDOF 4
ENDMDL
MODEL      117
REMARK 921   NORMALIZED FREE ENERGY PREDICTED BY IDOCK:   -1.90 KCAL/MOL
REMARK 922        TOTAL FREE ENERGY PREDICTED BY IDOCK:   -3.20 KCAL/MOL
REMARK 923 INTER-LIGAND FREE ENERGY PREDICTED BY IDOCK:   -2.34 KCAL/MOL
REMARK 924 INTRA-LIGAND FREE ENERGY PREDICTED BY IDOCK:   -0.86 KCAL/MOL
REMARK 927      BINDING AFFINITY PREDICTED BY RF-SCORE:    0.00 PKD
ROOT
HETATM    1  C   UNL     1     -10.389  18.293  66.107  1.00  0.00    -0.398 A  
HETATM    2  C   UNL     1     -11.136  19.211  65.126  1.00  0.00     0.961 A  
HETATM    3  C   UNL     1     -10.799  20.655  65.653  1.00  0.00     0.811 A  
HETATM    4  C   UNL     1     -10.049  20.449  66.964  1.00  0.00    -0.366 A  
HETATM    5  N   UNL     1     -10.357  19.078  67.303  1.00  0.00    -0.397 N  
HETATM    6  C   UNL     1      -9.855  18.558  68.452  1.00  0.00    -0.372 C  
HETATM    7  O   UNL     1      -9.986  19.148  69.522  1.00  0.00    -0.196 OA 
HETATM    8  C   UNL     1      -9.223  17.149  68.296  1.00  0.00    -0.262 C  
HETATM    9  O   UNL     1     -10.601  15.531  67.079  1.00  0.00    -0.300 OA 
HETATM   10  N   UNL     1      -8.952  16.684  66.705  1.00  0.00    -0.236 N  
HETATM   11  C   UNL     1      -8.678  15.369  66.223  1.00  0.00    -0.205 C  
HETATM   12  H   UNL     1     -10.391  15.310  64.906  1.00  0.00     0.000 HD 
HETATM   13  C   UNL     1      -9.315  14.506  67.246  1.00  0.00    -0.210 C  
HETATM   14  O   UNL     1      -8.067  15.047  65.216  1.00  0.00     3.312 OA 
HETATM   15  O   UNL     1     -10.468  16.256  64.855  1.00  0.00    -0.624 OA 
HETATM   16  C   UNL     1      -7.854  14.510  67.922  1.00  0.00    -0.153 C  
HETATM   17  C   UNL     1     -10.256  16.673  66.196  1.00  0.00    -0.348 C  
ENDROOT
BRANCH   8  18
HETATM   18  C   UNL     1      -8.149  17.082  69.381  1.00  0.00     0.254 C  
BRANCH  18  19
HETATM   19  C   UNL     1      -7.072  18.102  69.241  1.00  0.00    -0.130 A  
HETATM   20  C   UNL     1      -5.839  19.898  70.259  1.00  0.00    -0.346 A  
HETATM   21  C   UNL     1      -5.217  20.142  69.041  1.00  0.00    -0.230 A  
HETATM   22  C   UNL     1      -6.422  18.335  68.029  1.00  0.00    -0.193 A  
HETATM   23  C   UNL     1      -5.502  19.369  67.902  1.00  0.00    -0.188 A  
HETATM   24  C   UNL     1      -6.762  18.874  70.363  1.00  0.00     0.542 A  
ENDBRANCH  18  19
ENDBRANCH   8  18
BRANCH  13  25
HETATM   25  N   UNL     1      -9.781  13.140  67.396  1.00  0.00    -0.215 N  
HETATM   26  O   UNL     1     -10.437  13.432  69.628  1.00  0.00     0.301 OA 
HETATM   27  C   UNL     1     -10.181  12.682  68.689  1.00  0.00    -0.154 C  
HETATM   28  H   UNL     1      -9.821  12.516  66.590  1.00  0.00     0.000 HD 
BRANCH  27  29
HETATM   29  C   UNL     1     -10.221  11.148  68.822  1.00  0.00    -0.219 C  
HETATM   30  C   UNL     1      -9.463  10.331  69.997  1.00  0.00     0.039 C  
HETATM   31  N   UNL     1     -10.267   8.790  70.690  1.00  0.00    -0.193 NA 
HETATM   32  C   UNL     1     -11.187   7.444  70.583  1.00  0.00    -0.270 C  
HETATM   33  C   UNL     1     -10.969   9.592  71.440  1.00  0.00    -0.345 C  
HETATM   34  C   UNL     1      -9.313   8.745  71.968  1.00  0.00    -0.252 C  
HETATM   35  C   UNL     1      -8.305   8.038  70.538  1.00  0.00    -0.123 A  
HETATM   36  C   UNL     1      -6.972   7.771  70.339  1.00  0.00    -0.046 A  
HETATM   37  N   UNL     1      -6.767   7.595  68.963  1.00  0.00    -0.048 NA 
HETATM   38  H   UNL     1      -5.851   7.395  68.561  1.00  0.00     0.000 HD 
HETATM   39  C   UNL     1      -7.923   7.717  68.191  1.00  0.00    -0.123 A  
HETATM   40  C   UNL     1      -8.147   7.716  66.805  1.00  0.00    -0.115 A  
HETATM   41  C   UNL     1      -9.454   8.010  66.315  1.00  0.00    -0.241 A  
HETATM   42  C   UNL     1     -10.540   8.402  67.124  1.00  0.00    -0.326 A  
HETATM   43  C   UNL     1     -10.345   8.516  68.495  1.00  0.00    -0.230 A  
HETATM   44  C   UNL     1      -8.959   8.008  69.049  1.00  0.00    -0.145 A  
HETATM   45  C   UNL     1     -11.482   9.511  69.603  1.00  0.00     0.011 C  
HETATM   46  C   UNL     1     -11.636  10.745  69.094  1.00  0.00    -0.376 C  
ENDBRANCH  27  29
ENDBRANCH  13  25
TORSDOF 4
ENDMDL
MODEL      118
REMARK 921   NORMALIZED FREE ENERGY PREDICTED BY IDOCK:   -1.84 KCAL/MOL
REMARK 922        TOTAL FREE ENERGY PREDICTED BY IDOCK:   -3.14 KCAL/MOL
REMARK 923 INTER-LIGAND FREE ENERGY PREDICTED BY IDOCK:   -3.28 KCAL/MOL
REMARK 924 INTRA-LIGAND FREE ENERGY PREDICTED BY IDOCK:    0.14 KCAL/MOL
REMARK 927      BINDING AFFINITY PREDICTED BY RF-SCORE:    0.00 PKD
ROOT
HETATM    1  C   UNL     1      -6.012  14.108  70.374  1.00  0.00    -0.171 A  
HETATM    2  C   UNL     1      -5.305  14.265  71.730  1.00  0.00    -0.199 A  
HETATM    3  C   UNL     1      -5.244  15.824  71.928  1.00  0.00     0.141 A  
HETATM    4  C   UNL     1      -5.750  16.424  70.622  1.00  0.00     0.029 A  
HETATM    5  N   UNL     1      -5.656  15.317  69.698  1.00  0.00    -0.102 N  
HETATM    6  C   UNL     1      -6.018  15.510  68.403  1.00  0.00    -0.107 C  
HETATM    7  O   UNL     1      -5.569  16.454  67.757  1.00  0.00    -0.114 OA 
HETATM    8  C   UNL     1      -6.931  14.399  67.819  1.00  0.00    -0.191 C  
HETATM    9  O   UNL     1      -6.159  12.112  68.226  1.00  0.00    -0.049 OA 
HETATM   10  N   UNL     1      -7.591  13.369  68.970  1.00  0.00     0.025 N  
HETATM   11  C   UNL     1      -8.206  12.101  68.745  1.00  0.00     0.055 C  
HETATM   12  H   UNL     1      -6.826  11.018  70.008  1.00  0.00     0.000 HD 
HETATM   13  C   UNL     1      -7.562  11.645  67.490  1.00  0.00    -0.128 C  
HETATM   14  O   UNL     1      -9.051  11.542  69.425  1.00  0.00     0.307 OA 
HETATM   15  O   UNL     1      -6.577  11.786  70.509  1.00  0.00    -0.058 OA 
HETATM   16  C   UNL     1      -8.835  12.332  66.782  1.00  0.00    -0.195 C  
HETATM   17  C   UNL     1      -6.439  12.792  69.515  1.00  0.00    -0.077 C  
ENDROOT
BRANCH   8  18
HETATM   18  C   UNL     1      -7.765  15.103  66.750  1.00  0.00     0.098 C  
BRANCH  18  19
HETATM   19  C   UNL     1      -9.121  15.521  67.208  1.00  0.00    -0.215 A  
HETATM   20  C   UNL     1     -10.430  16.707  68.839  1.00  0.00    -0.322 A  
HETATM   21  C   UNL     1     -11.586  16.213  68.249  1.00  0.00    -0.181 A  
HETATM   22  C   UNL     1     -10.287  15.052  66.604  1.00  0.00    -0.278 A  
HETATM   23  C   UNL     1     -11.536  15.371  67.125  1.00  0.00    -0.058 A  
HETATM   24  C   UNL     1      -9.196  16.368  68.317  1.00  0.00    -0.207 A  
ENDBRANCH  18  19
ENDBRANCH   8  18
BRANCH  13  25
HETATM   25  N   UNL     1      -7.353  10.416  66.746  1.00  0.00    -0.105 N  
HETATM   26  O   UNL     1      -9.133   9.292  67.776  1.00  0.00    -0.127 OA 
HETATM   27  C   UNL     1      -8.114   9.257  67.092  1.00  0.00    -0.109 C  
HETATM   28  H   UNL     1      -6.673  10.381  65.986  1.00  0.00     0.000 HD 
BRANCH  27  29
HETATM   29  C   UNL     1      -7.513   7.939  66.568  1.00  0.00    -0.088 C  
HETATM   30  C   UNL     1      -8.377   6.805  65.798  1.00  0.00    -0.143 C  
HETATM   31  N   UNL     1      -7.567   5.836  64.418  1.00  0.00    -0.079 NA 
HETATM   32  C   UNL     1      -6.296   5.125  63.677  1.00  0.00    -0.022 C  
HETATM   33  C   UNL     1      -7.854   6.847  63.649  1.00  0.00    -0.107 C  
HETATM   34  C   UNL     1      -8.954   5.272  63.865  1.00  0.00     0.168 C  
HETATM   35  C   UNL     1      -8.525   4.220  65.372  1.00  0.00    -0.118 A  
HETATM   36  C   UNL     1      -9.224   3.338  66.160  1.00  0.00    -0.149 A  
HETATM   37  N   UNL     1      -8.492   3.141  67.341  1.00  0.00    -0.088 NA 
HETATM   38  H   UNL     1      -8.811   2.531  68.094  1.00  0.00     0.000 HD 
HETATM   39  C   UNL     1      -7.292   3.850  67.397  1.00  0.00    -0.068 A  
HETATM   40  C   UNL     1      -6.331   4.018  68.406  1.00  0.00    -0.036 A  
HETATM   41  C   UNL     1      -5.262   4.939  68.198  1.00  0.00    -0.010 A  
HETATM   42  C   UNL     1      -5.143   5.783  67.075  1.00  0.00    -0.005 A  
HETATM   43  C   UNL     1      -6.122   5.728  66.091  1.00  0.00    -0.029 A  
HETATM   44  C   UNL     1      -7.193   4.579  66.233  1.00  0.00    -0.076 A  
HETATM   45  C   UNL     1      -6.398   7.108  64.853  1.00  0.00    -0.037 C  
HETATM   46  C   UNL     1      -6.516   8.276  65.505  1.00  0.00    -0.049 C  
ENDBRANCH  27  29
ENDBRANCH  13  25
TORSDOF 4
ENDMDL
MODEL      119
REMARK 921   NORMALIZED FREE ENERGY PREDICTED BY IDOCK:   -1.79 KCAL/MOL
REMARK 922        TOTAL FREE ENERGY PREDICTED BY IDOCK:   -3.07 KCAL/MOL
REMARK 923 INTER-LIGAND FREE ENERGY PREDICTED BY IDOCK:   -5.72 KCAL/MOL
REMARK 924 INTRA-LIGAND FREE ENERGY PREDICTED BY IDOCK:    2.65 KCAL/MOL
REMARK 927      BINDING AFFINITY PREDICTED BY RF-SCORE:    0.00 PKD
ROOT
HETATM    1  C   UNL     1      -9.511  16.350  66.571  1.00  0.00    -0.272 A  
HETATM    2  C   UNL     1     -10.511  16.860  65.521  1.00  0.00    -0.220 A  
HETATM    3  C   UNL     1     -10.218  18.405  65.463  1.00  0.00     0.259 A  
HETATM    4  C   UNL     1      -9.220  18.676  66.583  1.00  0.00    -0.321 A  
HETATM    5  N   UNL     1      -9.330  17.495  67.409  1.00  0.00    -0.247 N  
HETATM    6  C   UNL     1      -8.575  17.408  68.534  1.00  0.00    -0.270 C  
HETATM    7  O   UNL     1      -8.558  18.324  69.354  1.00  0.00     0.182 OA 
HETATM    8  C   UNL     1      -7.854  16.047  68.720  1.00  0.00    -0.190 C  
HETATM    9  O   UNL     1      -9.278  14.078  68.416  1.00  0.00    -0.196 OA 
HETATM   10  N   UNL     1      -7.843  15.075  67.350  1.00  0.00    -0.186 N  
HETATM   11  C   UNL     1      -7.542  13.682  67.280  1.00  0.00    -0.055 C  
HETATM   12  H   UNL     1      -9.458  13.137  66.442  1.00  0.00     0.000 HD 
HETATM   13  C   UNL     1      -7.894  13.203  68.638  1.00  0.00    -0.056 C  
HETATM   14  O   UNL     1      -7.103  13.053  66.330  1.00  0.00     0.898 OA 
HETATM   15  O   UNL     1      -9.632  14.006  66.101  1.00  0.00    -0.286 OA 
HETATM   16  C   UNL     1      -6.339  13.473  68.956  1.00  0.00    -0.099 C  
HETATM   17  C   UNL     1      -9.212  14.860  67.156  1.00  0.00    -0.220 C  
ENDROOT
BRANCH   8  18
HETATM   18  C   UNL     1      -6.595  16.379  69.520  1.00  0.00    -0.210 C  
BRANCH  18  19
HETATM   19  C   UNL     1      -6.167  17.804  69.423  1.00  0.00    -0.244 A  
HETATM   20  C   UNL     1      -5.480  19.619  68.004  1.00  0.00    -0.204 A  
HETATM   21  C   UNL     1      -5.204  20.379  69.134  1.00  0.00    -0.278 A  
HETATM   22  C   UNL     1      -5.914  18.583  70.552  1.00  0.00     0.028 A  
HETATM   23  C   UNL     1      -5.410  19.872  70.429  1.00  0.00    -0.265 A  
HETATM   24  C   UNL     1      -5.969  18.334  68.146  1.00  0.00    -0.174 A  
ENDBRANCH  18  19
ENDBRANCH   8  18
BRANCH  13  25
HETATM   25  N   UNL     1      -8.193  11.958  69.321  1.00  0.00    -0.221 N  
HETATM   26  O   UNL     1      -5.985  11.176  69.215  1.00  0.00    -0.042 OA 
HETATM   27  C   UNL     1      -7.177  10.957  69.413  1.00  0.00    -0.126 C  
HETATM   28  H   UNL     1      -9.114  11.801  69.730  1.00  0.00     0.000 HD 
BRANCH  27  29
HETATM   29  C   UNL     1      -7.716   9.551  69.742  1.00  0.00    -0.123 C  
HETATM   30  C   UNL     1      -9.204   9.276  70.321  1.00  0.00    -0.273 C  
HETATM   31  N   UNL     1     -10.109   7.728  69.786  1.00  0.00    -0.190 NA 
HETATM   32  C   UNL     1     -10.186   6.164  69.322  1.00  0.00    -0.201 C  
HETATM   33  C   UNL     1     -10.443   8.391  68.716  1.00  0.00    -0.178 C  
HETATM   34  C   UNL     1     -11.521   8.251  70.314  1.00  0.00    -0.065 C  
HETATM   35  C   UNL     1     -10.588   7.640  71.836  1.00  0.00    -0.257 A  
HETATM   36  C   UNL     1     -10.757   7.787  73.191  1.00  0.00    -0.351 A  
HETATM   37  N   UNL     1      -9.558   7.416  73.819  1.00  0.00    -0.277 NA 
HETATM   38  H   UNL     1      -9.430   7.448  74.830  1.00  0.00     0.000 HD 
HETATM   39  C   UNL     1      -8.556   7.000  72.941  1.00  0.00    -0.114 A  
HETATM   40  C   UNL     1      -7.210   6.651  73.129  1.00  0.00    -0.077 A  
HETATM   41  C   UNL     1      -6.394   6.400  71.987  1.00  0.00    -0.046 A  
HETATM   42  C   UNL     1      -6.815   6.571  70.652  1.00  0.00    -0.063 A  
HETATM   43  C   UNL     1      -8.109   7.013  70.411  1.00  0.00    -0.119 A  
HETATM   44  C   UNL     1      -9.063   7.104  71.665  1.00  0.00    -0.141 A  
HETATM   45  C   UNL     1      -8.635   7.785  68.787  1.00  0.00    -0.129 C  
HETATM   46  C   UNL     1      -7.783   8.773  68.466  1.00  0.00    -0.099 C  
ENDBRANCH  27  29
ENDBRANCH  13  25
TORSDOF 4
ENDMDL
MODEL      120
REMARK 921   NORMALIZED FREE ENERGY PREDICTED BY IDOCK:   -1.70 KCAL/MOL
REMARK 922        TOTAL FREE ENERGY PREDICTED BY IDOCK:   -2.96 KCAL/MOL
REMARK 923 INTER-LIGAND FREE ENERGY PREDICTED BY IDOCK:   -4.02 KCAL/MOL
REMARK 924 INTRA-LIGAND FREE ENERGY PREDICTED BY IDOCK:    1.06 KCAL/MOL
REMARK 927      BINDING AFFINITY PREDICTED BY RF-SCORE:    0.00 PKD
ROOT
HETATM    1  C   UNL     1      -9.886  17.853  69.009  1.00  0.00    -0.231 A  
HETATM    2  C   UNL     1     -10.740  18.796  69.872  1.00  0.00     1.675 A  
HETATM    3  C   UNL     1      -9.991  20.174  69.752  1.00  0.00     0.218 A  
HETATM    4  C   UNL     1      -8.704  19.877  68.992  1.00  0.00     0.079 A  
HETATM    5  N   UNL     1      -8.585  18.441  69.102  1.00  0.00    -0.002 N  
HETATM    6  C   UNL     1      -7.513  17.826  68.540  1.00  0.00    -0.272 C  
HETATM    7  O   UNL     1      -6.370  18.221  68.764  1.00  0.00    -0.204 OA 
HETATM    8  C   UNL     1      -7.861  16.562  67.710  1.00  0.00    -0.164 C  
HETATM    9  O   UNL     1      -9.349  14.972  68.830  1.00  0.00    -0.187 OA 
HETATM   10  N   UNL     1      -9.494  16.390  67.361  1.00  0.00    -0.226 N  
HETATM   11  C   UNL     1     -10.161  15.216  66.895  1.00  0.00    -0.255 C  
HETATM   12  H   UNL     1     -11.523  15.120  68.570  1.00  0.00     0.000 HD 
HETATM   13  C   UNL     1      -9.300  14.126  67.412  1.00  0.00    -0.215 C  
HETATM   14  O   UNL     1     -11.185  15.143  66.235  1.00  0.00    -0.337 OA 
HETATM   15  O   UNL     1     -11.434  16.042  68.782  1.00  0.00    -0.360 OA 
HETATM   16  C   UNL     1      -8.586  14.232  65.972  1.00  0.00     0.865 C  
HETATM   17  C   UNL     1     -10.039  16.273  68.645  1.00  0.00    -0.233 C  
ENDROOT
BRANCH   8  18
HETATM   18  C   UNL     1      -6.765  16.480  66.648  1.00  0.00    -0.117 C  
BRANCH  18  19
HETATM   19  C   UNL     1      -6.498  17.767  65.944  1.00  0.00    -0.264 A  
HETATM   20  C   UNL     1      -7.347  19.905  65.245  1.00  0.00    -0.067 A  
HETATM   21  C   UNL     1      -6.179  20.116  64.522  1.00  0.00    -0.323 A  
HETATM   22  C   UNL     1      -5.317  17.998  65.239  1.00  0.00    -0.118 A  
HETATM   23  C   UNL     1      -5.146  19.163  64.500  1.00  0.00    -0.215 A  
HETATM   24  C   UNL     1      -7.506  18.734  65.962  1.00  0.00    -0.271 A  
ENDBRANCH  18  19
ENDBRANCH   8  18
BRANCH  13  25
HETATM   25  N   UNL     1      -9.372  12.701  67.676  1.00  0.00    -0.184 N  
HETATM   26  O   UNL     1      -7.142  12.305  67.068  1.00  0.00    -0.127 OA 
HETATM   27  C   UNL     1      -8.264  11.872  67.318  1.00  0.00    -0.170 C  
HETATM   28  H   UNL     1     -10.201  12.297  68.112  1.00  0.00     0.000 HD 
BRANCH  27  29
HETATM   29  C   UNL     1      -8.612  10.374  67.225  1.00  0.00    -0.126 C  
HETATM   30  C   UNL     1      -8.501   9.350  68.474  1.00  0.00    -0.119 C  
HETATM   31  N   UNL     1      -9.757   7.971  68.626  1.00  0.00    -0.156 NA 
HETATM   32  C   UNL     1     -10.784   6.853  68.022  1.00  0.00    -0.218 C  
HETATM   33  C   UNL     1     -10.541   8.855  69.174  1.00  0.00    -0.195 C  
HETATM   34  C   UNL     1      -9.375   7.654  70.142  1.00  0.00    -0.157 C  
HETATM   35  C   UNL     1      -8.040   6.839  69.086  1.00  0.00    -0.120 A  
HETATM   36  C   UNL     1      -6.797   6.315  69.343  1.00  0.00    -0.065 A  
HETATM   37  N   UNL     1      -6.123   6.180  68.120  1.00  0.00    -0.023 NA 
HETATM   38  H   UNL     1      -5.172   5.819  68.048  1.00  0.00     0.000 HD 
HETATM   39  C   UNL     1      -6.866   6.585  67.009  1.00  0.00    -0.066 A  
HETATM   40  C   UNL     1      -6.550   6.712  65.648  1.00  0.00    -0.050 A  
HETATM   41  C   UNL     1      -7.506   7.298  64.767  1.00  0.00    -0.093 A  
HETATM   42  C   UNL     1      -8.733   7.859  65.179  1.00  0.00     0.015 A  
HETATM   43  C   UNL     1      -9.050   7.849  66.531  1.00  0.00    -0.209 A  
HETATM   44  C   UNL     1      -8.082   7.033  67.472  1.00  0.00    -0.113 A  
HETATM   45  C   UNL     1     -10.332   8.991  67.282  1.00  0.00    -0.342 C  
HETATM   46  C   UNL     1     -10.071  10.257  66.918  1.00  0.00    -0.274 C  
ENDBRANCH  27  29
ENDBRANCH  13  25
TORSDOF 4
ENDMDL
MODEL      121
REMARK 921   NORMALIZED FREE ENERGY PREDICTED BY IDOCK:   -1.62 KCAL/MOL
REMARK 922        TOTAL FREE ENERGY PREDICTED BY IDOCK:   -2.86 KCAL/MOL
REMARK 923 INTER-LIGAND FREE ENERGY PREDICTED BY IDOCK:   -3.53 KCAL/MOL
REMARK 924 INTRA-LIGAND FREE ENERGY PREDICTED BY IDOCK:    0.67 KCAL/MOL
REMARK 927      BINDING AFFINITY PREDICTED BY RF-SCORE:    0.00 PKD
ROOT
HETATM    1  C   UNL     1     -10.078  17.359  69.281  1.00  0.00    -0.162 A  
HETATM    2  C   UNL     1     -10.898  18.195  70.276  1.00  0.00     2.016 A  
HETATM    3  C   UNL     1     -10.285  19.636  70.131  1.00  0.00     0.655 A  
HETATM    4  C   UNL     1      -9.076  19.478  69.216  1.00  0.00    -0.013 A  
HETATM    5  N   UNL     1      -8.828  18.054  69.250  1.00  0.00     0.163 N  
HETATM    6  C   UNL     1      -7.782  17.554  68.543  1.00  0.00    -0.272 C  
HETATM    7  O   UNL     1      -6.658  18.038  68.651  1.00  0.00    -0.211 OA 
HETATM    8  C   UNL     1      -8.120  16.292  67.704  1.00  0.00    -0.161 C  
HETATM    9  O   UNL     1      -9.331  14.543  68.917  1.00  0.00    -0.199 OA 
HETATM   10  N   UNL     1      -9.764  15.991  67.537  1.00  0.00    -0.227 N  
HETATM   11  C   UNL     1     -10.382  14.781  67.101  1.00  0.00    -0.255 C  
HETATM   12  H   UNL     1     -11.525  14.511  68.915  1.00  0.00     0.000 HD 
HETATM   13  C   UNL     1      -9.379  13.752  67.467  1.00  0.00    -0.222 C  
HETATM   14  O   UNL     1     -11.467  14.641  66.560  1.00  0.00    -0.349 OA 
HETATM   15  O   UNL     1     -11.487  15.429  69.155  1.00  0.00    -0.289 OA 
HETATM   16  C   UNL     1      -8.851  13.968  65.961  1.00  0.00     0.505 C  
HETATM   17  C   UNL     1     -10.142  15.785  68.869  1.00  0.00    -0.222 C  
ENDROOT
BRANCH   8  18
HETATM   18  C   UNL     1      -7.154  16.342  66.521  1.00  0.00     0.026 C  
BRANCH  18  19
HETATM   19  C   UNL     1      -6.849  17.718  66.038  1.00  0.00    -0.327 A  
HETATM   20  C   UNL     1      -5.192  19.433  65.724  1.00  0.00    -0.172 A  
HETATM   21  C   UNL     1      -6.195  20.310  65.333  1.00  0.00    -0.272 A  
HETATM   22  C   UNL     1      -7.847  18.597  65.616  1.00  0.00     0.236 A  
HETATM   23  C   UNL     1      -7.542  19.910  65.278  1.00  0.00     0.144 A  
HETATM   24  C   UNL     1      -5.515  18.134  66.071  1.00  0.00    -0.219 A  
ENDBRANCH  18  19
ENDBRANCH   8  18
BRANCH  13  25
HETATM   25  N   UNL     1      -9.302  12.318  67.676  1.00  0.00    -0.180 N  
HETATM   26  O   UNL     1     -11.331  12.211  68.846  1.00  0.00    -0.241 OA 
HETATM   27  C   UNL     1     -10.271  11.687  68.517  1.00  0.00    -0.210 C  
HETATM   28  H   UNL     1      -8.568  11.769  67.229  1.00  0.00     0.000 HD 
BRANCH  27  29
HETATM   29  C   UNL     1      -9.845  10.294  69.020  1.00  0.00    -0.215 C  
HETATM   30  C   UNL     1     -10.762   8.968  68.866  1.00  0.00    -0.149 C  
HETATM   31  N   UNL     1      -9.927   7.324  68.552  1.00  0.00    -0.157 NA 
HETATM   32  C   UNL     1      -8.703   6.251  68.699  1.00  0.00    -0.120 C  
HETATM   33  C   UNL     1      -9.890   7.674  67.298  1.00  0.00    -0.186 C  
HETATM   34  C   UNL     1     -11.281   6.606  68.110  1.00  0.00    -0.111 C  
HETATM   35  C   UNL     1     -11.313   6.664  69.996  1.00  0.00    -0.440 A  
HETATM   36  C   UNL     1     -12.283   6.475  70.949  1.00  0.00    -0.161 A  
HETATM   37  N   UNL     1     -11.809   6.999  72.160  1.00  0.00    -0.338 NA 
HETATM   38  H   UNL     1     -12.355   6.987  73.021  1.00  0.00     0.000 HD 
HETATM   39  C   UNL     1     -10.524   7.540  72.086  1.00  0.00    -0.214 A  
HETATM   40  C   UNL     1      -9.731   8.240  73.009  1.00  0.00    -0.276 A  
HETATM   41  C   UNL     1      -8.491   8.795  72.575  1.00  0.00     0.055 A  
HETATM   42  C   UNL     1      -8.032   8.778  71.242  1.00  0.00    -0.176 A  
HETATM   43  C   UNL     1      -8.827   8.185  70.269  1.00  0.00    -0.141 A  
HETATM   44  C   UNL     1     -10.100   7.408  70.783  1.00  0.00    -0.190 A  
HETATM   45  C   UNL     1      -8.632   8.542  68.440  1.00  0.00    -0.139 C  
HETATM   46  C   UNL     1      -8.640   9.871  68.241  1.00  0.00    -0.115 C  
ENDBRANCH  27  29
ENDBRANCH  13  25
TORSDOF 4
ENDMDL
MODEL      122
REMARK 921   NORMALIZED FREE ENERGY PREDICTED BY IDOCK:   -1.59 KCAL/MOL
REMARK 922        TOTAL FREE ENERGY PREDICTED BY IDOCK:   -2.82 KCAL/MOL
REMARK 923 INTER-LIGAND FREE ENERGY PREDICTED BY IDOCK:   -5.89 KCAL/MOL
REMARK 924 INTRA-LIGAND FREE ENERGY PREDICTED BY IDOCK:    3.07 KCAL/MOL
REMARK 927      BINDING AFFINITY PREDICTED BY RF-SCORE:    0.00 PKD
ROOT
HETATM    1  C   UNL     1     -11.139  13.044  65.785  1.00  0.00    -0.278 A  
HETATM    2  C   UNL     1     -12.505  13.369  65.161  1.00  0.00    -0.509 A  
HETATM    3  C   UNL     1     -12.317  14.833  64.618  1.00  0.00    -0.346 A  
HETATM    4  C   UNL     1     -10.949  15.283  65.117  1.00  0.00    -0.416 A  
HETATM    5  N   UNL     1     -10.659  14.336  66.169  1.00  0.00    -0.288 N  
HETATM    6  C   UNL     1      -9.496  14.457  66.859  1.00  0.00    -0.258 C  
HETATM    7  O   UNL     1      -9.164  15.534  67.351  1.00  0.00    -0.198 OA 
HETATM    8  C   UNL     1      -8.719  13.127  67.047  1.00  0.00    -0.193 C  
HETATM    9  O   UNL     1     -10.071  11.249  67.848  1.00  0.00    -0.172 OA 
HETATM   10  N   UNL     1      -9.256  11.867  66.075  1.00  0.00    -0.206 N  
HETATM   11  C   UNL     1      -8.966  10.478  66.222  1.00  0.00    -0.158 C  
HETATM   12  H   UNL     1     -11.038   9.893  66.420  1.00  0.00     0.000 HD 
HETATM   13  C   UNL     1      -8.694  10.352  67.673  1.00  0.00    -0.118 C  
HETATM   14  O   UNL     1      -8.949   9.616  65.357  1.00  0.00    -0.163 OA 
HETATM   15  O   UNL     1     -11.368  10.670  65.985  1.00  0.00     0.180 OA 
HETATM   16  C   UNL     1      -7.160  10.576  67.237  1.00  0.00    -0.088 C  
HETATM   17  C   UNL     1     -10.571  11.712  66.529  1.00  0.00    -0.253 C  
ENDROOT
BRANCH   8  18
HETATM   18  C   UNL     1      -7.251  13.544  67.141  1.00  0.00     0.164 C  
BRANCH  18  19
HETATM   19  C   UNL     1      -7.035  14.892  67.740  1.00  0.00    -0.193 A  
HETATM   20  C   UNL     1      -6.355  17.173  67.399  1.00  0.00    -0.174 A  
HETATM   21  C   UNL     1      -6.438  17.387  68.769  1.00  0.00    -0.201 A  
HETATM   22  C   UNL     1      -7.143  15.123  69.111  1.00  0.00    -0.154 A  
HETATM   23  C   UNL     1      -6.827  16.364  69.651  1.00  0.00    -0.105 A  
HETATM   24  C   UNL     1      -6.661  15.928  66.881  1.00  0.00     0.113 A  
ENDBRANCH  18  19
ENDBRANCH   8  18
BRANCH  13  25
HETATM   25  N   UNL     1      -8.633   9.323  68.695  1.00  0.00    -0.126 N  
HETATM   26  O   UNL     1      -6.825  10.307  69.815  1.00  0.00    -0.086 OA 
HETATM   27  C   UNL     1      -7.550   9.335  69.627  1.00  0.00    -0.084 C  
HETATM   28  H   UNL     1      -9.354   8.603  68.747  1.00  0.00     0.000 HD 
BRANCH  27  29
HETATM   29  C   UNL     1      -7.339   7.992  70.352  1.00  0.00    -0.063 C  
HETATM   30  C   UNL     1      -8.309   6.709  70.163  1.00  0.00    -0.135 C  
HETATM   31  N   UNL     1      -7.560   4.996  70.201  1.00  0.00    -0.059 NA 
HETATM   32  C   UNL     1      -6.474   3.883  70.704  1.00  0.00    -0.031 C  
HETATM   33  C   UNL     1      -7.255   5.189  68.950  1.00  0.00    -0.061 C  
HETATM   34  C   UNL     1      -8.855   4.305  69.578  1.00  0.00    -0.091 C  
HETATM   35  C   UNL     1      -9.244   4.592  71.402  1.00  0.00    -0.192 A  
HETATM   36  C   UNL     1     -10.391   4.574  72.156  1.00  0.00    -0.162 A  
HETATM   37  N   UNL     1     -10.119   5.214  73.374  1.00  0.00    -0.168 NA 
HETATM   38  H   UNL     1     -10.820   5.336  74.104  1.00  0.00     0.000 HD 
HETATM   39  C   UNL     1      -8.806   5.671  73.501  1.00  0.00    -0.122 A  
HETATM   40  C   UNL     1      -8.153   6.433  74.482  1.00  0.00    -0.122 A  
HETATM   41  C   UNL     1      -6.814   6.862  74.247  1.00  0.00    -0.086 A  
HETATM   42  C   UNL     1      -6.110   6.659  73.042  1.00  0.00    -0.057 A  
HETATM   43  C   UNL     1      -6.746   5.997  72.000  1.00  0.00    -0.064 A  
HETATM   44  C   UNL     1      -8.151   5.359  72.330  1.00  0.00    -0.107 A  
HETATM   45  C   UNL     1      -6.176   6.119  70.220  1.00  0.00    -0.031 C  
HETATM   46  C   UNL     1      -6.043   7.412  69.881  1.00  0.00    -0.027 C  
ENDBRANCH  27  29
ENDBRANCH  13  25
TORSDOF 4
ENDMDL
MODEL      123
REMARK 921   NORMALIZED FREE ENERGY PREDICTED BY IDOCK:   -1.44 KCAL/MOL
REMARK 922        TOTAL FREE ENERGY PREDICTED BY IDOCK:   -2.64 KCAL/MOL
REMARK 923 INTER-LIGAND FREE ENERGY PREDICTED BY IDOCK:   -2.24 KCAL/MOL
REMARK 924 INTRA-LIGAND FREE ENERGY PREDICTED BY IDOCK:   -0.40 KCAL/MOL
REMARK 927      BINDING AFFINITY PREDICTED BY RF-SCORE:    0.00 PKD
ROOT
HETATM    1  C   UNL     1      -9.787   9.364  67.755  1.00  0.00    -0.170 A  
HETATM    2  C   UNL     1     -10.935   8.760  68.580  1.00  0.00     0.091 A  
HETATM    3  C   UNL     1     -11.056   7.296  68.015  1.00  0.00     0.022 A  
HETATM    4  C   UNL     1     -10.109   7.237  66.822  1.00  0.00    -0.221 A  
HETATM    5  N   UNL     1      -9.869   8.632  66.528  1.00  0.00    -0.259 N  
HETATM    6  C   UNL     1      -9.064   8.954  65.483  1.00  0.00    -0.190 C  
HETATM    7  O   UNL     1      -9.246   8.459  64.372  1.00  0.00     0.491 OA 
HETATM    8  C   UNL     1      -8.008  10.045  65.799  1.00  0.00    -0.126 C  
HETATM    9  O   UNL     1      -8.886  12.033  66.928  1.00  0.00    -0.186 OA 
HETATM   10  N   UNL     1      -7.811  10.367  67.436  1.00  0.00    -0.102 N  
HETATM   11  C   UNL     1      -7.163  11.494  68.024  1.00  0.00    -0.085 C  
HETATM   12  H   UNL     1      -8.911  12.141  69.119  1.00  0.00     0.000 HD 
HETATM   13  C   UNL     1      -7.313  12.537  66.983  1.00  0.00     0.020 C  
HETATM   14  O   UNL     1      -6.622  11.566  69.116  1.00  0.00    -0.083 OA 
HETATM   15  O   UNL     1      -9.320  11.284  69.105  1.00  0.00    -0.062 OA 
HETATM   16  C   UNL     1      -5.868  12.023  66.494  1.00  0.00     0.324 C  
HETATM   17  C   UNL     1      -9.085  10.833  67.779  1.00  0.00    -0.151 C  
ENDROOT
BRANCH   8  18
HETATM   18  C   UNL     1      -6.841   9.740  64.861  1.00  0.00    -0.117 C  
BRANCH  18  19
HETATM   19  C   UNL     1      -6.211   8.407  65.081  1.00  0.00    -0.052 A  
HETATM   20  C   UNL     1      -5.677   6.245  64.173  1.00  0.00    -0.022 A  
HETATM   21  C   UNL     1      -5.227   5.846  65.425  1.00  0.00    -0.013 A  
HETATM   22  C   UNL     1      -5.731   8.008  66.328  1.00  0.00    -0.040 A  
HETATM   23  C   UNL     1      -5.252   6.718  66.528  1.00  0.00    -0.017 A  
HETATM   24  C   UNL     1      -6.163   7.527  63.996  1.00  0.00    -0.049 A  
ENDBRANCH  18  19
ENDBRANCH   8  18
BRANCH  13  25
HETATM   25  N   UNL     1      -7.246  13.981  66.856  1.00  0.00    -0.006 N  
HETATM   26  O   UNL     1      -6.780  14.326  69.128  1.00  0.00    -0.105 OA 
HETATM   27  C   UNL     1      -7.123  14.776  68.038  1.00  0.00    -0.138 C  
HETATM   28  H   UNL     1      -7.286  14.423  65.937  1.00  0.00     0.000 HD 
BRANCH  27  29
HETATM   29  C   UNL     1      -7.506  16.255  67.836  1.00  0.00    -0.142 C  
HETATM   30  C   UNL     1      -6.459  17.481  67.996  1.00  0.00    -0.172 C  
HETATM   31  N   UNL     1      -6.630  18.966  66.871  1.00  0.00    -0.189 NA 
HETATM   32  C   UNL     1      -7.481  20.036  65.977  1.00  0.00    -0.309 C  
HETATM   33  C   UNL     1      -5.972  18.270  65.988  1.00  0.00    -0.198 C  
HETATM   34  C   UNL     1      -5.178  19.526  67.224  1.00  0.00    -0.165 C  
HETATM   35  C   UNL     1      -6.291  20.012  68.669  1.00  0.00    -0.332 A  
HETATM   36  C   UNL     1      -6.068  20.467  69.945  1.00  0.00    -0.313 A  
HETATM   37  N   UNL     1      -7.256  20.313  70.673  1.00  0.00     0.255 NA 
HETATM   38  H   UNL     1      -7.341  20.571  71.656  1.00  0.00     0.000 HD 
HETATM   39  C   UNL     1      -8.313  19.774  69.938  1.00  0.00     0.828 A  
HETATM   40  C   UNL     1      -9.610  19.368  70.291  1.00  0.00     0.999 A  
HETATM   41  C   UNL     1     -10.419  18.713  69.317  1.00  0.00     0.381 A  
HETATM   42  C   UNL     1      -9.978  18.346  68.029  1.00  0.00    -0.374 A  
HETATM   43  C   UNL     1      -8.670  18.634  67.663  1.00  0.00    -0.288 A  
HETATM   44  C   UNL     1      -7.842  19.525  68.668  1.00  0.00    -0.383 A  
HETATM   45  C   UNL     1      -7.794  17.767  66.253  1.00  0.00    -0.299 C  
HETATM   46  C   UNL     1      -7.907  16.437  66.406  1.00  0.00    -0.297 C  
ENDBRANCH  27  29
ENDBRANCH  13  25
TORSDOF 4
ENDMDL
MODEL      124
REMARK 921   NORMALIZED FREE ENERGY PREDICTED BY IDOCK:   -0.67 KCAL/MOL
REMARK 922        TOTAL FREE ENERGY PREDICTED BY IDOCK:   -1.69 KCAL/MOL
REMARK 923 INTER-LIGAND FREE ENERGY PREDICTED BY IDOCK:   -1.36 KCAL/MOL
REMARK 924 INTRA-LIGAND FREE ENERGY PREDICTED BY IDOCK:   -0.33 KCAL/MOL
REMARK 927      BINDING AFFINITY PREDICTED BY RF-SCORE:    0.00 PKD
ROOT
HETATM    1  C   UNL     1      -6.982   8.077  66.695  1.00  0.00    -0.072 A  
HETATM    2  C   UNL     1      -6.305   7.124  65.698  1.00  0.00    -0.040 A  
HETATM    3  C   UNL     1      -6.189   5.778  66.503  1.00  0.00    -0.034 A  
HETATM    4  C   UNL     1      -6.639   6.108  67.921  1.00  0.00    -0.059 A  
HETATM    5  N   UNL     1      -6.563   7.551  67.958  1.00  0.00    -0.052 N  
HETATM    6  C   UNL     1      -6.884   8.196  69.109  1.00  0.00    -0.055 C  
HETATM    7  O   UNL     1      -6.383   7.860  70.181  1.00  0.00    -0.033 OA 
HETATM    8  C   UNL     1      -7.824   9.416  68.921  1.00  0.00    -0.083 C  
HETATM    9  O   UNL     1      -7.150  10.972  67.154  1.00  0.00    -0.091 OA 
HETATM   10  N   UNL     1      -8.552   9.503  67.410  1.00  0.00    -0.125 N  
HETATM   11  C   UNL     1      -9.209  10.630  66.830  1.00  0.00    -0.156 C  
HETATM   12  H   UNL     1      -7.904  10.718  65.109  1.00  0.00     0.000 HD 
HETATM   13  C   UNL     1      -8.551  11.774  67.505  1.00  0.00    -0.157 C  
HETATM   14  O   UNL     1     -10.092  10.636  65.988  1.00  0.00    -0.231 OA 
HETATM   15  O   UNL     1      -7.639   9.809  65.180  1.00  0.00    -0.113 OA 
HETATM   16  C   UNL     1      -9.778  11.655  68.541  1.00  0.00    -0.187 C  
HETATM   17  C   UNL     1      -7.437   9.636  66.575  1.00  0.00    -0.094 C  
ENDROOT
BRANCH   8  18
HETATM   18  C   UNL     1      -8.603   9.513  70.232  1.00  0.00    -0.258 C  
BRANCH  18  19
HETATM   19  C   UNL     1      -9.728   8.542  70.349  1.00  0.00    -0.193 A  
HETATM   20  C   UNL     1     -10.754   6.527  69.533  1.00  0.00    -0.322 A  
HETATM   21  C   UNL     1     -11.847   6.767  70.357  1.00  0.00    -0.395 A  
HETATM   22  C   UNL     1     -10.816   8.761  71.194  1.00  0.00    -0.335 A  
HETATM   23  C   UNL     1     -11.901   7.893  71.197  1.00  0.00    -0.307 A  
HETATM   24  C   UNL     1      -9.690   7.408  69.533  1.00  0.00    -0.159 A  
ENDBRANCH  18  19
ENDBRANCH   8  18
BRANCH  13  25
HETATM   25  N   UNL     1      -8.370  13.202  67.321  1.00  0.00    -0.218 N  
HETATM   26  O   UNL     1      -6.676  13.364  68.934  1.00  0.00    -0.100 OA 
HETATM   27  C   UNL     1      -7.503  13.911  68.209  1.00  0.00    -0.118 C  
HETATM   28  H   UNL     1      -8.854  13.692  66.569  1.00  0.00     0.000 HD 
BRANCH  27  29
HETATM   29  C   UNL     1      -7.727  15.435  68.213  1.00  0.00    -0.115 C  
HETATM   30  C   UNL     1      -9.139  16.133  67.836  1.00  0.00    -0.192 C  
HETATM   31  N   UNL     1      -9.649  17.688  68.744  1.00  0.00    -0.298 NA 
HETATM   32  C   UNL     1      -9.353  19.100  69.512  1.00  0.00     0.208 C  
HETATM   33  C   UNL     1     -10.075  16.899  69.689  1.00  0.00     0.018 C  
HETATM   34  C   UNL     1     -11.165  17.598  68.254  1.00  0.00     0.347 C  
HETATM   35  C   UNL     1     -10.188  18.307  66.803  1.00  0.00    -0.393 A  
HETATM   36  C   UNL     1     -10.446  18.489  65.466  1.00  0.00     0.073 A  
HETATM   37  N   UNL     1      -9.224  18.723  64.818  1.00  0.00     3.192 NA 
HETATM   38  H   UNL     1      -9.152  18.879  63.813  1.00  0.00     0.000 HD 
HETATM   39  C   UNL     1      -8.116  18.724  65.667  1.00  0.00     0.416 A  
HETATM   40  C   UNL     1      -6.736  18.814  65.430  1.00  0.00    -0.251 A  
HETATM   41  C   UNL     1      -5.834  18.640  66.521  1.00  0.00    -0.176 A  
HETATM   42  C   UNL     1      -6.222  18.283  67.829  1.00  0.00    -0.180 A  
HETATM   43  C   UNL     1      -7.570  18.083  68.094  1.00  0.00    -0.260 A  
HETATM   44  C   UNL     1      -8.575  18.462  66.938  1.00  0.00    -0.276 A  
HETATM   45  C   UNL     1      -8.182  17.113  69.576  1.00  0.00     0.546 C  
HETATM   46  C   UNL     1      -7.561  15.922  69.618  1.00  0.00    -0.027 C  
ENDBRANCH  27  29
ENDBRANCH  13  25
TORSDOF 4
ENDMDL
MODEL      125
REMARK 921   NORMALIZED FREE ENERGY PREDICTED BY IDOCK:   -0.67 KCAL/MOL
REMARK 922        TOTAL FREE ENERGY PREDICTED BY IDOCK:   -1.69 KCAL/MOL
REMARK 923 INTER-LIGAND FREE ENERGY PREDICTED BY IDOCK:   -1.59 KCAL/MOL
REMARK 924 INTRA-LIGAND FREE ENERGY PREDICTED BY IDOCK:   -0.10 KCAL/MOL
REMARK 927      BINDING AFFINITY PREDICTED BY RF-SCORE:    0.00 PKD
ROOT
HETATM    1  C   UNL     1      -6.237  12.555  70.645  1.00  0.00     0.382 A  
HETATM    2  C   UNL     1      -5.260  13.530  71.322  1.00  0.00    -0.178 A  
HETATM    3  C   UNL     1      -5.964  14.926  71.149  1.00  0.00     0.109 A  
HETATM    4  C   UNL     1      -7.173  14.669  70.257  1.00  0.00     0.304 A  
HETATM    5  N   UNL     1      -6.874  13.383  69.668  1.00  0.00     0.053 N  
HETATM    6  C   UNL     1      -7.753  12.847  68.783  1.00  0.00     0.007 C  
HETATM    7  O   UNL     1      -8.168  13.503  67.830  1.00  0.00    -0.147 OA 
HETATM    8  C   UNL     1      -8.079  11.350  69.029  1.00  0.00    -0.005 C  
HETATM    9  O   UNL     1      -6.125   9.913  69.369  1.00  0.00    -0.040 OA 
HETATM   10  N   UNL     1      -7.582  10.769  70.524  1.00  0.00     1.009 N  
HETATM   11  C   UNL     1      -7.459   9.405  70.925  1.00  0.00    -0.072 C  
HETATM   12  H   UNL     1      -5.354   9.554  71.392  1.00  0.00     0.000 HD 
HETATM   13  C   UNL     1      -7.222   8.707  69.640  1.00  0.00    -0.052 C  
HETATM   14  O   UNL     1      -7.535   8.941  72.052  1.00  0.00    -0.314 OA 
HETATM   15  O   UNL     1      -5.379  10.496  71.512  1.00  0.00    -0.192 OA 
HETATM   16  C   UNL     1      -8.820   8.512  69.639  1.00  0.00    -0.137 C  
HETATM   17  C   UNL     1      -6.195  10.940  70.438  1.00  0.00    -0.118 C  
ENDROOT
BRANCH   8  18
HETATM   18  C   UNL     1      -9.497  11.167  68.490  1.00  0.00    -0.193 C  
BRANCH  18  19
HETATM   19  C   UNL     1     -10.564  11.280  69.524  1.00  0.00    -0.083 A  
HETATM   20  C   UNL     1     -11.989  12.727  70.812  1.00  0.00    -0.085 A  
HETATM   21  C   UNL     1     -12.416  11.628  71.547  1.00  0.00    -0.238 A  
HETATM   22  C   UNL     1     -11.020  10.178  70.247  1.00  0.00    -0.380 A  
HETATM   23  C   UNL     1     -11.935  10.334  71.282  1.00  0.00    -0.457 A  
HETATM   24  C   UNL     1     -11.068  12.555  69.796  1.00  0.00     0.110 A  
ENDBRANCH  18  19
ENDBRANCH   8  18
BRANCH  13  25
HETATM   25  N   UNL     1      -6.702   7.441  69.156  1.00  0.00    -0.050 N  
HETATM   26  O   UNL     1      -6.895   8.034  66.896  1.00  0.00    -0.069 OA 
HETATM   27  C   UNL     1      -6.732   7.170  67.753  1.00  0.00    -0.064 C  
HETATM   28  H   UNL     1      -6.321   6.755  69.808  1.00  0.00     0.000 HD 
BRANCH  27  29
HETATM   29  C   UNL     1      -6.586   5.676  67.405  1.00  0.00    -0.057 C  
HETATM   30  C   UNL     1      -7.336   4.971  66.154  1.00  0.00    -0.078 C  
HETATM   31  N   UNL     1      -6.454   3.609  65.223  1.00  0.00    -0.035 NA 
HETATM   32  C   UNL     1      -5.434   2.337  65.106  1.00  0.00    -0.009 C  
HETATM   33  C   UNL     1      -5.849   4.559  64.569  1.00  0.00    -0.014 C  
HETATM   34  C   UNL     1      -7.460   3.664  63.987  1.00  0.00    -0.066 C  
HETATM   35  C   UNL     1      -8.347   2.690  65.338  1.00  0.00    -0.096 A  
HETATM   36  C   UNL     1      -9.646   2.294  65.545  1.00  0.00     0.228 A  
HETATM   37  N   UNL     1      -9.774   1.914  66.889  1.00  0.00    -0.223 NA 
HETATM   38  H   UNL     1     -10.652   1.589  67.291  1.00  0.00     0.000 HD 
HETATM   39  C   UNL     1      -8.595   2.020  67.629  1.00  0.00    -0.090 A  
HETATM   40  C   UNL     1      -8.307   1.846  68.991  1.00  0.00    -0.072 A  
HETATM   41  C   UNL     1      -7.004   2.172  69.471  1.00  0.00    -0.033 A  
HETATM   42  C   UNL     1      -5.988   2.757  68.687  1.00  0.00    -0.024 A  
HETATM   43  C   UNL     1      -6.254   3.042  67.354  1.00  0.00    -0.032 A  
HETATM   44  C   UNL     1      -7.624   2.507  66.783  1.00  0.00    -0.070 A  
HETATM   45  C   UNL     1      -5.247   4.267  66.356  1.00  0.00    -0.009 C  
HETATM   46  C   UNL     1      -5.159   5.427  67.029  1.00  0.00    -0.005 C  
ENDBRANCH  27  29
ENDBRANCH  13  25
TORSDOF 4
ENDMDL
MODEL      126
REMARK 921   NORMALIZED FREE ENERGY PREDICTED BY IDOCK:    0.14 KCAL/MOL
REMARK 922        TOTAL FREE ENERGY PREDICTED BY IDOCK:   -0.68 KCAL/MOL
REMARK 923 INTER-LIGAND FREE ENERGY PREDICTED BY IDOCK:   -1.38 KCAL/MOL
REMARK 924 INTRA-LIGAND FREE ENERGY PREDICTED BY IDOCK:    0.70 KCAL/MOL
REMARK 927      BINDING AFFINITY PREDICTED BY RF-SCORE:    0.00 PKD
ROOT
HETATM    1  C   UNL     1     -10.424   5.314  65.824  1.00  0.00     0.048 A  
HETATM    2  C   UNL     1     -11.596   4.390  65.455  1.00  0.00     1.505 A  
HETATM    3  C   UNL     1     -10.954   3.384  64.430  1.00  0.00     0.253 A  
HETATM    4  C   UNL     1      -9.547   3.906  64.167  1.00  0.00    -0.165 A  
HETATM    5  N   UNL     1      -9.611   5.268  64.648  1.00  0.00     0.345 N  
HETATM    6  C   UNL     1      -8.508   6.052  64.546  1.00  0.00     0.025 C  
HETATM    7  O   UNL     1      -7.905   6.158  63.479  1.00  0.00    -0.103 OA 
HETATM    8  C   UNL     1      -8.167   6.851  65.832  1.00  0.00    -0.129 C  
HETATM    9  O   UNL     1     -10.055   8.046  66.832  1.00  0.00    -0.238 OA 
HETATM   10  N   UNL     1      -8.990   6.339  67.204  1.00  0.00    -0.111 N  
HETATM   11  C   UNL     1      -9.130   7.038  68.440  1.00  0.00    -0.127 C  
HETATM   12  H   UNL     1     -11.289   7.081  68.368  1.00  0.00     0.000 HD 
HETATM   13  C   UNL     1      -8.994   8.456  68.031  1.00  0.00    -0.138 C  
HETATM   14  O   UNL     1      -9.314   6.572  69.553  1.00  0.00    -0.147 OA 
HETATM   15  O   UNL     1     -11.351   6.339  67.778  1.00  0.00    -0.250 OA 
HETATM   16  C   UNL     1      -7.439   8.238  68.386  1.00  0.00    -0.096 C  
HETATM   17  C   UNL     1     -10.318   6.586  66.835  1.00  0.00    -0.243 C  
ENDROOT
BRANCH   8  18
HETATM   18  C   UNL     1      -6.650   7.034  65.786  1.00  0.00    -0.052 C  
BRANCH  18  19
HETATM   19  C   UNL     1      -6.208   8.324  65.184  1.00  0.00    -0.045 A  
HETATM   20  C   UNL     1      -6.190  10.724  65.328  1.00  0.00     0.026 A  
HETATM   21  C   UNL     1      -5.590  10.780  64.076  1.00  0.00     0.011 A  
HETATM   22  C   UNL     1      -5.580   8.387  63.940  1.00  0.00    -0.061 A  
HETATM   23  C   UNL     1      -5.280   9.613  63.356  1.00  0.00    -0.071 A  
HETATM   24  C   UNL     1      -6.493   9.497  65.887  1.00  0.00    -0.077 A  
ENDBRANCH  18  19
ENDBRANCH   8  18
BRANCH  13  25
HETATM   25  N   UNL     1      -9.299   9.781  68.539  1.00  0.00    -0.140 N  
HETATM   26  O   UNL     1     -10.814  10.274  66.819  1.00  0.00    -0.187 OA 
HETATM   27  C   UNL     1     -10.115  10.654  67.754  1.00  0.00    -0.174 C  
HETATM   28  H   UNL     1      -8.938  10.084  69.443  1.00  0.00     0.000 HD 
BRANCH  27  29
HETATM   29  C   UNL     1     -10.004  12.137  68.155  1.00  0.00    -0.201 C  
HETATM   30  C   UNL     1     -10.493  13.359  67.211  1.00  0.00    -0.248 C  
HETATM   31  N   UNL     1     -11.242  14.875  68.011  1.00  0.00    -0.295 NA 
HETATM   32  C   UNL     1     -11.399  15.969  69.215  1.00  0.00    -0.356 C  
HETATM   33  C   UNL     1     -12.359  14.205  68.047  1.00  0.00     0.019 C  
HETATM   34  C   UNL     1     -11.843  15.427  66.640  1.00  0.00     0.279 C  
HETATM   35  C   UNL     1     -10.009  15.871  66.623  1.00  0.00    -0.267 A  
HETATM   36  C   UNL     1      -9.129  16.290  65.655  1.00  0.00     0.110 A  
HETATM   37  N   UNL     1      -7.828  16.114  66.148  1.00  0.00    -0.099 NA 
HETATM   38  H   UNL     1      -6.995  16.345  65.607  1.00  0.00     0.000 HD 
HETATM   39  C   UNL     1      -7.770  15.595  67.442  1.00  0.00    -0.187 A  
HETATM   40  C   UNL     1      -6.705  15.178  68.255  1.00  0.00    -0.122 A  
HETATM   41  C   UNL     1      -6.990  14.550  69.502  1.00  0.00    -0.147 A  
HETATM   42  C   UNL     1      -8.285  14.220  69.953  1.00  0.00     0.878 A  
HETATM   43  C   UNL     1      -9.371  14.520  69.140  1.00  0.00     0.001 A  
HETATM   44  C   UNL     1      -9.067  15.383  67.855  1.00  0.00    -0.178 A  
HETATM   45  C   UNL     1     -11.042  13.693  69.330  1.00  0.00    -0.241 C  
HETATM   46  C   UNL     1     -10.881  12.359  69.347  1.00  0.00     0.011 C  
ENDBRANCH  27  29
ENDBRANCH  13  25
TORSDOF 4
ENDMDL
MODEL      127
REMARK 921   NORMALIZED FREE ENERGY PREDICTED BY IDOCK:    0.28 KCAL/MOL
REMARK 922        TOTAL FREE ENERGY PREDICTED BY IDOCK:   -0.51 KCAL/MOL
REMARK 923 INTER-LIGAND FREE ENERGY PREDICTED BY IDOCK:   -0.53 KCAL/MOL
REMARK 924 INTRA-LIGAND FREE ENERGY PREDICTED BY IDOCK:    0.02 KCAL/MOL
REMARK 927      BINDING AFFINITY PREDICTED BY RF-SCORE:    0.00 PKD
ROOT
HETATM    1  C   UNL     1     -10.058   9.498  68.490  1.00  0.00    -0.178 A  
HETATM    2  C   UNL     1     -10.996   8.908  69.556  1.00  0.00    -0.097 A  
HETATM    3  C   UNL     1     -11.285   7.457  69.020  1.00  0.00     0.169 A  
HETATM    4  C   UNL     1     -10.647   7.395  67.638  1.00  0.00    -0.239 A  
HETATM    5  N   UNL     1     -10.445   8.788  67.310  1.00  0.00    -0.288 N  
HETATM    6  C   UNL     1      -9.900   9.108  66.108  1.00  0.00    -0.293 C  
HETATM    7  O   UNL     1     -10.350   8.636  65.066  1.00  0.00     1.868 OA 
HETATM    8  C   UNL     1      -8.770  10.169  66.178  1.00  0.00    -0.154 C  
HETATM    9  O   UNL     1      -9.305  12.158  67.501  1.00  0.00    -0.173 OA 
HETATM   10  N   UNL     1      -8.187  10.459  67.726  1.00  0.00    -0.110 N  
HETATM   11  C   UNL     1      -7.389  11.561  68.157  1.00  0.00    -0.094 C  
HETATM   12  H   UNL     1      -8.813  12.232  69.638  1.00  0.00     0.000 HD 
HETATM   13  C   UNL     1      -7.751  12.625  67.190  1.00  0.00    -0.091 C  
HETATM   14  O   UNL     1      -6.605  11.604  69.092  1.00  0.00    -0.083 OA 
HETATM   15  O   UNL     1      -9.236  11.385  69.712  1.00  0.00     0.788 OA 
HETATM   16  C   UNL     1      -6.475  12.085  66.370  1.00  0.00     0.557 C  
HETATM   17  C   UNL     1      -9.332  10.950  68.363  1.00  0.00    -0.172 C  
ENDROOT
BRANCH   8  18
HETATM   18  C   UNL     1      -7.864   9.851  64.988  1.00  0.00    -0.131 C  
BRANCH  18  19
HETATM   19  C   UNL     1      -6.996   8.655  65.183  1.00  0.00    -0.072 A  
HETATM   20  C   UNL     1      -5.834   7.228  66.729  1.00  0.00    -0.034 A  
HETATM   21  C   UNL     1      -5.254   6.561  65.657  1.00  0.00    -0.017 A  
HETATM   22  C   UNL     1      -6.432   7.963  64.111  1.00  0.00    -0.061 A  
HETATM   23  C   UNL     1      -5.538   6.922  64.328  1.00  0.00    -0.032 A  
HETATM   24  C   UNL     1      -6.710   8.270  66.495  1.00  0.00    -0.063 A  
ENDBRANCH  18  19
ENDBRANCH   8  18
BRANCH  13  25
HETATM   25  N   UNL     1      -7.677  14.069  67.066  1.00  0.00    -0.338 N  
HETATM   26  O   UNL     1      -5.420  14.174  67.690  1.00  0.00    -0.309 OA 
HETATM   27  C   UNL     1      -6.491  14.742  67.494  1.00  0.00    -0.063 C  
HETATM   28  H   UNL     1      -8.461  14.595  66.678  1.00  0.00     0.000 HD 
BRANCH  27  29
HETATM   29  C   UNL     1      -6.685  16.251  67.735  1.00  0.00    -0.162 C  
HETATM   30  C   UNL     1      -8.136  16.956  67.882  1.00  0.00    -0.191 C  
HETATM   31  N   UNL     1      -8.328  18.389  69.068  1.00  0.00    -0.136 NA 
HETATM   32  C   UNL     1      -7.796  19.714  69.863  1.00  0.00     0.553 C  
HETATM   33  C   UNL     1      -8.458  17.493  70.004  1.00  0.00     2.143 C  
HETATM   34  C   UNL     1      -9.922  18.321  69.051  1.00  0.00    -0.271 C  
HETATM   35  C   UNL     1      -9.420  19.206  67.461  1.00  0.00    -0.365 A  
HETATM   36  C   UNL     1     -10.066  19.529  66.294  1.00  0.00    -0.468 A  
HETATM   37  N   UNL     1      -9.095  19.860  65.338  1.00  0.00    -0.183 NA 
HETATM   38  H   UNL     1      -9.327  20.127  64.382  1.00  0.00     0.000 HD 
HETATM   39  C   UNL     1      -7.782  19.791  65.808  1.00  0.00    -0.258 A  
HETATM   40  C   UNL     1      -6.536  19.937  65.178  1.00  0.00    -0.327 A  
HETATM   41  C   UNL     1      -5.350  19.663  65.919  1.00  0.00    -0.168 A  
HETATM   42  C   UNL     1      -5.329  19.156  67.235  1.00  0.00    -0.158 A  
HETATM   43  C   UNL     1      -6.538  18.898  67.870  1.00  0.00    -0.227 A  
HETATM   44  C   UNL     1      -7.839  19.380  67.120  1.00  0.00    -0.279 A  
HETATM   45  C   UNL     1      -6.686  17.758  69.349  1.00  0.00    -0.171 C  
HETATM   46  C   UNL     1      -6.096  16.584  69.070  1.00  0.00    -0.155 C  
ENDBRANCH  27  29
ENDBRANCH  13  25
TORSDOF 4
ENDMDL
MODEL      128
REMARK 921   NORMALIZED FREE ENERGY PREDICTED BY IDOCK:    0.40 KCAL/MOL
REMARK 922        TOTAL FREE ENERGY PREDICTED BY IDOCK:   -0.37 KCAL/MOL
REMARK 923 INTER-LIGAND FREE ENERGY PREDICTED BY IDOCK:   -1.75 KCAL/MOL
REMARK 924 INTRA-LIGAND FREE ENERGY PREDICTED BY IDOCK:    1.39 KCAL/MOL
REMARK 927      BINDING AFFINITY PREDICTED BY RF-SCORE:    0.00 PKD
ROOT
HETATM    1  C   UNL     1      -6.415  16.502  69.141  1.00  0.00    -0.193 A  
HETATM    2  C   UNL     1      -5.472  17.205  70.130  1.00  0.00    -0.232 A  
HETATM    3  C   UNL     1      -5.275  18.629  69.492  1.00  0.00    -0.193 A  
HETATM    4  C   UNL     1      -5.962  18.569  68.133  1.00  0.00    -0.192 A  
HETATM    5  N   UNL     1      -6.105  17.150  67.904  1.00  0.00    -0.133 N  
HETATM    6  C   UNL     1      -6.675  16.726  66.747  1.00  0.00    -0.221 C  
HETATM    7  O   UNL     1      -6.285  17.149  65.660  1.00  0.00     0.081 OA 
HETATM    8  C   UNL     1      -7.748  15.619  66.927  1.00  0.00    -0.238 C  
HETATM    9  O   UNL     1      -7.068  13.750  68.355  1.00  0.00    -0.087 OA 
HETATM   10  N   UNL     1      -8.262  15.404  68.511  1.00  0.00    -0.138 N  
HETATM   11  C   UNL     1      -8.989  14.297  69.042  1.00  0.00     0.061 C  
HETATM   12  H   UNL     1      -7.483  13.794  70.509  1.00  0.00     0.000 HD 
HETATM   13  C   UNL     1      -8.607  13.190  68.133  1.00  0.00    -0.181 C  
HETATM   14  O   UNL     1      -9.737  14.279  70.007  1.00  0.00     0.693 OA 
HETATM   15  O   UNL     1      -7.100  14.663  70.512  1.00  0.00     0.115 OA 
HETATM   16  C   UNL     1      -9.936  13.613  67.329  1.00  0.00    -0.240 C  
HETATM   17  C   UNL     1      -7.072  15.012  69.135  1.00  0.00    -0.149 C  
ENDROOT
BRANCH   8  18
HETATM   18  C   UNL     1      -8.709  15.814  65.754  1.00  0.00     0.257 C  
BRANCH  18  19
HETATM   19  C   UNL     1      -9.398  17.136  65.741  1.00  0.00     0.076 A  
HETATM   20  C   UNL     1      -9.241  19.504  66.127  1.00  0.00    -0.363 A  
HETATM   21  C   UNL     1     -10.610  19.613  65.918  1.00  0.00    -0.566 A  
HETATM   22  C   UNL     1     -10.767  17.258  65.505  1.00  0.00    -0.105 A  
HETATM   23  C   UNL     1     -11.399  18.492  65.610  1.00  0.00     1.258 A  
HETATM   24  C   UNL     1      -8.631  18.267  66.032  1.00  0.00    -0.010 A  
ENDBRANCH  18  19
ENDBRANCH   8  18
BRANCH  13  25
HETATM   25  N   UNL     1      -8.613  11.739  68.105  1.00  0.00    -0.154 N  
HETATM   26  O   UNL     1      -7.609  11.528  70.213  1.00  0.00     0.860 OA 
HETATM   27  C   UNL     1      -7.943  11.023  69.145  1.00  0.00    -0.078 C  
HETATM   28  H   UNL     1      -9.089  11.238  67.354  1.00  0.00     0.000 HD 
BRANCH  27  29
HETATM   29  C   UNL     1      -7.630   9.557  68.789  1.00  0.00    -0.076 C  
HETATM   30  C   UNL     1      -8.418   8.726  67.643  1.00  0.00    -0.125 C  
HETATM   31  N   UNL     1      -7.470   7.480  66.619  1.00  0.00    -0.090 NA 
HETATM   32  C   UNL     1      -6.302   6.361  66.385  1.00  0.00    -0.042 C  
HETATM   33  C   UNL     1      -7.088   8.490  65.890  1.00  0.00    -0.076 C  
HETATM   34  C   UNL     1      -8.615   7.367  65.514  1.00  0.00    -0.077 C  
HETATM   35  C   UNL     1      -9.186   6.308  66.968  1.00  0.00    -0.130 A  
HETATM   36  C   UNL     1     -10.382   5.740  67.334  1.00  0.00    -0.225 A  
HETATM   37  N   UNL     1     -10.292   5.376  68.685  1.00  0.00    -0.179 NA 
HETATM   38  H   UNL     1     -11.061   4.940  69.193  1.00  0.00     0.000 HD 
HETATM   39  C   UNL     1      -9.060   5.661  69.275  1.00  0.00    -0.113 A  
HETATM   40  C   UNL     1      -8.589   5.561  70.594  1.00  0.00    -0.130 A  
HETATM   41  C   UNL     1      -7.298   6.076  70.909  1.00  0.00    -0.082 A  
HETATM   42  C   UNL     1      -6.476   6.779  70.004  1.00  0.00    -0.040 A  
HETATM   43  C   UNL     1      -6.938   6.995  68.712  1.00  0.00    -0.079 A  
HETATM   44  C   UNL     1      -8.277   6.261  68.315  1.00  0.00    -0.115 A  
HETATM   45  C   UNL     1      -6.241   8.326  67.592  1.00  0.00    -0.052 C  
HETATM   46  C   UNL     1      -6.238   9.501  68.243  1.00  0.00    -0.052 C  
ENDBRANCH  27  29
ENDBRANCH  13  25
TORSDOF 4
ENDMDL
MODEL      129
REMARK 921   NORMALIZED FREE ENERGY PREDICTED BY IDOCK:    0.50 KCAL/MOL
REMARK 922        TOTAL FREE ENERGY PREDICTED BY IDOCK:   -0.25 KCAL/MOL
REMARK 923 INTER-LIGAND FREE ENERGY PREDICTED BY IDOCK:   -0.54 KCAL/MOL
REMARK 924 INTRA-LIGAND FREE ENERGY PREDICTED BY IDOCK:    0.29 KCAL/MOL
REMARK 927      BINDING AFFINITY PREDICTED BY RF-SCORE:    0.00 PKD
ROOT
HETATM    1  C   UNL     1      -8.570  12.683  68.887  1.00  0.00     0.325 A  
HETATM    2  C   UNL     1      -8.298  13.881  69.811  1.00  0.00     1.233 A  
HETATM    3  C   UNL     1      -7.882  15.022  68.811  1.00  0.00    -0.151 A  
HETATM    4  C   UNL     1      -7.783  14.355  67.445  1.00  0.00    -0.185 A  
HETATM    5  N   UNL     1      -7.712  12.949  67.774  1.00  0.00    -0.136 N  
HETATM    6  C   UNL     1      -7.594  12.045  66.768  1.00  0.00     0.009 C  
HETATM    7  O   UNL     1      -6.731  12.174  65.902  1.00  0.00     0.929 OA 
HETATM    8  C   UNL     1      -8.549  10.827  66.884  1.00  0.00    -0.132 C  
HETATM    9  O   UNL     1      -8.586   9.754  69.085  1.00  0.00    -0.133 OA 
HETATM   10  N   UNL     1      -9.782  11.018  68.009  1.00  0.00    -0.168 N  
HETATM   11  C   UNL     1     -10.616   9.999  68.559  1.00  0.00    -0.215 C  
HETATM   12  H   UNL     1     -10.035  10.392  70.604  1.00  0.00     0.000 HD 
HETATM   13  C   UNL     1      -9.767   8.789  68.451  1.00  0.00    -0.162 C  
HETATM   14  O   UNL     1     -11.747  10.111  69.005  1.00  0.00    -0.090 OA 
HETATM   15  O   UNL     1      -9.754  11.281  70.424  1.00  0.00     1.775 OA 
HETATM   16  C   UNL     1     -10.527   8.583  67.047  1.00  0.00    -0.362 C  
HETATM   17  C   UNL     1      -9.052  11.159  69.195  1.00  0.00     0.066 C  
ENDROOT
BRANCH   8  18
HETATM   18  C   UNL     1      -8.793  10.385  65.442  1.00  0.00    -0.197 C  
BRANCH  18  19
HETATM   19  C   UNL     1      -9.946  11.061  64.782  1.00  0.00    -0.350 A  
HETATM   20  C   UNL     1     -11.107  11.543  62.732  1.00  0.00     0.494 A  
HETATM   21  C   UNL     1     -11.944  12.407  63.427  1.00  0.00    -0.595 A  
HETATM   22  C   UNL     1     -10.808  11.908  65.477  1.00  0.00    -0.343 A  
HETATM   23  C   UNL     1     -11.806  12.611  64.811  1.00  0.00    -0.434 A  
HETATM   24  C   UNL     1     -10.112  10.863  63.409  1.00  0.00    -0.398 A  
ENDBRANCH  18  19
ENDBRANCH   8  18
BRANCH  13  25
HETATM   25  N   UNL     1      -9.680   7.454  69.015  1.00  0.00    -0.159 N  
HETATM   26  O   UNL     1      -7.339   7.482  69.146  1.00  0.00    -0.081 OA 
HETATM   27  C   UNL     1      -8.393   6.853  69.177  1.00  0.00    -0.125 C  
HETATM   28  H   UNL     1     -10.524   6.953  69.292  1.00  0.00     0.000 HD 
BRANCH  27  29
HETATM   29  C   UNL     1      -8.438   5.323  69.348  1.00  0.00    -0.094 C  
HETATM   30  C   UNL     1      -8.162   4.571  70.756  1.00  0.00    -0.080 C  
HETATM   31  N   UNL     1      -9.127   3.019  71.156  1.00  0.00    -0.101 NA 
HETATM   32  C   UNL     1      -9.900   1.633  70.765  1.00  0.00     0.013 C  
HETATM   33  C   UNL     1     -10.083   3.812  71.550  1.00  0.00    -0.056 C  
HETATM   34  C   UNL     1      -8.730   3.049  72.701  1.00  0.00    -0.083 C  
HETATM   35  C   UNL     1      -7.234   2.344  71.792  1.00  0.00    -0.039 A  
HETATM   36  C   UNL     1      -5.920   2.128  72.124  1.00  0.00    -0.009 A  
HETATM   37  N   UNL     1      -5.202   1.920  70.937  1.00  0.00    -0.004 NA 
HETATM   38  H   UNL     1      -4.197   1.747  70.921  1.00  0.00     0.000 HD 
HETATM   39  C   UNL     1      -5.980   1.973  69.780  1.00  0.00    -0.023 A  
HETATM   40  C   UNL     1      -5.660   1.924  68.414  1.00  0.00    -0.018 A  
HETATM   41  C   UNL     1      -6.689   2.149  67.454  1.00  0.00    -0.039 A  
HETATM   42  C   UNL     1      -8.012   2.519  67.773  1.00  0.00    -0.064 A  
HETATM   43  C   UNL     1      -8.357   2.680  69.109  1.00  0.00    -0.086 A  
HETATM   44  C   UNL     1      -7.272   2.245  70.169  1.00  0.00    -0.033 A  
HETATM   45  C   UNL     1      -9.856   3.658  69.661  1.00  0.00     0.013 C  
HETATM   46  C   UNL     1      -9.839   4.869  69.080  1.00  0.00    -0.250 C  
ENDBRANCH  27  29
ENDBRANCH  13  25
TORSDOF 4
ENDMDL
MODEL      130
REMARK 921   NORMALIZED FREE ENERGY PREDICTED BY IDOCK:    0.78 KCAL/MOL
REMARK 922        TOTAL FREE ENERGY PREDICTED BY IDOCK:    0.09 KCAL/MOL
REMARK 923 INTER-LIGAND FREE ENERGY PREDICTED BY IDOCK:   -1.13 KCAL/MOL
REMARK 924 INTRA-LIGAND FREE ENERGY PREDICTED BY IDOCK:    1.22 KCAL/MOL
REMARK 927      BINDING AFFINITY PREDICTED BY RF-SCORE:    0.00 PKD
ROOT
HETATM    1  C   UNL     1      -6.237  12.555  70.645  1.00  0.00     0.382 A  
HETATM    2  C   UNL     1      -5.257  13.535  71.309  1.00  0.00    -0.178 A  
HETATM    3  C   UNL     1      -5.973  14.927  71.151  1.00  0.00     0.109 A  
HETATM    4  C   UNL     1      -7.194  14.663  70.277  1.00  0.00     0.304 A  
HETATM    5  N   UNL     1      -6.895  13.381  69.681  1.00  0.00     0.053 N  
HETATM    6  C   UNL     1      -7.784  12.841  68.808  1.00  0.00     0.007 C  
HETATM    7  O   UNL     1      -8.218  13.496  67.863  1.00  0.00    -0.142 OA 
HETATM    8  C   UNL     1      -8.095  11.340  69.055  1.00  0.00    -0.045 C  
HETATM    9  O   UNL     1      -6.126   9.917  69.361  1.00  0.00    -0.040 OA 
HETATM   10  N   UNL     1      -7.570  10.760  70.541  1.00  0.00     1.009 N  
HETATM   11  C   UNL     1      -7.432   9.395  70.936  1.00  0.00    -0.072 C  
HETATM   12  H   UNL     1      -5.321   9.559  71.370  1.00  0.00     0.000 HD 
HETATM   13  C   UNL     1      -7.209   8.702  69.645  1.00  0.00    -0.052 C  
HETATM   14  O   UNL     1      -7.486   8.928  72.063  1.00  0.00    -0.314 OA 
HETATM   15  O   UNL     1      -5.350  10.500  71.493  1.00  0.00    -0.192 OA 
HETATM   16  C   UNL     1      -8.806   8.496  69.669  1.00  0.00    -0.137 C  
HETATM   17  C   UNL     1      -6.187  10.941  70.433  1.00  0.00    -0.118 C  
ENDROOT
BRANCH   8  18
HETATM   18  C   UNL     1      -9.520  11.148  68.537  1.00  0.00    -0.193 C  
BRANCH  18  19
HETATM   19  C   UNL     1      -9.617  10.312  67.308  1.00  0.00    -0.186 A  
HETATM   20  C   UNL     1      -9.722   8.102  66.366  1.00  0.00    -0.275 A  
HETATM   21  C   UNL     1      -9.624   8.654  65.095  1.00  0.00     0.497 A  
HETATM   22  C   UNL     1      -9.548  10.860  66.027  1.00  0.00    -0.248 A  
HETATM   23  C   UNL     1      -9.529  10.044  64.903  1.00  0.00    -0.355 A  
HETATM   24  C   UNL     1      -9.726   8.928  67.473  1.00  0.00    -0.216 A  
ENDBRANCH  18  19
ENDBRANCH   8  18
BRANCH  13  25
HETATM   25  N   UNL     1      -6.688   7.441  69.150  1.00  0.00    -0.050 N  
HETATM   26  O   UNL     1      -6.921   8.038  66.895  1.00  0.00    -0.071 OA 
HETATM   27  C   UNL     1      -6.738   7.173  67.747  1.00  0.00    -0.064 C  
HETATM   28  H   UNL     1      -6.292   6.757  69.794  1.00  0.00     0.000 HD 
BRANCH  27  29
HETATM   29  C   UNL     1      -6.587   5.682  67.392  1.00  0.00    -0.057 C  
HETATM   30  C   UNL     1      -7.365   4.970  66.163  1.00  0.00    -0.078 C  
HETATM   31  N   UNL     1      -6.496   3.618  65.205  1.00  0.00    -0.035 NA 
HETATM   32  C   UNL     1      -5.467   2.358  65.057  1.00  0.00    -0.009 C  
HETATM   33  C   UNL     1      -5.920   4.575  64.535  1.00  0.00    -0.018 C  
HETATM   34  C   UNL     1      -7.538   3.665  63.998  1.00  0.00    -0.075 C  
HETATM   35  C   UNL     1      -8.376   2.680  65.373  1.00  0.00    -0.096 A  
HETATM   36  C   UNL     1      -9.664   2.271  65.616  1.00  0.00     0.413 A  
HETATM   37  N   UNL     1      -9.749   1.888  66.963  1.00  0.00    -0.264 NA 
HETATM   38  H   UNL     1     -10.612   1.553  67.390  1.00  0.00     0.000 HD 
HETATM   39  C   UNL     1      -8.551   2.005  67.669  1.00  0.00    -0.090 A  
HETATM   40  C   UNL     1      -8.222   1.833  69.022  1.00  0.00    -0.067 A  
HETATM   41  C   UNL     1      -6.909   2.171  69.465  1.00  0.00    -0.033 A  
HETATM   42  C   UNL     1      -5.922   2.768  68.653  1.00  0.00    -0.024 A  
HETATM   43  C   UNL     1      -6.230   3.052  67.328  1.00  0.00    -0.028 A  
HETATM   44  C   UNL     1      -7.610   2.503  66.796  1.00  0.00    -0.070 A  
HETATM   45  C   UNL     1      -5.264   4.288  66.304  1.00  0.00    -0.009 C  
HETATM   46  C   UNL     1      -5.169   5.448  66.975  1.00  0.00    -0.005 C  
ENDBRANCH  27  29
ENDBRANCH  13  25
TORSDOF 4
ENDMDL
MODEL      131
REMARK 921   NORMALIZED FREE ENERGY PREDICTED BY IDOCK:    1.05 KCAL/MOL
REMARK 922        TOTAL FREE ENERGY PREDICTED BY IDOCK:    0.43 KCAL/MOL
REMARK 923 INTER-LIGAND FREE ENERGY PREDICTED BY IDOCK:    0.47 KCAL/MOL
REMARK 924 INTRA-LIGAND FREE ENERGY PREDICTED BY IDOCK:   -0.04 KCAL/MOL
REMARK 927      BINDING AFFINITY PREDICTED BY RF-SCORE:    0.00 PKD
ROOT
HETATM    1  C   UNL     1     -10.324  10.442  69.862  1.00  0.00    -0.182 A  
HETATM    2  C   UNL     1     -11.247  10.139  71.053  1.00  0.00    -0.322 A  
HETATM    3  C   UNL     1     -11.674   8.645  70.810  1.00  0.00    -0.239 A  
HETATM    4  C   UNL     1     -11.116   8.276  69.441  1.00  0.00     0.104 A  
HETATM    5  N   UNL     1     -10.826   9.563  68.851  1.00  0.00    -0.190 N  
HETATM    6  C   UNL     1     -10.321   9.608  67.591  1.00  0.00    -0.237 C  
HETATM    7  O   UNL     1     -10.860   8.993  66.673  1.00  0.00    -0.070 OA 
HETATM    8  C   UNL     1      -9.111  10.564  67.418  1.00  0.00    -0.147 C  
HETATM    9  O   UNL     1      -9.421  12.800  68.365  1.00  0.00    -0.214 OA 
HETATM   10  N   UNL     1      -8.426  11.083  68.862  1.00  0.00    -0.148 N  
HETATM   11  C   UNL     1      -7.524  12.173  69.049  1.00  0.00     0.039 C  
HETATM   12  H   UNL     1      -8.813  13.223  70.430  1.00  0.00     0.000 HD 
HETATM   13  C   UNL     1      -7.854  13.068  67.914  1.00  0.00    -0.149 C  
HETATM   14  O   UNL     1      -6.692  12.319  69.929  1.00  0.00     0.013 OA 
HETATM   15  O   UNL     1      -9.296  12.443  70.677  1.00  0.00     5.516 OA 
HETATM   16  C   UNL     1      -6.668  12.279  67.163  1.00  0.00    -0.105 C  
HETATM   17  C   UNL     1      -9.495  11.778  69.438  1.00  0.00     0.755 C  
ENDROOT
BRANCH   8  18
HETATM   18  C   UNL     1      -8.296   9.957  66.277  1.00  0.00    -0.125 C  
BRANCH  18  19
HETATM   19  C   UNL     1      -8.759  10.353  64.916  1.00  0.00    -0.197 A  
HETATM   20  C   UNL     1     -10.197  11.757  63.597  1.00  0.00    -0.461 A  
HETATM   21  C   UNL     1      -9.819  11.053  62.461  1.00  0.00    -0.072 A  
HETATM   22  C   UNL     1      -8.363   9.669  63.767  1.00  0.00    -0.173 A  
HETATM   23  C   UNL     1      -8.900   9.991  62.526  1.00  0.00    -0.254 A  
HETATM   24  C   UNL     1      -9.663  11.414  64.825  1.00  0.00    -0.280 A  
ENDBRANCH  18  19
ENDBRANCH   8  18
BRANCH  13  25
HETATM   25  N   UNL     1      -7.676  14.452  67.519  1.00  0.00    -0.180 N  
HETATM   26  O   UNL     1      -5.335  14.324  67.514  1.00  0.00    -0.335 OA 
HETATM   27  C   UNL     1      -6.357  15.004  67.500  1.00  0.00    -0.061 C  
HETATM   28  H   UNL     1      -8.480  15.024  67.258  1.00  0.00     0.000 HD 
BRANCH  27  29
HETATM   29  C   UNL     1      -6.327  16.544  67.510  1.00  0.00    -0.187 C  
HETATM   30  C   UNL     1      -7.505  17.460  68.140  1.00  0.00    -0.208 C  
HETATM   31  N   UNL     1      -7.047  19.060  68.993  1.00  0.00    -0.328 NA 
HETATM   32  C   UNL     1      -6.130  20.397  69.205  1.00  0.00    -0.332 C  
HETATM   33  C   UNL     1      -6.790  18.333  70.043  1.00  0.00     0.505 C  
HETATM   34  C   UNL     1      -8.473  19.215  69.690  1.00  0.00     0.519 C  
HETATM   35  C   UNL     1      -8.699  19.785  67.905  1.00  0.00    -0.370 A  
HETATM   36  C   UNL     1      -9.787  20.025  67.102  1.00  0.00    -0.426 A  
HETATM   37  N   UNL     1      -9.340  20.077  65.773  1.00  0.00    -0.495 NA 
HETATM   38  H   UNL     1      -9.967  20.235  64.984  1.00  0.00     0.000 HD 
HETATM   39  C   UNL     1      -7.965  19.892  65.623  1.00  0.00    -0.053 A  
HETATM   40  C   UNL     1      -7.138  19.770  64.496  1.00  0.00     0.752 A  
HETATM   41  C   UNL     1      -5.763  19.441  64.679  1.00  0.00    -0.290 A  
HETATM   42  C   UNL     1      -5.175  19.128  65.922  1.00  0.00    -0.169 A  
HETATM   43  C   UNL     1      -5.973  19.137  67.059  1.00  0.00    -0.167 A  
HETATM   44  C   UNL     1      -7.441  19.685  66.879  1.00  0.00    -0.258 A  
HETATM   45  C   UNL     1      -5.499  18.251  68.640  1.00  0.00    -0.180 C  
HETATM   46  C   UNL     1      -5.174  16.978  68.360  1.00  0.00    -0.126 C  
ENDBRANCH  27  29
ENDBRANCH  13  25
TORSDOF 4
ENDMDL
MODEL      132
REMARK 921   NORMALIZED FREE ENERGY PREDICTED BY IDOCK:    2.43 KCAL/MOL
REMARK 922        TOTAL FREE ENERGY PREDICTED BY IDOCK:    2.14 KCAL/MOL
REMARK 923 INTER-LIGAND FREE ENERGY PREDICTED BY IDOCK:    1.80 KCAL/MOL
REMARK 924 INTRA-LIGAND FREE ENERGY PREDICTED BY IDOCK:    0.34 KCAL/MOL
REMARK 927      BINDING AFFINITY PREDICTED BY RF-SCORE:    0.00 PKD
ROOT
HETATM    1  C   UNL     1     -10.041  14.138  66.048  1.00  0.00    -0.316 A  
HETATM    2  C   UNL     1     -10.149  15.180  64.923  1.00  0.00    -0.151 A  
HETATM    3  C   UNL     1     -10.862  16.396  65.621  1.00  0.00    -0.185 A  
HETATM    4  C   UNL     1     -11.252  15.901  67.009  1.00  0.00    -0.024 A  
HETATM    5  N   UNL     1     -11.158  14.464  66.880  1.00  0.00    -0.315 N  
HETATM    6  C   UNL     1     -11.465  13.688  67.950  1.00  0.00    -0.314 C  
HETATM    7  O   UNL     1     -12.519  13.847  68.563  1.00  0.00    -0.128 OA 
HETATM    8  C   UNL     1     -10.442  12.557  68.238  1.00  0.00    -0.243 C  
HETATM    9  O   UNL     1      -9.808  11.222  66.286  1.00  0.00    -0.202 OA 
HETATM   10  N   UNL     1      -8.986  12.716  67.417  1.00  0.00    -0.181 N  
HETATM   11  C   UNL     1      -7.985  11.716  67.230  1.00  0.00    -0.157 C  
HETATM   12  H   UNL     1      -8.071  11.791  65.072  1.00  0.00     0.000 HD 
HETATM   13  C   UNL     1      -8.762  10.456  67.311  1.00  0.00    -0.125 C  
HETATM   14  O   UNL     1      -6.787  11.872  67.050  1.00  0.00    -0.144 OA 
HETATM   15  O   UNL     1      -8.439  12.667  65.050  1.00  0.00     1.780 OA 
HETATM   16  C   UNL     1      -8.357  10.500  68.869  1.00  0.00    -0.147 C  
HETATM   17  C   UNL     1      -9.410  12.638  66.086  1.00  0.00    -0.112 C  
ENDROOT
BRANCH   8  18
HETATM   18  C   UNL     1     -10.532  12.325  69.746  1.00  0.00     0.896 C  
BRANCH  18  19
HETATM   19  C   UNL     1     -11.693  11.491  70.169  1.00  0.00    -0.395 A  
HETATM   20  C   UNL     1     -13.867  11.418  71.192  1.00  0.00     1.424 A  
HETATM   21  C   UNL     1     -13.826  10.030  71.147  1.00  0.00     0.086 A  
HETATM   22  C   UNL     1     -11.671  10.098  70.101  1.00  0.00    -0.330 A  
HETATM   23  C   UNL     1     -12.724   9.344  70.607  1.00  0.00     0.042 A  
HETATM   24  C   UNL     1     -12.805  12.150  70.697  1.00  0.00    -0.031 A  
ENDBRANCH  18  19
ENDBRANCH   8  18
BRANCH  13  25
HETATM   25  N   UNL     1      -8.632   9.059  66.943  1.00  0.00    -0.122 N  
HETATM   26  O   UNL     1      -6.351   8.958  67.474  1.00  0.00    -0.055 OA 
HETATM   27  C   UNL     1      -7.332   8.464  66.926  1.00  0.00    -0.083 C  
HETATM   28  H   UNL     1      -9.456   8.509  66.700  1.00  0.00     0.000 HD 
BRANCH  27  29
HETATM   29  C   UNL     1      -7.256   7.158  66.111  1.00  0.00    -0.074 C  
HETATM   30  C   UNL     1      -8.557   6.304  65.666  1.00  0.00    -0.143 C  
HETATM   31  N   UNL     1      -8.541   5.431  64.011  1.00  0.00    -0.074 NA 
HETATM   32  C   UNL     1      -7.815   4.643  62.777  1.00  0.00    -0.068 C  
HETATM   33  C   UNL     1      -8.882   6.577  63.494  1.00  0.00     0.817 C  
HETATM   34  C   UNL     1     -10.117   5.184  64.012  1.00  0.00     1.153 C  
HETATM   35  C   UNL     1      -9.381   3.866  65.145  1.00  0.00    -0.158 A  
HETATM   36  C   UNL     1      -9.898   3.002  66.079  1.00  0.00     0.362 A  
HETATM   37  N   UNL     1      -8.834   2.518  66.855  1.00  0.00    -0.125 NA 
HETATM   38  H   UNL     1      -8.965   1.864  67.626  1.00  0.00     0.000 HD 
HETATM   39  C   UNL     1      -7.583   3.010  66.483  1.00  0.00    -0.076 A  
HETATM   40  C   UNL     1      -6.301   2.872  67.039  1.00  0.00    -0.035 A  
HETATM   41  C   UNL     1      -5.224   3.630  66.493  1.00  0.00    -0.012 A  
HETATM   42  C   UNL     1      -5.364   4.600  65.479  1.00  0.00    -0.013 A  
HETATM   43  C   UNL     1      -6.630   4.849  64.962  1.00  0.00    -0.040 A  
HETATM   44  C   UNL     1      -7.781   3.877  65.432  1.00  0.00    -0.082 A  
HETATM   45  C   UNL     1      -7.060   6.421  64.039  1.00  0.00    -0.054 C  
HETATM   46  C   UNL     1      -6.684   7.485  64.768  1.00  0.00    -0.047 C  
ENDBRANCH  27  29
ENDBRANCH  13  25
TORSDOF 4
ENDMDL
MODEL      133
REMARK 921   NORMALIZED FREE ENERGY PREDICTED BY IDOCK:    2.49 KCAL/MOL
REMARK 922        TOTAL FREE ENERGY PREDICTED BY IDOCK:    2.21 KCAL/MOL
REMARK 923 INTER-LIGAND FREE ENERGY PREDICTED BY IDOCK:    2.81 KCAL/MOL
REMARK 924 INTRA-LIGAND FREE ENERGY PREDICTED BY IDOCK:   -0.60 KCAL/MOL
REMARK 927      BINDING AFFINITY PREDICTED BY RF-SCORE:    0.00 PKD
ROOT
HETATM    1  C   UNL     1     -11.230  14.911  68.131  1.00  0.00    -0.299 A  
HETATM    2  C   UNL     1     -12.558  15.560  67.708  1.00  0.00     1.443 A  
HETATM    3  C   UNL     1     -12.472  17.001  68.333  1.00  0.00     2.821 A  
HETATM    4  C   UNL     1     -11.211  17.003  69.189  1.00  0.00     0.221 A  
HETATM    5  N   UNL     1     -10.926  15.595  69.350  1.00  0.00    -0.260 N  
HETATM    6  C   UNL     1      -9.853  15.224  70.095  1.00  0.00     0.052 C  
HETATM    7  O   UNL     1      -9.683  15.676  71.225  1.00  0.00     1.456 OA 
HETATM    8  C   UNL     1      -8.964  14.133  69.440  1.00  0.00     0.508 C  
HETATM    9  O   UNL     1     -10.183  12.202  68.558  1.00  0.00    -0.216 OA 
HETATM   10  N   UNL     1      -9.272  13.874  67.810  1.00  0.00    -0.189 N  
HETATM   11  C   UNL     1      -8.855  12.764  67.016  1.00  0.00    -0.213 C  
HETATM   12  H   UNL     1     -10.863  12.180  66.472  1.00  0.00     0.000 HD 
HETATM   13  C   UNL     1      -8.710  11.682  68.019  1.00  0.00    -0.157 C  
HETATM   14  O   UNL     1      -8.666  12.728  65.810  1.00  0.00     0.461 OA 
HETATM   15  O   UNL     1     -11.230  13.041  66.637  1.00  0.00    -0.288 OA 
HETATM   16  C   UNL     1      -7.173  12.161  68.070  1.00  0.00    -0.099 C  
HETATM   17  C   UNL     1     -10.601  13.436  67.848  1.00  0.00    -0.245 C  
ENDROOT
BRANCH   8  18
HETATM   18  C   UNL     1      -7.563  14.389  69.996  1.00  0.00     0.456 C  
BRANCH  18  19
HETATM   19  C   UNL     1      -6.924  15.639  69.495  1.00  0.00    -0.193 A  
HETATM   20  C   UNL     1      -6.894  17.367  67.823  1.00  0.00    -0.176 A  
HETATM   21  C   UNL     1      -5.719  17.861  68.376  1.00  0.00    -0.164 A  
HETATM   22  C   UNL     1      -5.760  16.158  70.062  1.00  0.00    -0.179 A  
HETATM   23  C   UNL     1      -5.127  17.262  69.502  1.00  0.00    -0.159 A  
HETATM   24  C   UNL     1      -7.502  16.260  68.385  1.00  0.00    -0.163 A  
ENDBRANCH  18  19
ENDBRANCH   8  18
BRANCH  13  25
HETATM   25  N   UNL     1      -8.641  10.234  68.070  1.00  0.00    -0.118 N  
HETATM   26  O   UNL     1      -8.377  10.162  70.398  1.00  0.00    -0.069 OA 
HETATM   27  C   UNL     1      -8.318   9.598  69.309  1.00  0.00    -0.137 C  
HETATM   28  H   UNL     1      -8.820   9.677  67.234  1.00  0.00     0.000 HD 
BRANCH  27  29
HETATM   29  C   UNL     1      -7.839   8.142  69.155  1.00  0.00    -0.107 C  
HETATM   30  C   UNL     1      -8.809   6.923  68.712  1.00  0.00    -0.132 C  
HETATM   31  N   UNL     1      -8.111   5.557  67.641  1.00  0.00    -0.101 NA 
HETATM   32  C   UNL     1      -6.917   4.570  67.119  1.00  0.00    -0.060 C  
HETATM   33  C   UNL     1      -8.328   6.349  66.630  1.00  0.00    -0.113 C  
HETATM   34  C   UNL     1      -9.549   4.986  67.255  1.00  0.00    -0.148 C  
HETATM   35  C   UNL     1      -9.179   4.339  68.988  1.00  0.00    -0.207 A  
HETATM   36  C   UNL     1      -9.932   3.760  69.980  1.00  0.00     0.146 A  
HETATM   37  N   UNL     1      -9.196   3.821  71.173  1.00  0.00    -0.119 NA 
HETATM   38  H   UNL     1      -9.549   3.463  72.060  1.00  0.00     0.000 HD 
HETATM   39  C   UNL     1      -7.940   4.415  71.041  1.00  0.00    -0.072 A  
HETATM   40  C   UNL     1      -6.949   4.763  71.972  1.00  0.00    -0.060 A  
HETATM   41  C   UNL     1      -5.812   5.501  71.530  1.00  0.00    -0.024 A  
HETATM   42  C   UNL     1      -5.646   6.004  70.222  1.00  0.00    -0.013 A  
HETATM   43  C   UNL     1      -6.646   5.774  69.287  1.00  0.00    -0.054 A  
HETATM   44  C   UNL     1      -7.805   4.799  69.726  1.00  0.00    -0.066 A  
HETATM   45  C   UNL     1      -6.831   6.794  67.726  1.00  0.00    -0.081 C  
HETATM   46  C   UNL     1      -6.840   8.100  68.043  1.00  0.00    -0.073 C  
ENDBRANCH  27  29
ENDBRANCH  13  25
TORSDOF 4
ENDMDL
MODEL      134
REMARK 921   NORMALIZED FREE ENERGY PREDICTED BY IDOCK:    2.65 KCAL/MOL
REMARK 922        TOTAL FREE ENERGY PREDICTED BY IDOCK:    2.41 KCAL/MOL
REMARK 923 INTER-LIGAND FREE ENERGY PREDICTED BY IDOCK:    2.18 KCAL/MOL
REMARK 924 INTRA-LIGAND FREE ENERGY PREDICTED BY IDOCK:    0.23 KCAL/MOL
REMARK 927      BINDING AFFINITY PREDICTED BY RF-SCORE:    0.00 PKD
ROOT
HETATM    1  C   UNL     1     -10.170  18.627  67.324  1.00  0.00    -0.376 A  
HETATM    2  C   UNL     1     -11.146  19.711  66.841  1.00  0.00    -0.236 A  
HETATM    3  C   UNL     1     -11.034  20.820  67.950  1.00  0.00     1.235 A  
HETATM    4  C   UNL     1     -10.156  20.221  69.043  1.00  0.00    -0.005 A  
HETATM    5  N   UNL     1     -10.184  18.808  68.743  1.00  0.00    -0.338 N  
HETATM    6  C   UNL     1      -9.506  17.952  69.550  1.00  0.00     0.471 C  
HETATM    7  O   UNL     1      -9.654  17.984  70.771  1.00  0.00     3.066 OA 
HETATM    8  C   UNL     1      -8.645  16.904  68.796  1.00  0.00    -0.246 C  
HETATM    9  O   UNL     1      -9.802  15.734  66.983  1.00  0.00    -0.229 OA 
HETATM   10  N   UNL     1      -8.423  17.235  67.164  1.00  0.00    -0.200 N  
HETATM   11  C   UNL     1      -7.956  16.340  66.156  1.00  0.00    -0.010 C  
HETATM   12  H   UNL     1      -9.731  16.519  64.936  1.00  0.00     0.000 HD 
HETATM   13  C   UNL     1      -8.344  15.013  66.692  1.00  0.00    -0.080 C  
HETATM   14  O   UNL     1      -7.380  16.612  65.115  1.00  0.00     1.957 OA 
HETATM   15  O   UNL     1      -9.981  17.358  65.304  1.00  0.00    -0.310 OA 
HETATM   16  C   UNL     1      -6.858  15.013  67.312  1.00  0.00    -0.038 C  
HETATM   17  C   UNL     1      -9.740  17.188  66.693  1.00  0.00    -0.276 C  
ENDROOT
BRANCH   8  18
HETATM   18  C   UNL     1      -7.493  16.588  69.750  1.00  0.00     0.426 C  
BRANCH  18  19
HETATM   19  C   UNL     1      -6.631  17.759  70.078  1.00  0.00     0.331 A  
HETATM   20  C   UNL     1      -5.253  18.864  71.709  1.00  0.00    -0.231 A  
HETATM   21  C   UNL     1      -5.153  19.960  70.861  1.00  0.00    -0.253 A  
HETATM   22  C   UNL     1      -6.503  18.852  69.220  1.00  0.00    -0.311 A  
HETATM   23  C   UNL     1      -5.782  19.977  69.604  1.00  0.00    -0.314 A  
HETATM   24  C   UNL     1      -5.985  17.760  71.317  1.00  0.00     1.119 A  
ENDBRANCH  18  19
ENDBRANCH   8  18
BRANCH  13  25
HETATM   25  N   UNL     1      -8.542  13.654  66.224  1.00  0.00    -0.207 N  
HETATM   26  O   UNL     1     -10.519  13.344  67.444  1.00  0.00    -0.241 OA 
HETATM   27  C   UNL     1      -9.591  12.870  66.796  1.00  0.00    -0.246 C  
HETATM   28  H   UNL     1      -7.941  13.265  65.497  1.00  0.00     0.000 HD 
BRANCH  27  29
HETATM   29  C   UNL     1      -9.431  11.354  66.567  1.00  0.00    -0.218 C  
HETATM   30  C   UNL     1      -8.902  10.328  67.702  1.00  0.00    -0.121 C  
HETATM   31  N   UNL     1      -9.619   8.601  67.764  1.00  0.00    -0.145 NA 
HETATM   32  C   UNL     1     -10.260   7.257  67.092  1.00  0.00    -0.269 C  
HETATM   33  C   UNL     1     -10.610   9.123  68.428  1.00  0.00    -0.172 C  
HETATM   34  C   UNL     1      -9.049   8.307  69.225  1.00  0.00    -0.151 C  
HETATM   35  C   UNL     1      -7.597   8.076  68.042  1.00  0.00    -0.112 A  
HETATM   36  C   UNL     1      -6.236   7.979  68.196  1.00  0.00    -0.046 A  
HETATM   37  N   UNL     1      -5.643   8.178  66.941  1.00  0.00    -0.036 NA 
HETATM   38  H   UNL     1      -4.633   8.163  66.797  1.00  0.00     0.000 HD 
HETATM   39  C   UNL     1      -6.553   8.399  65.906  1.00  0.00    -0.053 A  
HETATM   40  C   UNL     1      -6.392   8.736  64.553  1.00  0.00    -0.067 A  
HETATM   41  C   UNL     1      -7.547   9.037  63.773  1.00  0.00    -0.115 A  
HETATM   42  C   UNL     1      -8.858   9.119  64.286  1.00  0.00    -0.139 A  
HETATM   43  C   UNL     1      -9.060   8.894  65.642  1.00  0.00    -0.269 A  
HETATM   44  C   UNL     1      -7.813   8.375  66.458  1.00  0.00    -0.092 A  
HETATM   45  C   UNL     1     -10.590   9.475  66.553  1.00  0.00    -0.133 C  
HETATM   46  C   UNL     1     -10.788  10.781  66.307  1.00  0.00    -0.143 C  
ENDBRANCH  27  29
ENDBRANCH  13  25
TORSDOF 4
ENDMDL
MODEL      135
REMARK 921   NORMALIZED FREE ENERGY PREDICTED BY IDOCK:    3.28 KCAL/MOL
REMARK 922        TOTAL FREE ENERGY PREDICTED BY IDOCK:    3.19 KCAL/MOL
REMARK 923 INTER-LIGAND FREE ENERGY PREDICTED BY IDOCK:    3.26 KCAL/MOL
REMARK 924 INTRA-LIGAND FREE ENERGY PREDICTED BY IDOCK:   -0.08 KCAL/MOL
REMARK 927      BINDING AFFINITY PREDICTED BY RF-SCORE:    0.00 PKD
ROOT
HETATM    1  C   UNL     1     -10.337  17.478  66.991  1.00  0.00    -0.324 A  
HETATM    2  C   UNL     1     -10.284  18.886  66.377  1.00  0.00    -0.481 A  
HETATM    3  C   UNL     1     -11.441  19.650  67.120  1.00  0.00     0.528 A  
HETATM    4  C   UNL     1     -12.161  18.595  67.952  1.00  0.00     3.412 A  
HETATM    5  N   UNL     1     -11.714  17.354  67.361  1.00  0.00     1.066 N  
HETATM    6  C   UNL     1     -12.187  16.183  67.859  1.00  0.00     1.034 C  
HETATM    7  O   UNL     1     -13.394  16.003  68.010  1.00  0.00     3.265 OA 
HETATM    8  C   UNL     1     -11.099  15.102  68.101  1.00  0.00    -0.306 C  
HETATM    9  O   UNL     1      -9.561  14.752  66.229  1.00  0.00    -0.280 OA 
HETATM   10  N   UNL     1      -9.524  15.682  68.051  1.00  0.00    -0.194 N  
HETATM   11  C   UNL     1      -8.324  14.918  67.932  1.00  0.00    -0.146 C  
HETATM   12  H   UNL     1      -7.686  15.886  66.108  1.00  0.00     0.000 HD 
HETATM   13  C   UNL     1      -8.784  13.694  67.234  1.00  0.00    -0.218 C  
HETATM   14  O   UNL     1      -7.203  15.211  68.317  1.00  0.00    -0.102 OA 
HETATM   15  O   UNL     1      -8.208  16.665  66.260  1.00  0.00    -0.297 OA 
HETATM   16  C   UNL     1      -8.954  13.106  68.723  1.00  0.00     0.161 C  
HETATM   17  C   UNL     1      -9.442  16.143  66.732  1.00  0.00    -0.238 C  
ENDROOT
BRANCH   8  18
HETATM   18  C   UNL     1     -11.643  14.254  69.251  1.00  0.00    -0.350 C  
BRANCH  18  19
HETATM   19  C   UNL     1     -11.807  14.996  70.533  1.00  0.00    -0.347 A  
HETATM   20  C   UNL     1     -11.225  16.926  71.844  1.00  0.00     0.773 A  
HETATM   21  C   UNL     1     -11.898  16.375  72.928  1.00  0.00    -0.498 A  
HETATM   22  C   UNL     1     -12.504  14.463  71.617  1.00  0.00    -0.427 A  
HETATM   23  C   UNL     1     -12.545  15.130  72.836  1.00  0.00    -0.512 A  
HETATM   24  C   UNL     1     -11.184  16.242  70.644  1.00  0.00    -0.310 A  
ENDBRANCH  18  19
ENDBRANCH   8  18
BRANCH  13  25
HETATM   25  N   UNL     1      -8.231  12.591  66.470  1.00  0.00    -0.399 N  
HETATM   26  O   UNL     1     -10.028  11.156  66.926  1.00  0.00    -0.190 OA 
HETATM   27  C   UNL     1      -8.880  11.319  66.520  1.00  0.00    -0.179 C  
HETATM   28  H   UNL     1      -7.392  12.723  65.905  1.00  0.00     0.000 HD 
BRANCH  27  29
HETATM   29  C   UNL     1      -7.991  10.148  66.058  1.00  0.00    -0.124 C  
HETATM   30  C   UNL     1      -8.191   9.373  64.651  1.00  0.00    -0.148 C  
HETATM   31  N   UNL     1      -6.679   8.755  63.737  1.00  0.00    -0.087 NA 
HETATM   32  C   UNL     1      -5.161   8.157  63.654  1.00  0.00    -0.041 C  
HETATM   33  C   UNL     1      -6.566   9.966  63.271  1.00  0.00    -0.125 C  
HETATM   34  C   UNL     1      -7.476   8.515  62.376  1.00  0.00    -0.105 C  
HETATM   35  C   UNL     1      -7.879   7.042  63.484  1.00  0.00    -0.109 A  
HETATM   36  C   UNL     1      -8.828   6.049  63.459  1.00  0.00     0.550 A  
HETATM   37  N   UNL     1      -8.865   5.453  64.728  1.00  0.00    -0.316 NA 
HETATM   38  H   UNL     1      -9.501   4.692  64.964  1.00  0.00     0.000 HD 
HETATM   39  C   UNL     1      -7.957   5.991  65.641  1.00  0.00    -0.116 A  
HETATM   40  C   UNL     1      -7.736   5.769  67.009  1.00  0.00    -0.101 A  
HETATM   41  C   UNL     1      -6.806   6.597  67.704  1.00  0.00    -0.080 A  
HETATM   42  C   UNL     1      -6.147   7.707  67.137  1.00  0.00    -0.052 A  
HETATM   43  C   UNL     1      -6.406   8.033  65.812  1.00  0.00    -0.042 A  
HETATM   44  C   UNL     1      -7.284   7.006  64.997  1.00  0.00    -0.078 A  
HETATM   45  C   UNL     1      -6.051   9.726  65.093  1.00  0.00    -0.086 C  
HETATM   46  C   UNL     1      -6.600  10.669  65.876  1.00  0.00    -0.118 C  
ENDBRANCH  27  29
ENDBRANCH  13  25
TORSDOF 4
ENDMDL
MODEL      136
REMARK 921   NORMALIZED FREE ENERGY PREDICTED BY IDOCK:    3.43 KCAL/MOL
REMARK 922        TOTAL FREE ENERGY PREDICTED BY IDOCK:    3.37 KCAL/MOL
REMARK 923 INTER-LIGAND FREE ENERGY PREDICTED BY IDOCK:    2.78 KCAL/MOL
REMARK 924 INTRA-LIGAND FREE ENERGY PREDICTED BY IDOCK:    0.59 KCAL/MOL
REMARK 927      BINDING AFFINITY PREDICTED BY RF-SCORE:    0.00 PKD
ROOT
HETATM    1  C   UNL     1      -6.926  16.111  69.498  1.00  0.00    -0.186 A  
HETATM    2  C   UNL     1      -6.264  17.132  70.437  1.00  0.00     0.416 A  
HETATM    3  C   UNL     1      -5.829  18.289  69.465  1.00  0.00    -0.246 A  
HETATM    4  C   UNL     1      -6.113  17.773  68.059  1.00  0.00    -0.164 A  
HETATM    5  N   UNL     1      -6.253  16.349  68.259  1.00  0.00    -0.117 N  
HETATM    6  C   UNL     1      -6.497  15.557  67.183  1.00  0.00     0.124 C  
HETATM    7  O   UNL     1      -5.800  15.632  66.173  1.00  0.00     1.758 OA 
HETATM    8  C   UNL     1      -7.628  14.516  67.395  1.00  0.00    -0.209 C  
HETATM    9  O   UNL     1      -7.463  13.225  69.469  1.00  0.00     0.283 OA 
HETATM   10  N   UNL     1      -8.573  14.789  68.756  1.00  0.00    -0.168 N  
HETATM   11  C   UNL     1      -9.471  13.873  69.384  1.00  0.00     0.622 C  
HETATM   12  H   UNL     1      -8.460  13.927  71.293  1.00  0.00     0.000 HD 
HETATM   13  C   UNL     1      -8.904  12.555  69.014  1.00  0.00     0.499 C  
HETATM   14  O   UNL     1     -10.458  14.127  70.055  1.00  0.00     0.276 OA 
HETATM   15  O   UNL     1      -8.052  14.769  71.129  1.00  0.00     2.043 OA 
HETATM   16  C   UNL     1      -9.934  12.643  67.780  1.00  0.00    -0.218 C  
HETATM   17  C   UNL     1      -7.625  14.667  69.778  1.00  0.00     0.087 C  
ENDROOT
BRANCH   8  18
HETATM   18  C   UNL     1      -8.213  14.288  66.002  1.00  0.00     1.674 C  
BRANCH  18  19
HETATM   19  C   UNL     1      -9.281  15.256  65.621  1.00  0.00     0.005 A  
HETATM   20  C   UNL     1     -10.257  17.428  65.955  1.00  0.00    -0.266 A  
HETATM   21  C   UNL     1     -11.309  17.067  65.122  1.00  0.00     0.462 A  
HETATM   22  C   UNL     1     -10.326  14.912  64.763  1.00  0.00    -0.233 A  
HETATM   23  C   UNL     1     -11.366  15.800  64.516  1.00  0.00    -0.324 A  
HETATM   24  C   UNL     1      -9.238  16.527  66.200  1.00  0.00    -0.338 A  
ENDBRANCH  18  19
ENDBRANCH   8  18
BRANCH  13  25
HETATM   25  N   UNL     1      -8.970  11.170  69.444  1.00  0.00    -0.367 N  
HETATM   26  O   UNL     1      -6.646  10.950  69.655  1.00  0.00    -0.092 OA 
HETATM   27  C   UNL     1      -7.756  10.430  69.587  1.00  0.00    -0.144 C  
HETATM   28  H   UNL     1      -9.870  10.733  69.641  1.00  0.00     0.000 HD 
BRANCH  27  29
HETATM   29  C   UNL     1      -7.957   8.902  69.604  1.00  0.00    -0.092 C  
HETATM   30  C   UNL     1      -9.407   8.191  69.730  1.00  0.00    -0.159 C  
HETATM   31  N   UNL     1      -9.713   6.593  68.807  1.00  0.00    -0.130 NA 
HETATM   32  C   UNL     1      -9.256   5.159  68.171  1.00  0.00    -0.116 C  
HETATM   33  C   UNL     1      -9.957   7.336  67.766  1.00  0.00    -0.166 C  
HETATM   34  C   UNL     1     -11.295   6.671  68.992  1.00  0.00    -0.160 C  
HETATM   35  C   UNL     1     -10.609   6.039  70.632  1.00  0.00    -0.322 A  
HETATM   36  C   UNL     1     -11.118   5.904  71.901  1.00  0.00    -0.268 A  
HETATM   37  N   UNL     1     -10.042   5.719  72.781  1.00  0.00    -0.176 NA 
HETATM   38  H   UNL     1     -10.163   5.603  73.787  1.00  0.00     0.000 HD 
HETATM   39  C   UNL     1      -8.791   5.707  72.163  1.00  0.00    -0.137 A  
HETATM   40  C   UNL     1      -7.481   5.654  72.664  1.00  0.00    -0.097 A  
HETATM   41  C   UNL     1      -6.388   5.804  71.762  1.00  0.00    -0.048 A  
HETATM   42  C   UNL     1      -6.520   6.103  70.390  1.00  0.00    -0.040 A  
HETATM   43  C   UNL     1      -7.794   6.265  69.862  1.00  0.00    -0.110 A  
HETATM   44  C   UNL     1      -8.998   5.911  70.817  1.00  0.00    -0.155 A  
HETATM   45  C   UNL     1      -8.119   7.164  68.251  1.00  0.00    -0.124 C  
HETATM   46  C   UNL     1      -7.516   8.365  68.279  1.00  0.00    -0.096 C  
ENDBRANCH  27  29
ENDBRANCH  13  25
TORSDOF 4
ENDMDL
MODEL      137
REMARK 921   NORMALIZED FREE ENERGY PREDICTED BY IDOCK:    3.73 KCAL/MOL
REMARK 922        TOTAL FREE ENERGY PREDICTED BY IDOCK:    3.74 KCAL/MOL
REMARK 923 INTER-LIGAND FREE ENERGY PREDICTED BY IDOCK:    3.11 KCAL/MOL
REMARK 924 INTRA-LIGAND FREE ENERGY PREDICTED BY IDOCK:    0.63 KCAL/MOL
REMARK 927      BINDING AFFINITY PREDICTED BY RF-SCORE:    0.00 PKD
ROOT
HETATM    1  C   UNL     1      -6.923  16.108  69.499  1.00  0.00    -0.186 A  
HETATM    2  C   UNL     1      -6.276  17.148  70.427  1.00  0.00     0.416 A  
HETATM    3  C   UNL     1      -5.840  18.293  69.440  1.00  0.00    -0.237 A  
HETATM    4  C   UNL     1      -6.107  17.753  68.041  1.00  0.00    -0.164 A  
HETATM    5  N   UNL     1      -6.240  16.331  68.261  1.00  0.00    -0.116 N  
HETATM    6  C   UNL     1      -6.469  15.520  67.197  1.00  0.00     0.124 C  
HETATM    7  O   UNL     1      -5.763  15.584  66.192  1.00  0.00     2.066 OA 
HETATM    8  C   UNL     1      -7.595  14.475  67.416  1.00  0.00    -0.209 C  
HETATM    9  O   UNL     1      -7.441  13.218  69.511  1.00  0.00     0.283 OA 
HETATM   10  N   UNL     1      -8.555  14.763  68.764  1.00  0.00    -0.168 N  
HETATM   11  C   UNL     1      -9.452  13.852  69.398  1.00  0.00     0.622 C  
HETATM   12  H   UNL     1      -8.459  13.944  71.315  1.00  0.00     0.000 HD 
HETATM   13  C   UNL     1      -8.873  12.532  69.054  1.00  0.00     0.499 C  
HETATM   14  O   UNL     1     -10.447  14.110  70.056  1.00  0.00     0.276 OA 
HETATM   15  O   UNL     1      -8.055  14.786  71.141  1.00  0.00     2.043 OA 
HETATM   16  C   UNL     1      -9.892  12.593  67.810  1.00  0.00    -0.212 C  
HETATM   17  C   UNL     1      -7.615  14.664  69.796  1.00  0.00     0.087 C  
ENDROOT
BRANCH   8  18
HETATM   18  C   UNL     1      -8.166  14.221  66.021  1.00  0.00     1.674 C  
BRANCH  18  19
HETATM   19  C   UNL     1      -9.232  15.179  65.612  1.00  0.00     0.054 A  
HETATM   20  C   UNL     1     -10.216  17.354  65.898  1.00  0.00    -0.266 A  
HETATM   21  C   UNL     1     -11.258  16.977  65.060  1.00  0.00     0.230 A  
HETATM   22  C   UNL     1     -10.266  14.818  64.749  1.00  0.00    -0.178 A  
HETATM   23  C   UNL     1     -11.305  15.700  64.475  1.00  0.00    -0.327 A  
HETATM   24  C   UNL     1      -9.198  16.460  66.170  1.00  0.00    -0.365 A  
ENDBRANCH  18  19
ENDBRANCH   8  18
BRANCH  13  25
HETATM   25  N   UNL     1      -8.934  11.154  69.506  1.00  0.00    -0.253 N  
HETATM   26  O   UNL     1      -6.611  10.953  69.744  1.00  0.00    -0.110 OA 
HETATM   27  C   UNL     1      -7.717  10.424  69.673  1.00  0.00    -0.144 C  
HETATM   28  H   UNL     1      -9.833  10.713  69.701  1.00  0.00     0.000 HD 
BRANCH  27  29
HETATM   29  C   UNL     1      -7.908   8.896  69.712  1.00  0.00    -0.090 C  
HETATM   30  C   UNL     1      -7.642   7.928  68.442  1.00  0.00    -0.108 C  
HETATM   31  N   UNL     1      -6.938   6.220  68.739  1.00  0.00    -0.073 NA 
HETATM   32  C   UNL     1      -6.735   4.850  69.607  1.00  0.00    -0.051 C  
HETATM   33  C   UNL     1      -5.771   6.797  68.784  1.00  0.00    -0.018 C  
HETATM   34  C   UNL     1      -6.554   6.001  67.206  1.00  0.00    -0.052 C  
HETATM   35  C   UNL     1      -8.409   5.676  67.331  1.00  0.00    -0.100 A  
HETATM   36  C   UNL     1      -9.430   5.565  66.419  1.00  0.00    -0.155 A  
HETATM   37  N   UNL     1     -10.644   5.681  67.113  1.00  0.00    -0.267 NA 
HETATM   38  H   UNL     1     -11.552   5.641  66.651  1.00  0.00     0.000 HD 
HETATM   39  C   UNL     1     -10.502   5.858  68.490  1.00  0.00    -0.238 A  
HETATM   40  C   UNL     1     -11.424   6.113  69.517  1.00  0.00    -0.299 A  
HETATM   41  C   UNL     1     -10.939   6.389  70.830  1.00  0.00    -0.346 A  
HETATM   42  C   UNL     1      -9.576   6.524  71.166  1.00  0.00    -0.181 A  
HETATM   43  C   UNL     1      -8.624   6.380  70.164  1.00  0.00    -0.135 A  
HETATM   44  C   UNL     1      -9.153   5.888  68.762  1.00  0.00    -0.116 A  
HETATM   45  C   UNL     1      -6.878   7.039  70.320  1.00  0.00    -0.057 C  
HETATM   46  C   UNL     1      -6.918   8.332  70.683  1.00  0.00    -0.038 C  
ENDBRANCH  27  29
ENDBRANCH  13  25
TORSDOF 4
ENDMDL
MODEL      138
REMARK 921   NORMALIZED FREE ENERGY PREDICTED BY IDOCK:    4.47 KCAL/MOL
REMARK 922        TOTAL FREE ENERGY PREDICTED BY IDOCK:    4.66 KCAL/MOL
REMARK 923 INTER-LIGAND FREE ENERGY PREDICTED BY IDOCK:    5.31 KCAL/MOL
REMARK 924 INTRA-LIGAND FREE ENERGY PREDICTED BY IDOCK:   -0.65 KCAL/MOL
REMARK 927      BINDING AFFINITY PREDICTED BY RF-SCORE:    0.00 PKD
ROOT
HETATM    1  C   UNL     1      -9.399  14.609  65.845  1.00  0.00    -0.120 A  
HETATM    2  C   UNL     1     -10.574  15.142  65.010  1.00  0.00    -0.439 A  
HETATM    3  C   UNL     1     -10.352  16.699  65.023  1.00  0.00     0.164 A  
HETATM    4  C   UNL     1      -9.197  16.941  65.987  1.00  0.00    -0.170 A  
HETATM    5  N   UNL     1      -9.127  15.702  66.728  1.00  0.00    -0.233 N  
HETATM    6  C   UNL     1      -8.197  15.575  67.709  1.00  0.00    -0.147 C  
HETATM    7  O   UNL     1      -8.081  16.432  68.583  1.00  0.00    -0.194 OA 
HETATM    8  C   UNL     1      -7.406  14.240  67.675  1.00  0.00    -0.192 C  
HETATM    9  O   UNL     1      -8.787  12.231  67.453  1.00  0.00    -0.169 OA 
HETATM   10  N   UNL     1      -7.582  13.367  66.252  1.00  0.00     1.717 N  
HETATM   11  C   UNL     1      -7.245  11.998  66.029  1.00  0.00     1.087 C  
HETATM   12  H   UNL     1      -9.250  11.419  65.467  1.00  0.00     0.000 HD 
HETATM   13  C   UNL     1      -7.354  11.411  67.386  1.00  0.00    -0.119 C  
HETATM   14  O   UNL     1      -6.943  11.458  64.977  1.00  0.00     0.825 OA 
HETATM   15  O   UNL     1      -9.509  12.301  65.225  1.00  0.00    -0.093 OA 
HETATM   16  C   UNL     1      -5.779  11.733  67.472  1.00  0.00    -0.084 C  
HETATM   17  C   UNL     1      -8.956  13.099  66.261  1.00  0.00     0.116 C  
ENDROOT
BRANCH   8  18
HETATM   18  C   UNL     1      -6.047  14.578  68.288  1.00  0.00    -0.118 C  
BRANCH  18  19
HETATM   19  C   UNL     1      -6.052  14.667  69.775  1.00  0.00    -0.131 A  
HETATM   20  C   UNL     1      -7.131  14.061  71.837  1.00  0.00     3.484 A  
HETATM   21  C   UNL     1      -6.262  14.901  72.522  1.00  0.00     1.022 A  
HETATM   22  C   UNL     1      -5.165  15.486  70.474  1.00  0.00    -0.141 A  
HETATM   23  C   UNL     1      -5.267  15.634  71.852  1.00  0.00     0.094 A  
HETATM   24  C   UNL     1      -7.024  13.937  70.464  1.00  0.00     0.722 A  
ENDBRANCH  18  19
ENDBRANCH   8  18
BRANCH  13  25
HETATM   25  N   UNL     1      -7.492  10.109  68.012  1.00  0.00    -0.087 N  
HETATM   26  O   UNL     1      -6.746  10.851  70.106  1.00  0.00    -0.160 OA 
HETATM   27  C   UNL     1      -7.008   9.925  69.344  1.00  0.00    -0.063 C  
HETATM   28  H   UNL     1      -7.929   9.336  67.508  1.00  0.00     0.000 HD 
BRANCH  27  29
HETATM   29  C   UNL     1      -6.797   8.449  69.731  1.00  0.00    -0.043 C  
HETATM   30  C   UNL     1      -7.248   7.205  68.798  1.00  0.00    -0.094 C  
HETATM   31  N   UNL     1      -6.187   5.664  68.770  1.00  0.00    -0.028 NA 
HETATM   32  C   UNL     1      -5.176   4.570  69.441  1.00  0.00    -0.004 C  
HETATM   33  C   UNL     1      -5.443   6.290  67.904  1.00  0.00    -0.005 C  
HETATM   34  C   UNL     1      -6.886   5.084  67.459  1.00  0.00    -0.060 C  
HETATM   35  C   UNL     1      -8.063   4.711  68.887  1.00  0.00    -0.081 A  
HETATM   36  C   UNL     1      -9.377   4.322  68.975  1.00  0.00    -0.160 A  
HETATM   37  N   UNL     1      -9.809   4.551  70.289  1.00  0.00    -0.220 NA 
HETATM   38  H   UNL     1     -10.758   4.350  70.603  1.00  0.00     0.000 HD 
HETATM   39  C   UNL     1      -8.828   5.077  71.131  1.00  0.00    -0.129 A  
HETATM   40  C   UNL     1      -8.858   5.538  72.457  1.00  0.00    -0.130 A  
HETATM   41  C   UNL     1      -7.696   6.161  72.999  1.00  0.00    -0.101 A  
HETATM   42  C   UNL     1      -6.524   6.443  72.266  1.00  0.00    -0.055 A  
HETATM   43  C   UNL     1      -6.479   6.097  70.921  1.00  0.00    -0.045 A  
HETATM   44  C   UNL     1      -7.687   5.241  70.378  1.00  0.00    -0.076 A  
HETATM   45  C   UNL     1      -5.264   6.859  69.716  1.00  0.00    -0.015 C  
HETATM   46  C   UNL     1      -5.324   8.198  69.807  1.00  0.00    -0.023 C  
ENDBRANCH  27  29
ENDBRANCH  13  25
TORSDOF 4
ENDMDL
MODEL      139
REMARK 921   NORMALIZED FREE ENERGY PREDICTED BY IDOCK:    5.15 KCAL/MOL
REMARK 922        TOTAL FREE ENERGY PREDICTED BY IDOCK:    5.49 KCAL/MOL
REMARK 923 INTER-LIGAND FREE ENERGY PREDICTED BY IDOCK:    3.75 KCAL/MOL
REMARK 924 INTRA-LIGAND FREE ENERGY PREDICTED BY IDOCK:    1.74 KCAL/MOL
REMARK 927      BINDING AFFINITY PREDICTED BY RF-SCORE:    0.00 PKD
ROOT
HETATM    1  C   UNL     1     -10.170  18.625  67.327  1.00  0.00    -0.376 A  
HETATM    2  C   UNL     1     -11.168  19.689  66.842  1.00  0.00    -0.024 A  
HETATM    3  C   UNL     1     -11.138  20.764  67.991  1.00  0.00     1.493 A  
HETATM    4  C   UNL     1     -10.280  20.160  69.096  1.00  0.00    -0.051 A  
HETATM    5  N   UNL     1     -10.245  18.757  68.750  1.00  0.00    -0.338 N  
HETATM    6  C   UNL     1      -9.565  17.899  69.554  1.00  0.00     0.393 C  
HETATM    7  O   UNL     1      -9.760  17.884  70.768  1.00  0.00     2.816 OA 
HETATM    8  C   UNL     1      -8.639  16.909  68.799  1.00  0.00    -0.246 C  
HETATM    9  O   UNL     1      -9.683  15.761  66.906  1.00  0.00    -0.222 OA 
HETATM   10  N   UNL     1      -8.369  17.303  67.189  1.00  0.00    -0.196 N  
HETATM   11  C   UNL     1      -7.832  16.460  66.170  1.00  0.00    -0.022 C  
HETATM   12  H   UNL     1      -9.565  16.618  64.889  1.00  0.00     0.000 HD 
HETATM   13  C   UNL     1      -8.190  15.103  66.647  1.00  0.00    -0.048 C  
HETATM   14  O   UNL     1      -7.228  16.789  65.161  1.00  0.00     1.725 OA 
HETATM   15  O   UNL     1      -9.860  17.434  65.275  1.00  0.00    -0.212 OA 
HETATM   16  C   UNL     1      -6.729  15.135  67.323  1.00  0.00    -0.025 C  
HETATM   17  C   UNL     1      -9.665  17.226  66.666  1.00  0.00    -0.288 C  
ENDROOT
BRANCH   8  18
HETATM   18  C   UNL     1      -7.512  16.602  69.785  1.00  0.00     0.497 C  
BRANCH  18  19
HETATM   19  C   UNL     1      -7.193  15.152  69.917  1.00  0.00    -0.090 A  
HETATM   20  C   UNL     1      -5.513  13.475  70.301  1.00  0.00    -0.127 A  
HETATM   21  C   UNL     1      -6.450  12.491  70.014  1.00  0.00     0.096 A  
HETATM   22  C   UNL     1      -8.136  14.157  69.659  1.00  0.00     0.600 A  
HETATM   23  C   UNL     1      -7.777  12.814  69.681  1.00  0.00     1.088 A  
HETATM   24  C   UNL     1      -5.884  14.806  70.260  1.00  0.00    -0.151 A  
ENDBRANCH  18  19
ENDBRANCH   8  18
BRANCH  13  25
HETATM   25  N   UNL     1      -8.319  13.755  66.127  1.00  0.00     0.353 N  
HETATM   26  O   UNL     1     -10.326  13.331  67.263  1.00  0.00    -0.244 OA 
HETATM   27  C   UNL     1      -9.358  12.913  66.634  1.00  0.00    -0.240 C  
HETATM   28  H   UNL     1      -7.679  13.413  65.411  1.00  0.00     0.000 HD 
BRANCH  27  29
HETATM   29  C   UNL     1      -9.133  11.414  66.361  1.00  0.00    -0.201 C  
HETATM   30  C   UNL     1      -8.605  10.369  67.481  1.00  0.00    -0.125 C  
HETATM   31  N   UNL     1      -9.258   8.616  67.459  1.00  0.00    -0.133 NA 
HETATM   32  C   UNL     1      -9.824   7.273  66.720  1.00  0.00    -0.212 C  
HETATM   33  C   UNL     1     -10.291   9.079  68.104  1.00  0.00    -0.214 C  
HETATM   34  C   UNL     1      -8.729   8.294  68.929  1.00  0.00    -0.137 C  
HETATM   35  C   UNL     1      -7.229   8.156  67.793  1.00  0.00    -0.091 A  
HETATM   36  C   UNL     1      -5.871   8.103  67.993  1.00  0.00    -0.042 A  
HETATM   37  N   UNL     1      -5.243   8.367  66.767  1.00  0.00    -0.031 NA 
HETATM   38  H   UNL     1      -4.229   8.394  66.659  1.00  0.00     0.000 HD 
HETATM   39  C   UNL     1      -6.124   8.590  65.707  1.00  0.00    -0.048 A  
HETATM   40  C   UNL     1      -5.929   8.978  64.373  1.00  0.00    -0.070 A  
HETATM   41  C   UNL     1      -7.067   9.264  63.562  1.00  0.00    -0.090 A  
HETATM   42  C   UNL     1      -8.397   9.281  64.030  1.00  0.00    -0.179 A  
HETATM   43  C   UNL     1      -8.637   9.001  65.370  1.00  0.00    -0.200 A  
HETATM   44  C   UNL     1      -7.401   8.501  66.213  1.00  0.00    -0.079 A  
HETATM   45  C   UNL     1     -10.220   9.495  66.243  1.00  0.00    -0.290 C  
HETATM   46  C   UNL     1     -10.458  10.801  66.034  1.00  0.00    -0.273 C  
ENDBRANCH  27  29
ENDBRANCH  13  25
TORSDOF 4
ENDMDL
MODEL      140
REMARK 921   NORMALIZED FREE ENERGY PREDICTED BY IDOCK:    5.58 KCAL/MOL
REMARK 922        TOTAL FREE ENERGY PREDICTED BY IDOCK:    6.02 KCAL/MOL
REMARK 923 INTER-LIGAND FREE ENERGY PREDICTED BY IDOCK:    2.76 KCAL/MOL
REMARK 924 INTRA-LIGAND FREE ENERGY PREDICTED BY IDOCK:    3.26 KCAL/MOL
REMARK 927      BINDING AFFINITY PREDICTED BY RF-SCORE:    0.00 PKD
ROOT
HETATM    1  C   UNL     1      -6.884  17.134  69.154  1.00  0.00    -0.236 A  
HETATM    2  C   UNL     1      -5.505  17.779  69.368  1.00  0.00    -0.201 A  
HETATM    3  C   UNL     1      -5.824  19.319  69.384  1.00  0.00    -0.276 A  
HETATM    4  C   UNL     1      -7.297  19.437  69.012  1.00  0.00    -0.360 A  
HETATM    5  N   UNL     1      -7.590  18.147  68.431  1.00  0.00    -0.274 N  
HETATM    6  C   UNL     1      -8.841  17.907  67.961  1.00  0.00    -0.268 C  
HETATM    7  O   UNL     1      -9.386  18.694  67.189  1.00  0.00    -0.282 OA 
HETATM    8  C   UNL     1      -9.439  16.543  68.396  1.00  0.00    -0.223 C  
HETATM    9  O   UNL     1      -7.956  14.621  68.081  1.00  0.00    -0.121 OA 
HETATM   10  N   UNL     1      -8.601  15.782  69.637  1.00  0.00    -0.139 N  
HETATM   11  C   UNL     1      -8.708  14.419  70.043  1.00  0.00     1.175 C  
HETATM   12  H   UNL     1      -6.621  13.976  69.698  1.00  0.00     0.000 HD 
HETATM   13  C   UNL     1      -9.154  13.742  68.803  1.00  0.00     0.029 C  
HETATM   14  O   UNL     1      -8.484  13.941  71.144  1.00  0.00     4.498 OA 
HETATM   15  O   UNL     1      -6.348  14.883  69.765  1.00  0.00    -0.129 OA 
HETATM   16  C   UNL     1     -10.630  13.984  69.398  1.00  0.00    -0.021 C  
HETATM   17  C   UNL     1      -7.352  15.579  69.040  1.00  0.00    -0.162 C  
ENDROOT
BRANCH   8  18
HETATM   18  C   UNL     1     -10.950  16.772  68.424  1.00  0.00    -0.325 C  
BRANCH  18  19
HETATM   19  C   UNL     1     -11.631  16.212  69.626  1.00  0.00    -0.244 A  
HETATM   20  C   UNL     1     -13.414  14.850  70.492  1.00  0.00    -0.047 A  
HETATM   21  C   UNL     1     -13.077  15.252  71.778  1.00  0.00    -0.488 A  
HETATM   22  C   UNL     1     -11.282  16.589  70.922  1.00  0.00    -0.034 A  
HETATM   23  C   UNL     1     -12.009  16.135  72.017  1.00  0.00    -0.607 A  
HETATM   24  C   UNL     1     -12.688  15.322  69.415  1.00  0.00     0.189 A  
ENDBRANCH  18  19
ENDBRANCH   8  18
BRANCH  13  25
HETATM   25  N   UNL     1      -9.206  12.406  68.237  1.00  0.00    -0.229 N  
HETATM   26  O   UNL     1      -7.179  11.737  69.205  1.00  0.00    -0.105 OA 
HETATM   27  C   UNL     1      -8.076  11.544  68.389  1.00  0.00    -0.149 C  
HETATM   28  H   UNL     1     -10.037  12.088  67.738  1.00  0.00     0.000 HD 
BRANCH  27  29
HETATM   29  C   UNL     1      -8.055  10.364  67.399  1.00  0.00    -0.107 C  
HETATM   30  C   UNL     1      -8.985   9.048  67.556  1.00  0.00    -0.131 C  
HETATM   31  N   UNL     1      -9.649   8.222  66.014  1.00  0.00    -0.140 NA 
HETATM   32  C   UNL     1      -9.571   7.769  64.446  1.00  0.00     2.714 C  
HETATM   33  C   UNL     1     -10.591   9.121  66.035  1.00  0.00     0.604 C  
HETATM   34  C   UNL     1     -10.724   7.359  66.817  1.00  0.00    -0.132 C  
HETATM   35  C   UNL     1      -9.072   6.475  67.042  1.00  0.00    -0.133 A  
HETATM   36  C   UNL     1      -8.612   5.495  67.887  1.00  0.00    -0.104 A  
HETATM   37  N   UNL     1      -7.210   5.498  67.831  1.00  0.00    -0.071 NA 
HETATM   38  H   UNL     1      -6.633   4.863  68.381  1.00  0.00     0.000 HD 
HETATM   39  C   UNL     1      -6.674   6.446  66.958  1.00  0.00    -0.060 A  
HETATM   40  C   UNL     1      -5.359   6.849  66.681  1.00  0.00    -0.018 A  
HETATM   41  C   UNL     1      -5.143   7.966  65.821  1.00  0.00    -0.025 A  
HETATM   42  C   UNL     1      -6.169   8.776  65.292  1.00  0.00    -0.060 A  
HETATM   43  C   UNL     1      -7.487   8.481  65.617  1.00  0.00    -0.085 A  
HETATM   44  C   UNL     1      -7.730   7.137  66.407  1.00  0.00    -0.100 A  
HETATM   45  C   UNL     1      -8.878   9.726  65.451  1.00  0.00    -0.199 C  
HETATM   46  C   UNL     1      -8.533  10.866  66.073  1.00  0.00    -0.167 C  
ENDBRANCH  27  29
ENDBRANCH  13  25
TORSDOF 4
ENDMDL
MODEL      141
REMARK 921   NORMALIZED FREE ENERGY PREDICTED BY IDOCK:    5.98 KCAL/MOL
REMARK 922        TOTAL FREE ENERGY PREDICTED BY IDOCK:    6.51 KCAL/MOL
REMARK 923 INTER-LIGAND FREE ENERGY PREDICTED BY IDOCK:   -0.30 KCAL/MOL
REMARK 924 INTRA-LIGAND FREE ENERGY PREDICTED BY IDOCK:    6.81 KCAL/MOL
REMARK 927      BINDING AFFINITY PREDICTED BY RF-SCORE:    0.00 PKD
ROOT
HETATM    1  C   UNL     1      -8.287  17.408  66.668  1.00  0.00    -0.263 A  
HETATM    2  C   UNL     1      -9.185  18.088  65.623  1.00  0.00     0.620 A  
HETATM    3  C   UNL     1      -8.756  19.599  65.705  1.00  0.00     0.260 A  
HETATM    4  C   UNL     1      -7.794  19.690  66.883  1.00  0.00    -0.275 A  
HETATM    5  N   UNL     1      -8.047  18.463  67.604  1.00  0.00    -0.247 N  
HETATM    6  C   UNL     1      -7.358  18.220  68.749  1.00  0.00    -0.284 C  
HETATM    7  O   UNL     1      -7.301  19.064  69.641  1.00  0.00    -0.059 OA 
HETATM    8  C   UNL     1      -6.770  16.788  68.853  1.00  0.00    -0.195 C  
HETATM    9  O   UNL     1      -8.345  14.988  68.328  1.00  0.00    -0.136 OA 
HETATM   10  N   UNL     1      -6.778  15.929  67.409  1.00  0.00    -0.182 N  
HETATM   11  C   UNL     1      -6.597  14.524  67.237  1.00  0.00     0.267 C  
HETATM   12  H   UNL     1      -8.510  14.224  66.278  1.00  0.00     0.000 HD 
HETATM   13  C   UNL     1      -7.055  13.975  68.536  1.00  0.00    -0.102 C  
HETATM   14  O   UNL     1      -6.169  13.934  66.258  1.00  0.00     2.825 OA 
HETATM   15  O   UNL     1      -8.590  15.129  66.002  1.00  0.00    -0.004 OA 
HETATM   16  C   UNL     1      -5.500  14.076  68.939  1.00  0.00    -0.082 C  
HETATM   17  C   UNL     1      -8.149  15.856  67.141  1.00  0.00    -0.207 C  
ENDROOT
BRANCH   8  18
HETATM   18  C   UNL     1      -5.527  16.940  69.729  1.00  0.00    -0.184 C  
BRANCH  18  19
HETATM   19  C   UNL     1      -5.476  18.213  70.503  1.00  0.00    -0.238 A  
HETATM   20  C   UNL     1      -5.336  20.613  70.446  1.00  0.00    -0.320 A  
HETATM   21  C   UNL     1      -5.207  20.623  71.829  1.00  0.00    -0.249 A  
HETATM   22  C   UNL     1      -5.375  18.234  71.894  1.00  0.00     0.273 A  
HETATM   23  C   UNL     1      -5.217  19.434  72.578  1.00  0.00     1.225 A  
HETATM   24  C   UNL     1      -5.478  19.410  69.781  1.00  0.00    -0.231 A  
ENDBRANCH  18  19
ENDBRANCH   8  18
BRANCH  13  25
HETATM   25  N   UNL     1      -7.495  12.713  69.101  1.00  0.00    -0.323 N  
HETATM   26  O   UNL     1      -5.796  12.652  70.715  1.00  0.00    -0.239 OA 
HETATM   27  C   UNL     1      -6.686  12.078  70.094  1.00  0.00     0.445 C  
HETATM   28  H   UNL     1      -8.370  12.286  68.795  1.00  0.00     0.000 HD 
BRANCH  27  29
HETATM   29  C   UNL     1      -6.998  10.582  70.288  1.00  0.00    -0.046 C  
HETATM   30  C   UNL     1      -7.357   9.577  69.069  1.00  0.00    -0.072 C  
HETATM   31  N   UNL     1      -6.769   7.803  69.158  1.00  0.00    -0.047 NA 
HETATM   32  C   UNL     1      -6.377   6.428  69.949  1.00  0.00    -0.039 C  
HETATM   33  C   UNL     1      -5.629   8.244  68.709  1.00  0.00    -0.036 C  
HETATM   34  C   UNL     1      -7.049   7.527  67.612  1.00  0.00    -0.085 C  
HETATM   35  C   UNL     1      -8.724   7.417  68.474  1.00  0.00    -0.127 A  
HETATM   36  C   UNL     1     -10.029   7.413  68.046  1.00  0.00    -0.164 A  
HETATM   37  N   UNL     1     -10.849   7.674  69.153  1.00  0.00    -0.404 NA 
HETATM   38  H   UNL     1     -11.865   7.732  69.088  1.00  0.00     0.000 HD 
HETATM   39  C   UNL     1     -10.155   7.847  70.352  1.00  0.00    -0.194 A  
HETATM   40  C   UNL     1     -10.563   8.216  71.643  1.00  0.00    -0.292 A  
HETATM   41  C   UNL     1      -9.572   8.448  72.642  1.00  0.00    -0.337 A  
HETATM   42  C   UNL     1      -8.181   8.430  72.407  1.00  0.00    -0.202 A  
HETATM   43  C   UNL     1      -7.725   8.169  71.121  1.00  0.00    -0.092 A  
HETATM   44  C   UNL     1      -8.814   7.726  70.068  1.00  0.00    -0.142 A  
HETATM   45  C   UNL     1      -6.004   8.627  70.541  1.00  0.00    -0.031 C  
HETATM   46  C   UNL     1      -5.767   9.919  70.820  1.00  0.00    -0.080 C  
ENDBRANCH  27  29
ENDBRANCH  13  25
TORSDOF 4
ENDMDL
MODEL      142
REMARK 921   NORMALIZED FREE ENERGY PREDICTED BY IDOCK:    7.07 KCAL/MOL
REMARK 922        TOTAL FREE ENERGY PREDICTED BY IDOCK:    7.86 KCAL/MOL
REMARK 923 INTER-LIGAND FREE ENERGY PREDICTED BY IDOCK:    6.84 KCAL/MOL
REMARK 924 INTRA-LIGAND FREE ENERGY PREDICTED BY IDOCK:    1.02 KCAL/MOL
REMARK 927      BINDING AFFINITY PREDICTED BY RF-SCORE:    0.00 PKD
ROOT
HETATM    1  C   UNL     1      -7.303   9.051  65.683  1.00  0.00    -0.086 A  
HETATM    2  C   UNL     1      -5.960   8.597  65.090  1.00  0.00    -0.048 A  
HETATM    3  C   UNL     1      -5.818   7.118  65.607  1.00  0.00    -0.036 A  
HETATM    4  C   UNL     1      -6.977   6.908  66.574  1.00  0.00    -0.066 A  
HETATM    5  N   UNL     1      -7.402   8.257  66.869  1.00  0.00    -0.083 N  
HETATM    6  C   UNL     1      -8.429   8.446  67.737  1.00  0.00    -0.131 C  
HETATM    7  O   UNL     1      -8.431   7.903  68.840  1.00  0.00    -0.126 OA 
HETATM    8  C   UNL     1      -9.499   9.462  67.254  1.00  0.00    -0.169 C  
HETATM    9  O   UNL     1      -8.603  11.580  66.415  1.00  0.00    -0.178 OA 
HETATM   10  N   UNL     1      -9.389   9.863  65.627  1.00  0.00    -0.195 N  
HETATM   11  C   UNL     1     -10.008  10.965  64.964  1.00  0.00    -0.298 C  
HETATM   12  H   UNL     1      -8.144  11.821  64.283  1.00  0.00     0.000 HD 
HETATM   13  C   UNL     1     -10.172  11.953  66.057  1.00  0.00    -0.229 C  
HETATM   14  O   UNL     1     -10.321  11.057  63.788  1.00  0.00    -0.342 OA 
HETATM   15  O   UNL     1      -7.667  11.003  64.346  1.00  0.00     0.324 OA 
HETATM   16  C   UNL     1     -11.631  11.290  66.213  1.00  0.00     0.250 C  
HETATM   17  C   UNL     1      -8.122  10.455  65.575  1.00  0.00    -0.156 C  
ENDROOT
BRANCH   8  18
HETATM   18  C   UNL     1     -10.798   9.003  67.917  1.00  0.00    -0.118 C  
BRANCH  18  19
HETATM   19  C   UNL     1     -11.380   9.990  68.870  1.00  0.00    -0.123 A  
HETATM   20  C   UNL     1     -11.247  12.184  69.845  1.00  0.00     0.018 A  
HETATM   21  C   UNL     1     -12.265  11.839  70.725  1.00  0.00    -0.424 A  
HETATM   22  C   UNL     1     -12.421   9.661  69.738  1.00  0.00     0.702 A  
HETATM   23  C   UNL     1     -12.867  10.569  70.692  1.00  0.00    -0.407 A  
HETATM   24  C   UNL     1     -10.807  11.264  68.912  1.00  0.00    -0.253 A  
ENDBRANCH  18  19
ENDBRANCH   8  18
BRANCH  13  25
HETATM   25  N   UNL     1     -10.400  13.376  66.226  1.00  0.00    -0.285 N  
HETATM   26  O   UNL     1      -8.312  13.984  65.352  1.00  0.00     2.522 OA 
HETATM   27  C   UNL     1      -9.326  14.285  65.975  1.00  0.00    -0.109 C  
HETATM   28  H   UNL     1     -11.314  13.722  66.519  1.00  0.00     0.000 HD 
BRANCH  27  29
HETATM   29  C   UNL     1      -9.531  15.678  66.601  1.00  0.00    -0.282 C  
HETATM   30  C   UNL     1      -8.566  16.944  66.303  1.00  0.00    -0.319 C  
HETATM   31  N   UNL     1      -9.318  18.655  66.224  1.00  0.00    -0.436 NA 
HETATM   32  C   UNL     1     -10.400  19.801  66.657  1.00  0.00    -0.496 C  
HETATM   33  C   UNL     1      -9.639  18.368  64.994  1.00  0.00     2.760 C  
HETATM   34  C   UNL     1      -8.032  19.298  65.533  1.00  0.00     0.391 C  
HETATM   35  C   UNL     1      -7.619  19.148  67.368  1.00  0.00    -0.256 A  
HETATM   36  C   UNL     1      -6.462  19.225  68.104  1.00  0.00    -0.224 A  
HETATM   37  N   UNL     1      -6.717  18.677  69.369  1.00  0.00    -0.239 NA 
HETATM   38  H   UNL     1      -6.005  18.610  70.097  1.00  0.00     0.000 HD 
HETATM   39  C   UNL     1      -8.027  18.230  69.547  1.00  0.00     0.531 A  
HETATM   40  C   UNL     1      -8.665  17.542  70.591  1.00  0.00     4.905 A  
HETATM   41  C   UNL     1     -10.006  17.095  70.407  1.00  0.00     1.625 A  
HETATM   42  C   UNL     1     -10.727  17.207  69.200  1.00  0.00    -0.184 A  
HETATM   43  C   UNL     1     -10.106  17.790  68.103  1.00  0.00    -0.362 A  
HETATM   44  C   UNL     1      -8.698  18.452  68.366  1.00  0.00    -0.337 A  
HETATM   45  C   UNL     1     -10.699  17.535  66.344  1.00  0.00    -0.083 C  
HETATM   46  C   UNL     1     -10.834  16.220  66.105  1.00  0.00    -0.105 C  
ENDBRANCH  27  29
ENDBRANCH  13  25
TORSDOF 4
ENDMDL
MODEL      143
REMARK 921   NORMALIZED FREE ENERGY PREDICTED BY IDOCK:    7.36 KCAL/MOL
REMARK 922        TOTAL FREE ENERGY PREDICTED BY IDOCK:    8.21 KCAL/MOL
REMARK 923 INTER-LIGAND FREE ENERGY PREDICTED BY IDOCK:    5.24 KCAL/MOL
REMARK 924 INTRA-LIGAND FREE ENERGY PREDICTED BY IDOCK:    2.98 KCAL/MOL
REMARK 927      BINDING AFFINITY PREDICTED BY RF-SCORE:    0.00 PKD
ROOT
HETATM    1  C   UNL     1      -6.864  17.039  69.369  1.00  0.00    -0.179 A  
HETATM    2  C   UNL     1      -5.448  17.476  69.776  1.00  0.00    -0.217 A  
HETATM    3  C   UNL     1      -5.615  19.011  70.076  1.00  0.00    -0.245 A  
HETATM    4  C   UNL     1      -7.038  19.359  69.658  1.00  0.00    -0.126 A  
HETATM    5  N   UNL     1      -7.413  18.242  68.822  1.00  0.00    -0.295 N  
HETATM    6  C   UNL     1      -8.645  18.235  68.250  1.00  0.00    -0.285 C  
HETATM    7  O   UNL     1      -9.053  19.208  67.619  1.00  0.00    -0.290 OA 
HETATM    8  C   UNL     1      -9.405  16.888  68.378  1.00  0.00    -0.255 C  
HETATM    9  O   UNL     1      -8.098  14.908  67.771  1.00  0.00    -0.133 OA 
HETATM   10  N   UNL     1      -8.737  15.819  69.488  1.00  0.00    -0.229 N  
HETATM   11  C   UNL     1      -9.007  14.423  69.615  1.00  0.00     0.605 C  
HETATM   12  H   UNL     1      -6.954  13.826  69.299  1.00  0.00     0.000 HD 
HETATM   13  C   UNL     1      -9.427  14.046  68.244  1.00  0.00    -0.216 C  
HETATM   14  O   UNL     1      -8.912  13.725  70.612  1.00  0.00     3.735 OA 
HETATM   15  O   UNL     1      -6.599  14.668  69.556  1.00  0.00    -0.126 OA 
HETATM   16  C   UNL     1     -10.911  14.333  68.798  1.00  0.00    -0.271 C  
HETATM   17  C   UNL     1      -7.474  15.595  68.929  1.00  0.00    -0.162 C  
ENDROOT
BRANCH   8  18
HETATM   18  C   UNL     1     -10.884  17.273  68.372  1.00  0.00    -0.273 C  
BRANCH  18  19
HETATM   19  C   UNL     1     -11.688  16.628  69.448  1.00  0.00     0.416 A  
HETATM   20  C   UNL     1     -13.603  15.290  70.018  1.00  0.00     0.779 A  
HETATM   21  C   UNL     1     -13.352  15.529  71.363  1.00  0.00    -0.592 A  
HETATM   22  C   UNL     1     -11.426  16.840  70.801  1.00  0.00     0.398 A  
HETATM   23  C   UNL     1     -12.262  16.314  71.779  1.00  0.00    -0.327 A  
HETATM   24  C   UNL     1     -12.768  15.832  69.059  1.00  0.00     0.772 A  
ENDBRANCH  18  19
ENDBRANCH   8  18
BRANCH  13  25
HETATM   25  N   UNL     1      -9.569  12.855  67.427  1.00  0.00    -0.198 N  
HETATM   26  O   UNL     1      -7.670  11.812  68.322  1.00  0.00    -0.114 OA 
HETATM   27  C   UNL     1      -8.533  11.871  67.451  1.00  0.00    -0.166 C  
HETATM   28  H   UNL     1     -10.396  12.723  66.845  1.00  0.00     0.000 HD 
BRANCH  27  29
HETATM   29  C   UNL     1      -8.565  10.905  66.251  1.00  0.00    -0.164 C  
HETATM   30  C   UNL     1      -8.107   9.354  66.337  1.00  0.00    -0.108 C  
HETATM   31  N   UNL     1      -9.020   8.084  65.310  1.00  0.00     0.044 NA 
HETATM   32  C   UNL     1      -9.847   7.588  63.991  1.00  0.00     4.778 C  
HETATM   33  C   UNL     1      -9.909   8.072  66.262  1.00  0.00    -0.091 C  
HETATM   34  C   UNL     1      -8.419   6.849  66.121  1.00  0.00    -0.136 C  
HETATM   35  C   UNL     1      -7.063   7.400  64.929  1.00  0.00    -0.060 A  
HETATM   36  C   UNL     1      -5.717   7.149  64.821  1.00  0.00    -0.033 A  
HETATM   37  N   UNL     1      -5.166   8.113  63.963  1.00  0.00    -0.040 NA 
HETATM   38  H   UNL     1      -4.173   8.144  63.731  1.00  0.00     0.000 HD 
HETATM   39  C   UNL     1      -6.092   9.026  63.456  1.00  0.00    -0.088 A  
HETATM   40  C   UNL     1      -5.958  10.180  62.669  1.00  0.00    -0.118 A  
HETATM   41  C   UNL     1      -7.105  10.993  62.432  1.00  0.00     0.018 A  
HETATM   42  C   UNL     1      -8.371  10.777  63.015  1.00  0.00    -0.086 A  
HETATM   43  C   UNL     1      -8.533   9.705  63.883  1.00  0.00    -0.190 A  
HETATM   44  C   UNL     1      -7.319   8.703  63.992  1.00  0.00    -0.106 A  
HETATM   45  C   UNL     1      -9.938   9.599  65.117  1.00  0.00    -0.082 C  
HETATM   46  C   UNL     1      -9.991  10.735  65.833  1.00  0.00    -0.304 C  
ENDBRANCH  27  29
ENDBRANCH  13  25
TORSDOF 4
ENDMDL
MODEL      144
REMARK 921   NORMALIZED FREE ENERGY PREDICTED BY IDOCK:   10.26 KCAL/MOL
REMARK 922        TOTAL FREE ENERGY PREDICTED BY IDOCK:   11.80 KCAL/MOL
REMARK 923 INTER-LIGAND FREE ENERGY PREDICTED BY IDOCK:   11.33 KCAL/MOL
REMARK 924 INTRA-LIGAND FREE ENERGY PREDICTED BY IDOCK:    0.47 KCAL/MOL
REMARK 927      BINDING AFFINITY PREDICTED BY RF-SCORE:    0.00 PKD
ROOT
HETATM    1  C   UNL     1      -6.941  15.133  66.720  1.00  0.00     0.832 A  
HETATM    2  C   UNL     1      -5.884  16.112  66.187  1.00  0.00     2.050 A  
HETATM    3  C   UNL     1      -6.662  17.477  66.104  1.00  0.00    -0.298 A  
HETATM    4  C   UNL     1      -8.114  17.141  66.422  1.00  0.00    -0.302 A  
HETATM    5  N   UNL     1      -8.162  15.708  66.245  1.00  0.00    -0.103 N  
HETATM    6  C   UNL     1      -9.342  15.062  66.434  1.00  0.00    -0.303 C  
HETATM    7  O   UNL     1     -10.368  15.449  65.878  1.00  0.00    -0.297 OA 
HETATM    8  C   UNL     1      -9.241  13.778  67.298  1.00  0.00    -0.239 C  
HETATM    9  O   UNL     1      -7.446  12.242  66.654  1.00  0.00     0.047 OA 
HETATM   10  N   UNL     1      -7.791  13.616  68.130  1.00  0.00    -0.131 N  
HETATM   11  C   UNL     1      -7.275  12.438  68.749  1.00  0.00    -0.094 C  
HETATM   12  H   UNL     1      -5.462  12.409  67.575  1.00  0.00     0.000 HD 
HETATM   13  C   UNL     1      -7.912  11.352  67.966  1.00  0.00    -0.127 C  
HETATM   14  O   UNL     1      -6.503  12.358  69.691  1.00  0.00    -0.119 OA 
HETATM   15  O   UNL     1      -5.501  13.335  67.368  1.00  0.00    -0.334 OA 
HETATM   16  C   UNL     1      -9.037  11.406  69.117  1.00  0.00     0.177 C  
HETATM   17  C   UNL     1      -6.875  13.545  67.075  1.00  0.00     0.651 C  
ENDROOT
BRANCH   8  18
HETATM   18  C   UNL     1     -10.608  13.651  67.968  1.00  0.00    -0.256 C  
BRANCH  18  19
HETATM   19  C   UNL     1     -11.058  14.881  68.680  1.00  0.00    -0.272 A  
HETATM   20  C   UNL     1     -12.905  16.232  69.418  1.00  0.00     1.718 A  
HETATM   21  C   UNL     1     -12.007  17.211  69.826  1.00  0.00     2.579 A  
HETATM   22  C   UNL     1     -10.162  15.857  69.117  1.00  0.00    -0.234 A  
HETATM   23  C   UNL     1     -10.619  17.044  69.677  1.00  0.00    -0.087 A  
HETATM   24  C   UNL     1     -12.432  15.063  68.851  1.00  0.00     0.109 A  
ENDBRANCH  18  19
ENDBRANCH   8  18
BRANCH  13  25
HETATM   25  N   UNL     1      -7.732   9.937  67.701  1.00  0.00    -0.091 N  
HETATM   26  O   UNL     1     -10.030   9.473  67.704  1.00  0.00    -0.161 OA 
HETATM   27  C   UNL     1      -8.870   9.073  67.744  1.00  0.00    -0.124 C  
HETATM   28  H   UNL     1      -6.807   9.564  67.487  1.00  0.00     0.000 HD 
BRANCH  27  29
HETATM   29  C   UNL     1      -8.514   7.582  67.895  1.00  0.00    -0.122 C  
HETATM   30  C   UNL     1      -8.852   6.462  66.775  1.00  0.00    -0.124 C  
HETATM   31  N   UNL     1      -7.648   5.055  66.511  1.00  0.00    -0.087 NA 
HETATM   32  C   UNL     1      -6.530   3.972  67.007  1.00  0.00    -0.041 C  
HETATM   33  C   UNL     1      -6.976   5.879  65.758  1.00  0.00    -0.065 C  
HETATM   34  C   UNL     1      -8.301   4.624  65.121  1.00  0.00    -0.126 C  
HETATM   35  C   UNL     1      -9.422   3.919  66.464  1.00  0.00    -0.211 A  
HETATM   36  C   UNL     1     -10.692   3.396  66.482  1.00  0.00     2.727 A  
HETATM   37  N   UNL     1     -11.131   3.372  67.814  1.00  0.00     4.540 NA 
HETATM   38  H   UNL     1     -12.054   3.034  68.087  1.00  0.00     0.000 HD 
HETATM   39  C   UNL     1     -10.198   3.852  68.734  1.00  0.00     0.681 A  
HETATM   40  C   UNL     1     -10.259   4.093  70.116  1.00  0.00     0.211 A  
HETATM   41  C   UNL     1      -9.158   4.732  70.756  1.00  0.00    -0.178 A  
HETATM   42  C   UNL     1      -8.026   5.237  70.084  1.00  0.00    -0.080 A  
HETATM   43  C   UNL     1      -7.960   5.113  68.701  1.00  0.00    -0.086 A  
HETATM   44  C   UNL     1      -9.086   4.241  68.023  1.00  0.00    -0.165 A  
HETATM   45  C   UNL     1      -6.835   6.170  67.639  1.00  0.00    -0.060 C  
HETATM   46  C   UNL     1      -7.023   7.465  67.940  1.00  0.00    -0.072 C  
ENDBRANCH  27  29
ENDBRANCH  13  25
TORSDOF 4
ENDMDL
MODEL      145
REMARK 921   NORMALIZED FREE ENERGY PREDICTED BY IDOCK:   11.37 KCAL/MOL
REMARK 922        TOTAL FREE ENERGY PREDICTED BY IDOCK:   13.17 KCAL/MOL
REMARK 923 INTER-LIGAND FREE ENERGY PREDICTED BY IDOCK:    6.20 KCAL/MOL
REMARK 924 INTRA-LIGAND FREE ENERGY PREDICTED BY IDOCK:    6.97 KCAL/MOL
REMARK 927      BINDING AFFINITY PREDICTED BY RF-SCORE:    0.00 PKD
ROOT
HETATM    1  C   UNL     1      -7.730  17.886  66.708  1.00  0.00    -0.223 A  
HETATM    2  C   UNL     1      -8.521  18.614  65.610  1.00  0.00     0.605 A  
HETATM    3  C   UNL     1      -8.028  20.103  65.734  1.00  0.00    -0.124 A  
HETATM    4  C   UNL     1      -7.146  20.141  66.977  1.00  0.00    -0.238 A  
HETATM    5  N   UNL     1      -7.506  18.923  67.667  1.00  0.00    -0.225 N  
HETATM    6  C   UNL     1      -6.910  18.642  68.854  1.00  0.00    -0.283 C  
HETATM    7  O   UNL     1      -6.874  19.477  69.756  1.00  0.00    -0.286 OA 
HETATM    8  C   UNL     1      -6.398  17.183  68.986  1.00  0.00    -0.204 C  
HETATM    9  O   UNL     1      -8.016  15.462  68.339  1.00  0.00    -0.125 OA 
HETATM   10  N   UNL     1      -6.347  16.333  67.538  1.00  0.00    -0.146 N  
HETATM   11  C   UNL     1      -6.221  14.922  67.367  1.00  0.00     0.133 C  
HETATM   12  H   UNL     1      -8.076  14.718  66.276  1.00  0.00     0.000 HD 
HETATM   13  C   UNL     1      -6.793  14.388  68.625  1.00  0.00    -0.096 C  
HETATM   14  O   UNL     1      -5.755  14.317  66.414  1.00  0.00     2.439 OA 
HETATM   15  O   UNL     1      -8.094  15.628  66.003  1.00  0.00     0.168 OA 
HETATM   16  C   UNL     1      -5.267  14.413  69.136  1.00  0.00    -0.078 C  
HETATM   17  C   UNL     1      -7.699  16.327  67.175  1.00  0.00    -0.188 C  
ENDROOT
BRANCH   8  18
HETATM   18  C   UNL     1      -5.213  17.271  69.947  1.00  0.00    -0.192 C  
BRANCH  18  19
HETATM   19  C   UNL     1      -5.272  18.426  70.887  1.00  0.00    -0.274 A  
HETATM   20  C   UNL     1      -5.312  20.814  71.160  1.00  0.00    -0.126 A  
HETATM   21  C   UNL     1      -5.209  20.645  72.535  1.00  0.00     0.877 A  
HETATM   22  C   UNL     1      -5.198  18.263  72.270  1.00  0.00     1.184 A  
HETATM   23  C   UNL     1      -5.143  19.366  73.115  1.00  0.00     5.079 A  
HETATM   24  C   UNL     1      -5.351  19.707  70.334  1.00  0.00    -0.255 A  
ENDBRANCH  18  19
ENDBRANCH   8  18
BRANCH  13  25
HETATM   25  N   UNL     1      -7.330  13.146  69.148  1.00  0.00    -0.305 N  
HETATM   26  O   UNL     1      -5.674  11.817  68.154  1.00  0.00    -0.046 OA 
HETATM   27  C   UNL     1      -6.764  11.908  68.713  1.00  0.00    -0.088 C  
HETATM   28  H   UNL     1      -8.100  13.156  69.818  1.00  0.00     0.000 HD 
BRANCH  27  29
HETATM   29  C   UNL     1      -7.669  10.687  68.964  1.00  0.00    -0.130 C  
HETATM   30  C   UNL     1      -8.754  10.608  70.165  1.00  0.00     0.889 C  
HETATM   31  N   UNL     1     -10.365   9.704  69.869  1.00  0.00    -0.230 NA 
HETATM   32  C   UNL     1     -11.286   8.537  69.191  1.00  0.00     0.345 C  
HETATM   33  C   UNL     1     -10.784  10.801  69.307  1.00  0.00    -0.229 C  
HETATM   34  C   UNL     1     -11.067  10.326  71.159  1.00  0.00     0.082 C  
HETATM   35  C   UNL     1      -9.959   8.934  71.788  1.00  0.00    -0.397 A  
HETATM   36  C   UNL     1      -9.483   8.566  73.023  1.00  0.00    -0.057 A  
HETATM   37  N   UNL     1      -8.420   7.672  72.828  1.00  0.00    -0.119 NA 
HETATM   38  H   UNL     1      -7.893   7.262  73.598  1.00  0.00     0.000 HD 
HETATM   39  C   UNL     1      -8.145   7.392  71.488  1.00  0.00    -0.100 A  
HETATM   40  C   UNL     1      -7.131   6.653  70.858  1.00  0.00    -0.069 A  
HETATM   41  C   UNL     1      -7.042   6.673  69.436  1.00  0.00    -0.080 A  
HETATM   42  C   UNL     1      -7.850   7.469  68.596  1.00  0.00    -0.121 A  
HETATM   43  C   UNL     1      -8.803   8.296  69.175  1.00  0.00    -0.143 A  
HETATM   44  C   UNL     1      -9.026   8.127  70.728  1.00  0.00    -0.156 A  
HETATM   45  C   UNL     1      -9.555   9.761  68.282  1.00  0.00    -0.155 C  
HETATM   46  C   UNL     1      -8.574  10.532  67.783  1.00  0.00    -0.118 C  
ENDBRANCH  27  29
ENDBRANCH  13  25
TORSDOF 4
ENDMDL
MODEL      146
REMARK 921   NORMALIZED FREE ENERGY PREDICTED BY IDOCK:   11.61 KCAL/MOL
REMARK 922        TOTAL FREE ENERGY PREDICTED BY IDOCK:   13.46 KCAL/MOL
REMARK 923 INTER-LIGAND FREE ENERGY PREDICTED BY IDOCK:    6.50 KCAL/MOL
REMARK 924 INTRA-LIGAND FREE ENERGY PREDICTED BY IDOCK:    6.96 KCAL/MOL
REMARK 927      BINDING AFFINITY PREDICTED BY RF-SCORE:    0.00 PKD
ROOT
HETATM    1  C   UNL     1      -7.730  17.886  66.708  1.00  0.00    -0.223 A  
HETATM    2  C   UNL     1      -8.521  18.614  65.610  1.00  0.00     0.605 A  
HETATM    3  C   UNL     1      -8.028  20.103  65.734  1.00  0.00    -0.124 A  
HETATM    4  C   UNL     1      -7.146  20.141  66.977  1.00  0.00    -0.238 A  
HETATM    5  N   UNL     1      -7.506  18.923  67.667  1.00  0.00    -0.225 N  
HETATM    6  C   UNL     1      -6.910  18.642  68.854  1.00  0.00    -0.283 C  
HETATM    7  O   UNL     1      -6.874  19.477  69.756  1.00  0.00    -0.286 OA 
HETATM    8  C   UNL     1      -6.398  17.183  68.986  1.00  0.00    -0.204 C  
HETATM    9  O   UNL     1      -8.016  15.462  68.339  1.00  0.00    -0.125 OA 
HETATM   10  N   UNL     1      -6.347  16.333  67.538  1.00  0.00    -0.146 N  
HETATM   11  C   UNL     1      -6.221  14.922  67.367  1.00  0.00     0.133 C  
HETATM   12  H   UNL     1      -8.076  14.718  66.276  1.00  0.00     0.000 HD 
HETATM   13  C   UNL     1      -6.793  14.388  68.625  1.00  0.00    -0.096 C  
HETATM   14  O   UNL     1      -5.755  14.317  66.414  1.00  0.00     2.439 OA 
HETATM   15  O   UNL     1      -8.094  15.628  66.003  1.00  0.00     0.168 OA 
HETATM   16  C   UNL     1      -5.267  14.413  69.136  1.00  0.00    -0.078 C  
HETATM   17  C   UNL     1      -7.699  16.327  67.175  1.00  0.00    -0.188 C  
ENDROOT
BRANCH   8  18
HETATM   18  C   UNL     1      -5.213  17.271  69.947  1.00  0.00    -0.192 C  
BRANCH  18  19
HETATM   19  C   UNL     1      -5.272  18.426  70.887  1.00  0.00    -0.274 A  
HETATM   20  C   UNL     1      -5.312  20.814  71.160  1.00  0.00    -0.126 A  
HETATM   21  C   UNL     1      -5.209  20.645  72.535  1.00  0.00     0.877 A  
HETATM   22  C   UNL     1      -5.198  18.263  72.270  1.00  0.00     1.184 A  
HETATM   23  C   UNL     1      -5.143  19.366  73.115  1.00  0.00     5.079 A  
HETATM   24  C   UNL     1      -5.351  19.707  70.334  1.00  0.00    -0.255 A  
ENDBRANCH  18  19
ENDBRANCH   8  18
BRANCH  13  25
HETATM   25  N   UNL     1      -7.330  13.146  69.148  1.00  0.00    -0.305 N  
HETATM   26  O   UNL     1      -5.674  11.817  68.154  1.00  0.00    -0.046 OA 
HETATM   27  C   UNL     1      -6.764  11.908  68.713  1.00  0.00    -0.088 C  
HETATM   28  H   UNL     1      -8.100  13.156  69.818  1.00  0.00     0.000 HD 
BRANCH  27  29
HETATM   29  C   UNL     1      -7.669  10.687  68.964  1.00  0.00    -0.130 C  
HETATM   30  C   UNL     1      -7.132   9.285  69.572  1.00  0.00    -0.060 C  
HETATM   31  N   UNL     1      -8.248   8.309  70.715  1.00  0.00    -0.108 NA 
HETATM   32  C   UNL     1      -9.701   7.786  71.247  1.00  0.00    -0.157 C  
HETATM   33  C   UNL     1      -7.831   9.099  71.663  1.00  0.00     0.219 C  
HETATM   34  C   UNL     1      -7.065   7.376  71.237  1.00  0.00    -0.063 C  
HETATM   35  C   UNL     1      -7.560   6.695  69.548  1.00  0.00    -0.095 A  
HETATM   36  C   UNL     1      -6.988   5.818  68.659  1.00  0.00    -0.071 A  
HETATM   37  N   UNL     1      -7.633   5.975  67.423  1.00  0.00    -0.092 NA 
HETATM   38  H   UNL     1      -7.379   5.438  66.594  1.00  0.00     0.000 HD 
HETATM   39  C   UNL     1      -8.651   6.929  67.424  1.00  0.00    -0.121 A  
HETATM   40  C   UNL     1      -9.459   7.461  66.407  1.00  0.00    -0.194 A  
HETATM   41  C   UNL     1     -10.330   8.548  66.713  1.00  0.00    -0.346 A  
HETATM   42  C   UNL     1     -10.376   9.209  67.958  1.00  0.00    -0.272 A  
HETATM   43  C   UNL     1      -9.523   8.787  68.970  1.00  0.00    -0.160 A  
HETATM   44  C   UNL     1      -8.704   7.468  68.690  1.00  0.00    -0.128 A  
HETATM   45  C   UNL     1      -9.085   9.859  70.443  1.00  0.00    -0.021 C  
HETATM   46  C   UNL     1      -8.669  11.061  70.013  1.00  0.00     1.316 C  
ENDBRANCH  27  29
ENDBRANCH  13  25
TORSDOF 4
ENDMDL
MODEL      147
REMARK 921   NORMALIZED FREE ENERGY PREDICTED BY IDOCK:   12.26 KCAL/MOL
REMARK 922        TOTAL FREE ENERGY PREDICTED BY IDOCK:   14.27 KCAL/MOL
REMARK 923 INTER-LIGAND FREE ENERGY PREDICTED BY IDOCK:    9.99 KCAL/MOL
REMARK 924 INTRA-LIGAND FREE ENERGY PREDICTED BY IDOCK:    4.28 KCAL/MOL
REMARK 927      BINDING AFFINITY PREDICTED BY RF-SCORE:    0.00 PKD
ROOT
HETATM    1  C   UNL     1     -11.595  11.116  70.360  1.00  0.00    -0.259 A  
HETATM    2  C   UNL     1     -12.578  11.011  71.538  1.00  0.00    -0.461 A  
HETATM    3  C   UNL     1     -13.161   9.556  71.395  1.00  0.00    -0.449 A  
HETATM    4  C   UNL     1     -12.609   9.021  70.079  1.00  0.00     1.164 A  
HETATM    5  N   UNL     1     -12.163  10.217  69.403  1.00  0.00     0.062 N  
HETATM    6  C   UNL     1     -11.622  10.107  68.162  1.00  0.00     0.234 C  
HETATM    7  O   UNL     1     -12.200   9.482  67.275  1.00  0.00     3.324 OA 
HETATM    8  C   UNL     1     -10.310  10.910  67.960  1.00  0.00    -0.212 C  
HETATM    9  O   UNL     1     -10.399  13.236  68.721  1.00  0.00    -0.221 OA 
HETATM   10  N   UNL     1      -9.612  11.467  69.383  1.00  0.00     0.263 N  
HETATM   11  C   UNL     1      -8.602  12.465  69.518  1.00  0.00     1.530 C  
HETATM   12  H   UNL     1      -9.804  13.755  70.768  1.00  0.00     0.000 HD 
HETATM   13  C   UNL     1      -8.800  13.296  68.307  1.00  0.00    -0.168 C  
HETATM   14  O   UNL     1      -7.782  12.592  70.414  1.00  0.00     2.277 OA 
HETATM   15  O   UNL     1     -10.377  13.054  71.057  1.00  0.00     4.557 OA 
HETATM   16  C   UNL     1      -7.687  12.328  67.662  1.00  0.00    -0.144 C  
HETATM   17  C   UNL     1     -10.614  12.317  69.866  1.00  0.00     1.017 C  
ENDROOT
BRANCH   8  18
HETATM   18  C   UNL     1      -9.535  10.130  66.898  1.00  0.00    -0.203 C  
BRANCH  18  19
HETATM   19  C   UNL     1      -9.653   8.649  67.020  1.00  0.00    -0.240 A  
HETATM   20  C   UNL     1      -8.521   6.538  67.221  1.00  0.00    -0.112 A  
HETATM   21  C   UNL     1      -9.740   5.887  67.080  1.00  0.00    -0.158 A  
HETATM   22  C   UNL     1     -10.877   7.989  66.908  1.00  0.00    -0.023 A  
HETATM   23  C   UNL     1     -10.940   6.600  66.914  1.00  0.00    -0.396 A  
HETATM   24  C   UNL     1      -8.476   7.919  67.199  1.00  0.00    -0.117 A  
ENDBRANCH  18  19
ENDBRANCH   8  18
BRANCH  13  25
HETATM   25  N   UNL     1      -8.460  14.618  67.813  1.00  0.00    -0.164 N  
HETATM   26  O   UNL     1      -6.333  13.975  67.067  1.00  0.00    -0.019 OA 
HETATM   27  C   UNL     1      -7.130  14.864  67.350  1.00  0.00    -0.164 C  
HETATM   28  H   UNL     1      -9.160  15.360  67.797  1.00  0.00     0.000 HD 
BRANCH  27  29
HETATM   29  C   UNL     1      -6.763  16.359  67.280  1.00  0.00    -0.221 C  
HETATM   30  C   UNL     1      -7.686  17.538  67.896  1.00  0.00    -0.213 C  
HETATM   31  N   UNL     1      -6.855  19.034  68.652  1.00  0.00    -0.269 NA 
HETATM   32  C   UNL     1      -5.661  20.144  68.769  1.00  0.00    -0.243 C  
HETATM   33  C   UNL     1      -6.723  18.315  69.730  1.00  0.00     0.094 C  
HETATM   34  C   UNL     1      -8.185  19.530  69.380  1.00  0.00     0.119 C  
HETATM   35  C   UNL     1      -8.350  20.058  67.576  1.00  0.00    -0.381 A  
HETATM   36  C   UNL     1      -9.390  20.497  66.793  1.00  0.00    -0.244 A  
HETATM   37  N   UNL     1      -8.995  20.390  65.451  1.00  0.00    -0.244 NA 
HETATM   38  H   UNL     1      -9.602  20.648  64.674  1.00  0.00     0.000 HD 
HETATM   39  C   UNL     1      -7.701  19.900  65.271  1.00  0.00     0.284 A  
HETATM   40  C   UNL     1      -6.966  19.549  64.129  1.00  0.00     1.519 A  
HETATM   41  C   UNL     1      -5.690  18.933  64.289  1.00  0.00    -0.249 A  
HETATM   42  C   UNL     1      -5.136  18.553  65.529  1.00  0.00    -0.190 A  
HETATM   43  C   UNL     1      -5.868  18.787  66.686  1.00  0.00    -0.169 A  
HETATM   44  C   UNL     1      -7.186  19.637  66.521  1.00  0.00    -0.239 A  
HETATM   45  C   UNL     1      -5.537  17.889  68.297  1.00  0.00    -0.159 C  
HETATM   46  C   UNL     1      -5.511  16.564  68.073  1.00  0.00    -0.120 C  
ENDBRANCH  27  29
ENDBRANCH  13  25
TORSDOF 4
ENDMDL
MODEL      148
REMARK 921   NORMALIZED FREE ENERGY PREDICTED BY IDOCK:   12.54 KCAL/MOL
REMARK 922        TOTAL FREE ENERGY PREDICTED BY IDOCK:   14.61 KCAL/MOL
REMARK 923 INTER-LIGAND FREE ENERGY PREDICTED BY IDOCK:   10.99 KCAL/MOL
REMARK 924 INTRA-LIGAND FREE ENERGY PREDICTED BY IDOCK:    3.62 KCAL/MOL
REMARK 927      BINDING AFFINITY PREDICTED BY RF-SCORE:    0.00 PKD
ROOT
HETATM    1  C   UNL     1     -10.904  13.844  67.482  1.00  0.00    -0.266 A  
HETATM    2  C   UNL     1     -11.985  14.624  66.717  1.00  0.00    -0.297 A  
HETATM    3  C   UNL     1     -11.647  16.126  67.043  1.00  0.00     0.521 A  
HETATM    4  C   UNL     1     -10.534  16.079  68.083  1.00  0.00    -0.269 A  
HETATM    5  N   UNL     1     -10.602  14.721  68.571  1.00  0.00    -0.242 N  
HETATM    6  C   UNL     1      -9.742  14.330  69.546  1.00  0.00     0.414 C  
HETATM    7  O   UNL     1      -9.612  14.992  70.574  1.00  0.00     0.403 OA 
HETATM    8  C   UNL     1      -9.054  12.964  69.287  1.00  0.00     0.954 C  
HETATM    9  O   UNL     1     -10.568  11.159  68.620  1.00  0.00    -0.175 OA 
HETATM   10  N   UNL     1      -9.213  12.396  67.714  1.00  0.00    -0.185 N  
HETATM   11  C   UNL     1      -8.968  11.071  67.244  1.00  0.00    -0.138 C  
HETATM   12  H   UNL     1     -10.976  10.783  66.497  1.00  0.00     0.000 HD 
HETATM   13  C   UNL     1      -9.199  10.247  68.455  1.00  0.00    -0.136 C  
HETATM   14  O   UNL     1      -8.648  10.717  66.121  1.00  0.00    -0.148 OA 
HETATM   15  O   UNL     1     -11.152  11.713  66.420  1.00  0.00    -0.290 OA 
HETATM   16  C   UNL     1      -7.612  10.412  68.668  1.00  0.00    -0.092 C  
HETATM   17  C   UNL     1     -10.601  12.250  67.614  1.00  0.00    -0.215 C  
ENDROOT
BRANCH   8  18
HETATM   18  C   UNL     1      -7.710  13.061  70.009  1.00  0.00     1.989 C  
BRANCH  18  19
HETATM   19  C   UNL     1      -7.129  14.433  70.038  1.00  0.00     0.104 A  
HETATM   20  C   UNL     1      -5.499  15.960  69.148  1.00  0.00    -0.110 A  
HETATM   21  C   UNL     1      -5.860  16.888  70.117  1.00  0.00    -0.177 A  
HETATM   22  C   UNL     1      -7.505  15.381  70.990  1.00  0.00     2.079 A  
HETATM   23  C   UNL     1      -6.865  16.612  71.060  1.00  0.00     2.888 A  
HETATM   24  C   UNL     1      -6.137  14.735  69.102  1.00  0.00    -0.102 A  
ENDBRANCH  18  19
ENDBRANCH   8  18
BRANCH  13  25
HETATM   25  N   UNL     1      -9.472   8.866  68.809  1.00  0.00    -0.144 N  
HETATM   26  O   UNL     1      -7.214   8.333  69.148  1.00  0.00    -0.068 OA 
HETATM   27  C   UNL     1      -8.375   7.967  68.987  1.00  0.00    -0.129 C  
HETATM   28  H   UNL     1     -10.432   8.543  68.929  1.00  0.00     0.000 HD 
BRANCH  27  29
HETATM   29  C   UNL     1      -8.772   6.480  68.914  1.00  0.00    -0.127 C  
HETATM   30  C   UNL     1      -8.804   5.498  70.201  1.00  0.00    -0.147 C  
HETATM   31  N   UNL     1     -10.119   4.171  70.292  1.00  0.00    -0.078 NA 
HETATM   32  C   UNL     1     -11.136   3.069  69.642  1.00  0.00     6.160 C  
HETATM   33  C   UNL     1     -10.911   5.101  70.745  1.00  0.00     0.187 C  
HETATM   34  C   UNL     1      -9.876   3.894  71.844  1.00  0.00    -0.178 C  
HETATM   35  C   UNL     1      -8.491   2.995  70.931  1.00  0.00    -0.100 A  
HETATM   36  C   UNL     1      -7.294   2.436  71.306  1.00  0.00    -0.033 A  
HETATM   37  N   UNL     1      -6.528   2.235  70.149  1.00  0.00    -0.028 NA 
HETATM   38  H   UNL     1      -5.589   1.838  70.168  1.00  0.00     0.000 HD 
HETATM   39  C   UNL     1      -7.161   2.626  68.968  1.00  0.00    -0.044 A  
HETATM   40  C   UNL     1      -6.730   2.694  67.634  1.00  0.00    -0.040 A  
HETATM   41  C   UNL     1      -7.588   3.282  66.658  1.00  0.00    -0.076 A  
HETATM   42  C   UNL     1      -8.821   3.900  66.948  1.00  0.00    -0.133 A  
HETATM   43  C   UNL     1      -9.249   3.950  68.269  1.00  0.00    -0.209 A  
HETATM   44  C   UNL     1      -8.393   3.133  69.313  1.00  0.00    -0.087 A  
HETATM   45  C   UNL     1     -10.543   5.162  68.874  1.00  0.00    -0.047 C  
HETATM   46  C   UNL     1     -10.205   6.405  68.491  1.00  0.00    -0.198 C  
ENDBRANCH  27  29
ENDBRANCH  13  25
TORSDOF 4
ENDMDL
MODEL      149
REMARK 921   NORMALIZED FREE ENERGY PREDICTED BY IDOCK:   13.17 KCAL/MOL
REMARK 922        TOTAL FREE ENERGY PREDICTED BY IDOCK:   15.38 KCAL/MOL
REMARK 923 INTER-LIGAND FREE ENERGY PREDICTED BY IDOCK:   13.92 KCAL/MOL
REMARK 924 INTRA-LIGAND FREE ENERGY PREDICTED BY IDOCK:    1.46 KCAL/MOL
REMARK 927      BINDING AFFINITY PREDICTED BY RF-SCORE:    0.00 PKD
ROOT
HETATM    1  C   UNL     1     -10.565   5.381  69.362  1.00  0.00    -0.225 A  
HETATM    2  C   UNL     1     -11.312   4.409  70.290  1.00  0.00     3.891 A  
HETATM    3  C   UNL     1     -10.780   2.998  69.841  1.00  0.00     3.296 A  
HETATM    4  C   UNL     1      -9.924   3.256  68.607  1.00  0.00     0.509 A  
HETATM    5  N   UNL     1     -10.332   4.581  68.199  1.00  0.00     0.130 N  
HETATM    6  C   UNL     1      -9.770   5.129  67.092  1.00  0.00    -0.157 C  
HETATM    7  O   UNL     1      -9.730   4.508  66.031  1.00  0.00    -0.170 OA 
HETATM    8  C   UNL     1      -9.302   6.598  67.269  1.00  0.00    -0.144 C  
HETATM    9  O   UNL     1     -10.954   8.087  68.294  1.00  0.00     0.021 OA 
HETATM   10  N   UNL     1      -9.244   7.118  68.865  1.00  0.00    -0.138 N  
HETATM   11  C   UNL     1      -9.155   8.464  69.334  1.00  0.00    -0.154 C  
HETATM   12  H   UNL     1     -10.991   8.369  70.470  1.00  0.00     0.000 HD 
HETATM   13  C   UNL     1      -9.768   9.236  68.228  1.00  0.00    -0.150 C  
HETATM   14  O   UNL     1      -8.686   8.865  70.387  1.00  0.00    -0.147 OA 
HETATM   15  O   UNL     1     -10.977   7.422  70.541  1.00  0.00    -0.243 OA 
HETATM   16  C   UNL     1      -8.252   9.370  67.701  1.00  0.00    -0.114 C  
HETATM   17  C   UNL     1     -10.588   7.004  69.241  1.00  0.00    -0.224 C  
ENDROOT
BRANCH   8  18
HETATM   18  C   UNL     1      -8.135   6.756  66.295  1.00  0.00    -0.112 C  
BRANCH  18  19
HETATM   19  C   UNL     1      -8.314   7.849  65.298  1.00  0.00    -0.140 A  
HETATM   20  C   UNL     1      -7.664  10.043  64.561  1.00  0.00    -0.145 A  
HETATM   21  C   UNL     1      -8.678  10.010  63.612  1.00  0.00    -0.227 A  
HETATM   22  C   UNL     1      -9.313   7.811  64.324  1.00  0.00     1.930 A  
HETATM   23  C   UNL     1      -9.526   8.896  63.481  1.00  0.00     1.349 A  
HETATM   24  C   UNL     1      -7.475   8.961  65.400  1.00  0.00    -0.086 A  
ENDBRANCH  18  19
ENDBRANCH   8  18
BRANCH  13  25
HETATM   25  N   UNL     1     -10.351  10.544  67.992  1.00  0.00    -0.172 N  
HETATM   26  O   UNL     1      -8.687  11.685  69.185  1.00  0.00     0.116 OA 
HETATM   27  C   UNL     1      -9.795  11.681  68.656  1.00  0.00    -0.165 C  
HETATM   28  H   UNL     1     -11.145  10.650  67.360  1.00  0.00     0.000 HD 
BRANCH  27  29
HETATM   29  C   UNL     1     -10.735  12.901  68.693  1.00  0.00    -0.273 C  
HETATM   30  C   UNL     1     -10.217  14.425  68.877  1.00  0.00    -0.215 C  
HETATM   31  N   UNL     1     -11.115  15.799  67.980  1.00  0.00    -0.332 NA 
HETATM   32  C   UNL     1     -12.440  16.509  67.340  1.00  0.00     2.659 C  
HETATM   33  C   UNL     1     -10.397  15.480  66.941  1.00  0.00    -0.290 C  
HETATM   34  C   UNL     1      -9.945  16.857  68.220  1.00  0.00    -0.282 C  
HETATM   35  C   UNL     1     -10.908  16.767  69.840  1.00  0.00    -0.106 A  
HETATM   36  C   UNL     1     -10.668  17.183  71.127  1.00  0.00     1.615 A  
HETATM   37  N   UNL     1     -11.575  16.525  71.971  1.00  0.00    -0.483 NA 
HETATM   38  H   UNL     1     -11.590  16.661  72.981  1.00  0.00     0.000 HD 
HETATM   39  C   UNL     1     -12.455  15.668  71.308  1.00  0.00    -0.444 A  
HETATM   40  C   UNL     1     -13.427  14.763  71.764  1.00  0.00    -0.470 A  
HETATM   41  C   UNL     1     -14.076  13.912  70.822  1.00  0.00     0.857 A  
HETATM   42  C   UNL     1     -13.746  13.838  69.453  1.00  0.00     4.091 A  
HETATM   43  C   UNL     1     -12.721  14.641  68.969  1.00  0.00     0.430 A  
HETATM   44  C   UNL     1     -12.139  15.712  69.969  1.00  0.00    -0.379 A  
HETATM   45  C   UNL     1     -11.825  14.286  67.362  1.00  0.00    -0.441 C  
HETATM   46  C   UNL     1     -11.401  13.011  67.358  1.00  0.00    -0.347 C  
ENDBRANCH  27  29
ENDBRANCH  13  25
TORSDOF 4
ENDMDL
MODEL      150
REMARK 921   NORMALIZED FREE ENERGY PREDICTED BY IDOCK:   13.48 KCAL/MOL
REMARK 922        TOTAL FREE ENERGY PREDICTED BY IDOCK:   15.77 KCAL/MOL
REMARK 923 INTER-LIGAND FREE ENERGY PREDICTED BY IDOCK:   16.50 KCAL/MOL
REMARK 924 INTRA-LIGAND FREE ENERGY PREDICTED BY IDOCK:   -0.73 KCAL/MOL
REMARK 927      BINDING AFFINITY PREDICTED BY RF-SCORE:    0.00 PKD
ROOT
HETATM    1  C   UNL     1     -11.608  15.390  68.246  1.00  0.00    -0.348 A  
HETATM    2  C   UNL     1     -12.836  16.265  67.948  1.00  0.00     3.019 A  
HETATM    3  C   UNL     1     -12.768  17.375  69.060  1.00  0.00     5.915 A  
HETATM    4  C   UNL     1     -11.635  16.957  69.989  1.00  0.00     0.908 A  
HETATM    5  N   UNL     1     -11.439  15.565  69.656  1.00  0.00    -0.303 N  
HETATM    6  C   UNL     1     -10.494  14.856  70.326  1.00  0.00     0.069 C  
HETATM    7  O   UNL     1     -10.456  14.859  71.555  1.00  0.00     0.509 OA 
HETATM    8  C   UNL     1      -9.576  13.994  69.419  1.00  0.00     0.471 C  
HETATM    9  O   UNL     1     -10.754  12.622  67.768  1.00  0.00    -0.213 OA 
HETATM   10  N   UNL     1      -9.675  14.361  67.783  1.00  0.00    -0.217 N  
HETATM   11  C   UNL     1      -9.206  13.572  66.690  1.00  0.00    -0.210 C  
HETATM   12  H   UNL     1     -11.149  13.406  65.757  1.00  0.00     0.000 HD 
HETATM   13  C   UNL     1      -9.247  12.196  67.239  1.00  0.00    -0.185 C  
HETATM   14  O   UNL     1      -8.860  13.950  65.582  1.00  0.00     0.672 OA 
HETATM   15  O   UNL     1     -11.495  14.181  66.184  1.00  0.00    -0.329 OA 
HETATM   16  C   UNL     1      -7.711  12.482  67.627  1.00  0.00    -0.151 C  
HETATM   17  C   UNL     1     -11.015  14.061  67.515  1.00  0.00    -0.277 C  
ENDROOT
BRANCH   8  18
HETATM   18  C   UNL     1      -8.252  13.905  70.178  1.00  0.00     2.016 C  
BRANCH  18  19
HETATM   19  C   UNL     1      -7.378  15.104  70.026  1.00  0.00     0.035 A  
HETATM   20  C   UNL     1      -5.161  15.959  69.661  1.00  0.00    -0.109 A  
HETATM   21  C   UNL     1      -5.634  17.244  69.895  1.00  0.00    -0.230 A  
HETATM   22  C   UNL     1      -7.851  16.400  70.232  1.00  0.00     1.837 A  
HETATM   23  C   UNL     1      -6.986  17.487  70.191  1.00  0.00     1.075 A  
HETATM   24  C   UNL     1      -6.033  14.888  69.719  1.00  0.00    -0.123 A  
ENDBRANCH  18  19
ENDBRANCH   8  18
BRANCH  13  25
HETATM   25  N   UNL     1      -9.252  10.824  66.766  1.00  0.00    -0.156 N  
HETATM   26  O   UNL     1      -9.522   9.911  68.908  1.00  0.00    -0.156 OA 
HETATM   27  C   UNL     1      -9.244   9.761  67.722  1.00  0.00    -0.130 C  
HETATM   28  H   UNL     1      -9.262  10.621  65.766  1.00  0.00     0.000 HD 
BRANCH  27  29
HETATM   29  C   UNL     1      -8.804   8.404  67.140  1.00  0.00    -0.139 C  
HETATM   30  C   UNL     1      -7.258   8.003  66.873  1.00  0.00    -0.082 C  
HETATM   31  N   UNL     1      -6.727   6.228  67.137  1.00  0.00    -0.058 NA 
HETATM   32  C   UNL     1      -6.967   4.612  67.136  1.00  0.00    -0.060 C  
HETATM   33  C   UNL     1      -6.628   6.531  68.400  1.00  0.00    -0.059 C  
HETATM   34  C   UNL     1      -5.172   6.587  67.129  1.00  0.00    -0.008 C  
HETATM   35  C   UNL     1      -5.710   6.559  65.321  1.00  0.00    -0.026 A  
HETATM   36  C   UNL     1      -5.155   7.000  64.144  1.00  0.00    -0.028 A  
HETATM   37  N   UNL     1      -6.167   7.030  63.173  1.00  0.00    -0.043 NA 
HETATM   38  H   UNL     1      -6.005   7.334  62.213  1.00  0.00     0.000 HD 
HETATM   39  C   UNL     1      -7.415   6.608  63.633  1.00  0.00    -0.083 A  
HETATM   40  C   UNL     1      -8.688   6.578  63.042  1.00  0.00     0.508 A  
HETATM   41  C   UNL     1      -9.813   6.213  63.838  1.00  0.00     3.044 A  
HETATM   42  C   UNL     1      -9.763   5.967  65.226  1.00  0.00     0.618 A  
HETATM   43  C   UNL     1      -8.543   6.082  65.880  1.00  0.00    -0.150 A  
HETATM   44  C   UNL     1      -7.276   6.296  64.967  1.00  0.00    -0.070 A  
HETATM   45  C   UNL     1      -8.403   6.315  67.734  1.00  0.00    -0.117 C  
HETATM   46  C   UNL     1      -9.187   7.337  68.117  1.00  0.00    -0.132 C  
ENDBRANCH  27  29
ENDBRANCH  13  25
TORSDOF 4
ENDMDL
MODEL      151
REMARK 921   NORMALIZED FREE ENERGY PREDICTED BY IDOCK:   13.69 KCAL/MOL
REMARK 922        TOTAL FREE ENERGY PREDICTED BY IDOCK:   16.03 KCAL/MOL
REMARK 923 INTER-LIGAND FREE ENERGY PREDICTED BY IDOCK:    7.09 KCAL/MOL
REMARK 924 INTRA-LIGAND FREE ENERGY PREDICTED BY IDOCK:    8.94 KCAL/MOL
REMARK 927      BINDING AFFINITY PREDICTED BY RF-SCORE:    0.00 PKD
ROOT
HETATM    1  C   UNL     1      -8.345  13.596  68.919  1.00  0.00     0.146 A  
HETATM    2  C   UNL     1      -7.561  14.907  68.750  1.00  0.00    -0.135 A  
HETATM    3  C   UNL     1      -8.362  15.925  69.643  1.00  0.00     0.064 A  
HETATM    4  C   UNL     1      -9.609  15.177  70.101  1.00  0.00     0.267 A  
HETATM    5  N   UNL     1      -9.671  14.060  69.187  1.00  0.00     0.061 N  
HETATM    6  C   UNL     1     -10.697  13.177  69.299  1.00  0.00     0.067 C  
HETATM    7  O   UNL     1     -11.862  13.566  69.348  1.00  0.00    -0.296 OA 
HETATM    8  C   UNL     1     -10.268  11.686  69.251  1.00  0.00     0.098 C  
HETATM    9  O   UNL     1      -8.755  11.108  67.415  1.00  0.00    -0.131 OA 
HETATM   10  N   UNL     1      -8.618  11.433  69.431  1.00  0.00     0.338 N  
HETATM   11  C   UNL     1      -7.888  10.243  69.135  1.00  0.00    -0.127 C  
HETATM   12  H   UNL     1      -6.581  11.198  67.702  1.00  0.00     0.000 HD 
HETATM   13  C   UNL     1      -8.720   9.601  68.090  1.00  0.00    -0.119 C  
HETATM   14  O   UNL     1      -6.839   9.861  69.628  1.00  0.00    -0.058 OA 
HETATM   15  O   UNL     1      -6.716  12.068  68.057  1.00  0.00    -0.062 OA 
HETATM   16  C   UNL     1      -9.387   8.824  69.333  1.00  0.00    -0.157 C  
HETATM   17  C   UNL     1      -8.114  12.103  68.310  1.00  0.00    -0.166 C  
ENDROOT
BRANCH   8  18
HETATM   18  C   UNL     1     -11.322  10.952  70.079  1.00  0.00    -0.386 C  
BRANCH  18  19
HETATM   19  C   UNL     1     -12.102  11.831  70.996  1.00  0.00    -0.163 A  
HETATM   20  C   UNL     1     -13.001  14.020  71.422  1.00  0.00    -0.427 A  
HETATM   21  C   UNL     1     -13.385  13.600  72.689  1.00  0.00    -0.587 A  
HETATM   22  C   UNL     1     -12.517  11.408  72.259  1.00  0.00     0.929 A  
HETATM   23  C   UNL     1     -13.144  12.288  73.133  1.00  0.00     3.277 A  
HETATM   24  C   UNL     1     -12.366  13.136  70.571  1.00  0.00    -0.380 A  
ENDBRANCH  18  19
ENDBRANCH   8  18
BRANCH  13  25
HETATM   25  N   UNL     1      -8.598   8.591  67.055  1.00  0.00    -0.120 N  
HETATM   26  O   UNL     1     -10.686   7.629  67.514  1.00  0.00    -0.253 OA 
HETATM   27  C   UNL     1      -9.588   7.564  66.969  1.00  0.00    -0.170 C  
HETATM   28  H   UNL     1      -7.818   8.614  66.399  1.00  0.00     0.000 HD 
BRANCH  27  29
HETATM   29  C   UNL     1      -9.138   6.331  66.161  1.00  0.00    -0.153 C  
HETATM   30  C   UNL     1     -10.001   5.690  64.950  1.00  0.00     1.094 C  
HETATM   31  N   UNL     1      -9.096   4.963  63.482  1.00  0.00    -0.032 NA 
HETATM   32  C   UNL     1      -7.844   4.195  62.768  1.00  0.00    -0.066 C  
HETATM   33  C   UNL     1      -9.016   6.183  63.032  1.00  0.00     0.689 C  
HETATM   34  C   UNL     1     -10.404   4.920  62.570  1.00  0.00     0.543 C  
HETATM   35  C   UNL     1     -10.521   3.429  63.721  1.00  0.00    -0.256 A  
HETATM   36  C   UNL     1     -11.526   2.562  64.075  1.00  0.00     1.349 A  
HETATM   37  N   UNL     1     -11.124   1.884  65.235  1.00  0.00     2.530 NA 
HETATM   38  H   UNL     1     -11.707   1.189  65.701  1.00  0.00     0.000 HD 
HETATM   39  C   UNL     1      -9.856   2.242  65.698  1.00  0.00     0.592 A  
HETATM   40  C   UNL     1      -9.130   1.896  66.848  1.00  0.00    -0.092 A  
HETATM   41  C   UNL     1      -7.892   2.553  67.108  1.00  0.00    -0.070 A  
HETATM   42  C   UNL     1      -7.373   3.615  66.338  1.00  0.00    -0.072 A  
HETATM   43  C   UNL     1      -8.103   4.064  65.245  1.00  0.00    -0.101 A  
HETATM   44  C   UNL     1      -9.371   3.212  64.850  1.00  0.00    -0.149 A  
HETATM   45  C   UNL     1      -7.840   5.750  64.471  1.00  0.00    -0.113 C  
HETATM   46  C   UNL     1      -7.885   6.693  65.427  1.00  0.00    -0.111 C  
ENDBRANCH  27  29
ENDBRANCH  13  25
TORSDOF 4
ENDMDL
MODEL      152
REMARK 921   NORMALIZED FREE ENERGY PREDICTED BY IDOCK:   13.91 KCAL/MOL
REMARK 922        TOTAL FREE ENERGY PREDICTED BY IDOCK:   16.31 KCAL/MOL
REMARK 923 INTER-LIGAND FREE ENERGY PREDICTED BY IDOCK:   14.80 KCAL/MOL
REMARK 924 INTRA-LIGAND FREE ENERGY PREDICTED BY IDOCK:    1.51 KCAL/MOL
REMARK 927      BINDING AFFINITY PREDICTED BY RF-SCORE:    0.00 PKD
ROOT
HETATM    1  C   UNL     1     -12.081  10.058  70.457  1.00  0.00    -0.251 A  
HETATM    2  C   UNL     1     -13.417  10.134  71.214  1.00  0.00    -0.305 A  
HETATM    3  C   UNL     1     -13.800   8.622  71.425  1.00  0.00    -0.313 A  
HETATM    4  C   UNL     1     -12.767   7.824  70.639  1.00  0.00     0.288 A  
HETATM    5  N   UNL     1     -12.192   8.815  69.758  1.00  0.00     0.989 N  
HETATM    6  C   UNL     1     -11.227   8.433  68.882  1.00  0.00     0.462 C  
HETATM    7  O   UNL     1     -11.393   7.463  68.144  1.00  0.00     0.235 OA 
HETATM    8  C   UNL     1      -9.994   9.373  68.835  1.00  0.00    -0.188 C  
HETATM    9  O   UNL     1     -10.523  11.756  68.639  1.00  0.00    -0.215 OA 
HETATM   10  N   UNL     1      -9.909  10.468  70.106  1.00  0.00     0.198 N  
HETATM   11  C   UNL     1      -9.093  11.637  70.188  1.00  0.00     3.096 C  
HETATM   12  H   UNL     1     -10.760  12.990  70.438  1.00  0.00     0.000 HD 
HETATM   13  C   UNL     1      -8.893  11.996  68.764  1.00  0.00     0.086 C  
HETATM   14  O   UNL     1      -8.671  12.192  71.190  1.00  0.00     8.908 OA 
HETATM   15  O   UNL     1     -11.346  12.315  70.760  1.00  0.00     0.706 OA 
HETATM   16  C   UNL     1      -7.554  11.111  68.901  1.00  0.00    -0.133 C  
HETATM   17  C   UNL     1     -11.076  11.214  69.905  1.00  0.00    -0.162 C  
ENDROOT
BRANCH   8  18
HETATM   18  C   UNL     1      -8.830   8.469  68.431  1.00  0.00    -0.139 C  
BRANCH  18  19
HETATM   19  C   UNL     1      -8.946   7.899  67.058  1.00  0.00    -0.145 A  
HETATM   20  C   UNL     1      -8.607   8.216  64.699  1.00  0.00     0.035 A  
HETATM   21  C   UNL     1      -9.268   7.019  64.458  1.00  0.00     1.433 A  
HETATM   22  C   UNL     1      -9.584   6.684  66.809  1.00  0.00    -0.207 A  
HETATM   23  C   UNL     1      -9.774   6.233  65.508  1.00  0.00     0.574 A  
HETATM   24  C   UNL     1      -8.439   8.655  65.999  1.00  0.00    -0.151 A  
ENDBRANCH  18  19
ENDBRANCH   8  18
BRANCH  13  25
HETATM   25  N   UNL     1      -8.492  13.139  67.965  1.00  0.00    -0.171 N  
HETATM   26  O   UNL     1      -7.452  14.237  69.756  1.00  0.00     0.069 OA 
HETATM   27  C   UNL     1      -7.906  14.269  68.616  1.00  0.00    -0.140 C  
HETATM   28  H   UNL     1      -8.625  13.135  66.954  1.00  0.00     0.000 HD 
BRANCH  27  29
HETATM   29  C   UNL     1      -7.937  15.558  67.772  1.00  0.00    -0.157 C  
HETATM   30  C   UNL     1      -7.504  17.011  68.342  1.00  0.00    -0.213 C  
HETATM   31  N   UNL     1      -6.641  18.210  67.194  1.00  0.00    -0.179 NA 
HETATM   32  C   UNL     1      -6.341  18.883  65.735  1.00  0.00    -0.233 C  
HETATM   33  C   UNL     1      -5.545  17.563  67.473  1.00  0.00    -0.133 C  
HETATM   34  C   UNL     1      -6.155  19.156  68.383  1.00  0.00    -0.220 C  
HETATM   35  C   UNL     1      -7.969  19.581  68.086  1.00  0.00    -0.353 A  
HETATM   36  C   UNL     1      -8.923  20.275  68.789  1.00  0.00     0.377 A  
HETATM   37  N   UNL     1     -10.178  19.954  68.249  1.00  0.00    -0.445 NA 
HETATM   38  H   UNL     1     -11.050  20.339  68.610  1.00  0.00     0.000 HD 
HETATM   39  C   UNL     1     -10.129  19.064  67.176  1.00  0.00    -0.364 A  
HETATM   40  C   UNL     1     -11.125  18.417  66.429  1.00  0.00     0.432 A  
HETATM   41  C   UNL     1     -10.743  17.437  65.466  1.00  0.00    -0.081 A  
HETATM   42  C   UNL     1      -9.421  16.987  65.267  1.00  0.00     1.092 A  
HETATM   43  C   UNL     1      -8.408  17.523  66.051  1.00  0.00    -0.116 A  
HETATM   44  C   UNL     1      -8.806  18.738  66.975  1.00  0.00    -0.302 A  
HETATM   45  C   UNL     1      -6.751  16.681  66.286  1.00  0.00     0.254 C  
HETATM   46  C   UNL     1      -6.947  15.405  66.661  1.00  0.00     0.876 C  
ENDBRANCH  27  29
ENDBRANCH  13  25
TORSDOF 4
ENDMDL
MODEL      153
REMARK 921   NORMALIZED FREE ENERGY PREDICTED BY IDOCK:   15.64 KCAL/MOL
REMARK 922        TOTAL FREE ENERGY PREDICTED BY IDOCK:   18.43 KCAL/MOL
REMARK 923 INTER-LIGAND FREE ENERGY PREDICTED BY IDOCK:   15.53 KCAL/MOL
REMARK 924 INTRA-LIGAND FREE ENERGY PREDICTED BY IDOCK:    2.90 KCAL/MOL
REMARK 927      BINDING AFFINITY PREDICTED BY RF-SCORE:    0.00 PKD
ROOT
HETATM    1  C   UNL     1     -10.041  13.454  66.693  1.00  0.00    -0.275 A  
HETATM    2  C   UNL     1      -9.142  14.079  65.614  1.00  0.00     0.612 A  
HETATM    3  C   UNL     1      -9.861  15.438  65.285  1.00  0.00    -0.239 A  
HETATM    4  C   UNL     1     -11.176  15.404  66.055  1.00  0.00    -0.168 A  
HETATM    5  N   UNL     1     -11.325  14.004  66.381  1.00  0.00    -0.323 N  
HETATM    6  C   UNL     1     -12.426  13.604  67.067  1.00  0.00    -0.084 C  
HETATM    7  O   UNL     1     -13.553  13.927  66.695  1.00  0.00     1.744 OA 
HETATM    8  C   UNL     1     -12.132  12.646  68.253  1.00  0.00    -0.135 C  
HETATM    9  O   UNL     1     -10.650  10.772  67.719  1.00  0.00    -0.197 OA 
HETATM   10  N   UNL     1     -10.513  12.567  68.693  1.00  0.00    -0.224 N  
HETATM   11  C   UNL     1      -9.888  11.581  69.515  1.00  0.00     0.593 C  
HETATM   12  H   UNL     1      -8.481  10.962  67.995  1.00  0.00     0.000 HD 
HETATM   13  C   UNL     1     -10.759  10.397  69.325  1.00  0.00    -0.237 C  
HETATM   14  O   UNL     1      -8.884  11.698  70.200  1.00  0.00     2.070 OA 
HETATM   15  O   UNL     1      -8.543  11.776  67.510  1.00  0.00    -0.146 OA 
HETATM   16  C   UNL     1     -11.510  10.946  70.639  1.00  0.00    -0.227 C  
HETATM   17  C   UNL     1      -9.935  12.058  67.524  1.00  0.00    -0.192 C  
ENDROOT
BRANCH   8  18
HETATM   18  C   UNL     1     -13.259  12.907  69.252  1.00  0.00     2.369 C  
BRANCH  18  19
HETATM   19  C   UNL     1     -12.850  13.712  70.438  1.00  0.00    -0.108 A  
HETATM   20  C   UNL     1     -11.130  14.236  72.034  1.00  0.00     1.878 A  
HETATM   21  C   UNL     1     -12.038  15.021  72.733  1.00  0.00    -0.430 A  
HETATM   22  C   UNL     1     -13.748  14.525  71.130  1.00  0.00    -0.333 A  
HETATM   23  C   UNL     1     -13.366  15.175  72.298  1.00  0.00    -0.507 A  
HETATM   24  C   UNL     1     -11.532  13.586  70.882  1.00  0.00     0.711 A  
ENDBRANCH  18  19
ENDBRANCH   8  18
BRANCH  13  25
HETATM   25  N   UNL     1     -10.713   8.958  69.508  1.00  0.00    -0.293 N  
HETATM   26  O   UNL     1     -10.493   9.093  71.838  1.00  0.00    -0.348 OA 
HETATM   27  C   UNL     1     -10.423   8.433  70.805  1.00  0.00    -0.197 C  
HETATM   28  H   UNL     1     -10.885   8.331  68.722  1.00  0.00     0.000 HD 
BRANCH  27  29
HETATM   29  C   UNL     1      -9.963   6.962  70.793  1.00  0.00    -0.201 C  
HETATM   30  C   UNL     1     -10.672   5.796  71.665  1.00  0.00    -0.314 C  
HETATM   31  N   UNL     1     -10.790   4.074  70.944  1.00  0.00     1.152 NA 
HETATM   32  C   UNL     1     -10.255   2.828  70.032  1.00  0.00     1.217 C  
HETATM   33  C   UNL     1     -11.843   4.500  70.308  1.00  0.00     6.724 C  
HETATM   34  C   UNL     1     -11.870   3.591  72.014  1.00  0.00     3.126 C  
HETATM   35  C   UNL     1     -10.201   3.523  72.891  1.00  0.00    -0.238 A  
HETATM   36  C   UNL     1      -9.806   3.412  74.202  1.00  0.00    -0.115 A  
HETATM   37  N   UNL     1      -8.454   3.778  74.280  1.00  0.00    -0.088 NA 
HETATM   38  H   UNL     1      -7.932   3.786  75.155  1.00  0.00     0.000 HD 
HETATM   39  C   UNL     1      -7.885   4.131  73.055  1.00  0.00    -0.085 A  
HETATM   40  C   UNL     1      -6.628   4.645  72.702  1.00  0.00    -0.050 A  
HETATM   41  C   UNL     1      -6.396   5.044  71.353  1.00  0.00    -0.030 A  
HETATM   42  C   UNL     1      -7.381   5.052  70.343  1.00  0.00    -0.055 A  
HETATM   43  C   UNL     1      -8.670   4.648  70.664  1.00  0.00    -0.129 A  
HETATM   44  C   UNL     1      -8.873   4.030  72.101  1.00  0.00    -0.129 A  
HETATM   45  C   UNL     1     -10.164   5.098  69.627  1.00  0.00    -0.337 C  
HETATM   46  C   UNL     1     -10.177   6.424  69.413  1.00  0.00    -0.230 C  
ENDBRANCH  27  29
ENDBRANCH  13  25
TORSDOF 4
ENDMDL
MODEL      154
REMARK 921   NORMALIZED FREE ENERGY PREDICTED BY IDOCK:   16.55 KCAL/MOL
REMARK 922        TOTAL FREE ENERGY PREDICTED BY IDOCK:   19.56 KCAL/MOL
REMARK 923 INTER-LIGAND FREE ENERGY PREDICTED BY IDOCK:   18.25 KCAL/MOL
REMARK 924 INTRA-LIGAND FREE ENERGY PREDICTED BY IDOCK:    1.31 KCAL/MOL
REMARK 927      BINDING AFFINITY PREDICTED BY RF-SCORE:    0.00 PKD
ROOT
HETATM    1  C   UNL     1     -13.011   4.346  72.312  1.00  0.00     3.350 A  
HETATM    2  C   UNL     1     -14.285   3.519  72.549  1.00  0.00     4.886 A  
HETATM    3  C   UNL     1     -13.755   2.250  73.313  1.00  0.00     0.745 A  
HETATM    4  C   UNL     1     -12.236   2.366  73.300  1.00  0.00     0.370 A  
HETATM    5  N   UNL     1     -11.994   3.341  72.261  1.00  0.00     2.263 N  
HETATM    6  C   UNL     1     -10.713   3.678  71.961  1.00  0.00     0.402 C  
HETATM    7  O   UNL     1      -9.870   2.812  71.735  1.00  0.00    -0.152 OA 
HETATM    8  C   UNL     1     -10.464   5.204  71.831  1.00  0.00    -0.272 C  
HETATM    9  O   UNL     1     -12.078   6.396  70.429  1.00  0.00    -0.305 OA 
HETATM   10  N   UNL     1     -11.707   6.162  72.427  1.00  0.00    -0.298 N  
HETATM   11  C   UNL     1     -11.918   7.553  72.188  1.00  0.00    -0.285 C  
HETATM   12  H   UNL     1     -13.878   7.279  71.319  1.00  0.00     0.000 HD 
HETATM   13  C   UNL     1     -11.262   7.761  70.875  1.00  0.00    -0.271 C  
HETATM   14  O   UNL     1     -12.497   8.361  72.897  1.00  0.00    -0.248 OA 
HETATM   15  O   UNL     1     -14.021   6.439  71.739  1.00  0.00     0.052 OA 
HETATM   16  C   UNL     1      -9.980   8.159  71.764  1.00  0.00    -0.264 C  
HETATM   17  C   UNL     1     -12.767   5.787  71.594  1.00  0.00     1.223 C  
ENDROOT
BRANCH   8  18
HETATM   18  C   UNL     1      -8.999   5.393  72.225  1.00  0.00    -0.134 C  
BRANCH  18  19
HETATM   19  C   UNL     1      -8.025   4.998  71.167  1.00  0.00    -0.101 A  
HETATM   20  C   UNL     1      -6.554   3.305  70.302  1.00  0.00    -0.033 A  
HETATM   21  C   UNL     1      -6.083   4.214  69.363  1.00  0.00    -0.027 A  
HETATM   22  C   UNL     1      -7.568   5.896  70.203  1.00  0.00    -0.090 A  
HETATM   23  C   UNL     1      -6.577   5.529  69.301  1.00  0.00    -0.047 A  
HETATM   24  C   UNL     1      -7.530   3.692  71.200  1.00  0.00    -0.044 A  
ENDBRANCH  18  19
ENDBRANCH   8  18
BRANCH  13  25
HETATM   25  N   UNL     1     -11.261   8.722  69.787  1.00  0.00    -0.439 N  
HETATM   26  O   UNL     1      -8.934   9.008  69.820  1.00  0.00    -0.140 OA 
HETATM   27  C   UNL     1     -10.042   9.389  69.453  1.00  0.00    -0.198 C  
HETATM   28  H   UNL     1     -12.117   8.917  69.268  1.00  0.00     0.000 HD 
BRANCH  27  29
HETATM   29  C   UNL     1     -10.242  10.671  68.622  1.00  0.00    -0.196 C  
HETATM   30  C   UNL     1      -9.925  10.769  67.036  1.00  0.00    -0.236 C  
HETATM   31  N   UNL     1     -11.017  11.842  65.961  1.00  0.00    -0.299 NA 
HETATM   32  C   UNL     1     -11.972  13.137  65.675  1.00  0.00    -0.415 C  
HETATM   33  C   UNL     1     -11.839  10.832  65.928  1.00  0.00     1.892 C  
HETATM   34  C   UNL     1     -10.482  11.201  64.602  1.00  0.00    -0.335 C  
HETATM   35  C   UNL     1      -9.162  12.432  65.154  1.00  0.00     0.421 A  
HETATM   36  C   UNL     1      -7.855  12.664  64.802  1.00  0.00     5.197 A  
HETATM   37  N   UNL     1      -7.274  13.463  65.798  1.00  0.00     3.543 NA 
HETATM   38  H   UNL     1      -6.301  13.765  65.767  1.00  0.00     0.000 HD 
HETATM   39  C   UNL     1      -8.143  13.810  66.834  1.00  0.00     0.145 A  
HETATM   40  C   UNL     1      -7.955  14.490  68.047  1.00  0.00    -0.136 A  
HETATM   41  C   UNL     1      -9.035  14.562  68.975  1.00  0.00    -0.044 A  
HETATM   42  C   UNL     1     -10.274  13.909  68.810  1.00  0.00    -0.188 A  
HETATM   43  C   UNL     1     -10.477  13.139  67.672  1.00  0.00    -0.225 A  
HETATM   44  C   UNL     1      -9.356  13.218  66.564  1.00  0.00    -0.221 A  
HETATM   45  C   UNL     1     -11.802  11.819  67.561  1.00  0.00    -0.227 C  
HETATM   46  C   UNL     1     -11.702  10.996  68.618  1.00  0.00    -0.367 C  
ENDBRANCH  27  29
ENDBRANCH  13  25
TORSDOF 4
ENDMDL
MODEL      155
REMARK 921   NORMALIZED FREE ENERGY PREDICTED BY IDOCK:   18.11 KCAL/MOL
REMARK 922        TOTAL FREE ENERGY PREDICTED BY IDOCK:   21.49 KCAL/MOL
REMARK 923 INTER-LIGAND FREE ENERGY PREDICTED BY IDOCK:   13.44 KCAL/MOL
REMARK 924 INTRA-LIGAND FREE ENERGY PREDICTED BY IDOCK:    8.05 KCAL/MOL
REMARK 927      BINDING AFFINITY PREDICTED BY RF-SCORE:    0.00 PKD
ROOT
HETATM    1  C   UNL     1      -8.219   9.033  66.997  1.00  0.00    -0.109 A  
HETATM    2  C   UNL     1      -7.277   8.026  67.677  1.00  0.00    -0.091 A  
HETATM    3  C   UNL     1      -7.819   6.633  67.185  1.00  0.00    -0.105 A  
HETATM    4  C   UNL     1      -9.102   6.939  66.422  1.00  0.00    -0.159 A  
HETATM    5  N   UNL     1      -9.426   8.279  66.855  1.00  0.00    -0.172 N  
HETATM    6  C   UNL     1     -10.550   8.870  66.374  1.00  0.00     0.177 C  
HETATM    7  O   UNL     1     -11.634   8.291  66.415  1.00  0.00     2.579 OA 
HETATM    8  C   UNL     1     -10.350  10.331  65.889  1.00  0.00    -0.241 C  
HETATM    9  O   UNL     1      -9.148  11.780  67.454  1.00  0.00    -0.168 OA 
HETATM   10  N   UNL     1      -8.744  10.788  65.711  1.00  0.00    -0.182 N  
HETATM   11  C   UNL     1      -8.231  12.113  65.582  1.00  0.00     1.064 C  
HETATM   12  H   UNL     1      -6.966  11.976  67.329  1.00  0.00     0.000 HD 
HETATM   13  C   UNL     1      -9.257  12.929  66.272  1.00  0.00    -0.077 C  
HETATM   14  O   UNL     1      -7.201  12.472  65.034  1.00  0.00     4.124 OA 
HETATM   15  O   UNL     1      -6.933  11.027  67.313  1.00  0.00    -0.084 OA 
HETATM   16  C   UNL     1      -9.889  13.083  64.799  1.00  0.00    -0.036 C  
HETATM   17  C   UNL     1      -8.275  10.660  67.023  1.00  0.00    -0.124 C  
ENDROOT
BRANCH   8  18
HETATM   18  C   UNL     1     -11.402  10.526  64.797  1.00  0.00     1.374 C  
BRANCH  18  19
HETATM   19  C   UNL     1     -12.119  11.831  64.864  1.00  0.00     0.012 A  
HETATM   20  C   UNL     1     -14.223  12.991  64.780  1.00  0.00     4.619 A  
HETATM   21  C   UNL     1     -13.540  14.201  64.803  1.00  0.00     1.658 A  
HETATM   22  C   UNL     1     -11.442  13.049  64.916  1.00  0.00    -0.348 A  
HETATM   23  C   UNL     1     -12.137  14.252  64.865  1.00  0.00    -0.442 A  
HETATM   24  C   UNL     1     -13.515  11.805  64.817  1.00  0.00     2.502 A  
ENDBRANCH  18  19
ENDBRANCH   8  18
BRANCH  13  25
HETATM   25  N   UNL     1      -9.398  14.246  66.866  1.00  0.00    -0.246 N  
HETATM   26  O   UNL     1      -8.909  15.380  64.873  1.00  0.00     1.639 OA 
HETATM   27  C   UNL     1      -9.046  15.396  66.093  1.00  0.00    -0.304 C  
HETATM   28  H   UNL     1      -9.743  14.349  67.821  1.00  0.00     0.000 HD 
BRANCH  27  29
HETATM   29  C   UNL     1      -8.806  16.663  66.937  1.00  0.00    -0.235 C  
HETATM   30  C   UNL     1      -8.866  18.165  66.333  1.00  0.00    -0.255 C  
HETATM   31  N   UNL     1      -9.539  19.543  67.405  1.00  0.00    -0.321 NA 
HETATM   32  C   UNL     1      -9.805  20.291  68.833  1.00  0.00     0.040 C  
HETATM   33  C   UNL     1     -10.723  19.143  67.035  1.00  0.00    -0.448 C  
HETATM   34  C   UNL     1      -9.709  20.549  66.179  1.00  0.00    -0.037 C  
HETATM   35  C   UNL     1      -7.877  20.578  66.628  1.00  0.00    -0.215 A  
HETATM   36  C   UNL     1      -6.741  21.036  66.007  1.00  0.00    -0.050 A  
HETATM   37  N   UNL     1      -5.634  20.462  66.651  1.00  0.00    -0.172 NA 
HETATM   38  H   UNL     1      -4.672  20.642  66.364  1.00  0.00     0.000 HD 
HETATM   39  C   UNL     1      -5.963  19.623  67.716  1.00  0.00    -0.196 A  
HETATM   40  C   UNL     1      -5.195  18.789  68.544  1.00  0.00    -0.189 A  
HETATM   41  C   UNL     1      -5.859  17.933  69.470  1.00  0.00    -0.238 A  
HETATM   42  C   UNL     1      -7.258  17.782  69.558  1.00  0.00     0.154 A  
HETATM   43  C   UNL     1      -8.063  18.511  68.692  1.00  0.00    -0.336 A  
HETATM   44  C   UNL     1      -7.337  19.594  67.804  1.00  0.00    -0.306 A  
HETATM   45  C   UNL     1      -9.839  18.042  68.318  1.00  0.00    -0.357 C  
HETATM   46  C   UNL     1      -9.894  16.748  67.961  1.00  0.00    -0.265 C  
ENDBRANCH  27  29
ENDBRANCH  13  25
TORSDOF 4
ENDMDL
MODEL      156
REMARK 921   NORMALIZED FREE ENERGY PREDICTED BY IDOCK:   18.76 KCAL/MOL
REMARK 922        TOTAL FREE ENERGY PREDICTED BY IDOCK:   22.28 KCAL/MOL
REMARK 923 INTER-LIGAND FREE ENERGY PREDICTED BY IDOCK:   19.27 KCAL/MOL
REMARK 924 INTRA-LIGAND FREE ENERGY PREDICTED BY IDOCK:    3.01 KCAL/MOL
REMARK 927      BINDING AFFINITY PREDICTED BY RF-SCORE:    0.00 PKD
ROOT
HETATM    1  C   UNL     1     -11.803  11.987  68.082  1.00  0.00    -0.286 A  
HETATM    2  C   UNL     1     -13.282  12.405  68.101  1.00  0.00     4.563 A  
HETATM    3  C   UNL     1     -13.247  13.886  67.570  1.00  0.00     3.199 A  
HETATM    4  C   UNL     1     -11.770  14.246  67.457  1.00  0.00    -0.384 A  
HETATM    5  N   UNL     1     -11.126  13.234  68.263  1.00  0.00    -0.253 N  
HETATM    6  C   UNL     1      -9.776  13.267  68.402  1.00  0.00    -0.198 C  
HETATM    7  O   UNL     1      -9.201  14.302  68.737  1.00  0.00    -0.185 OA 
HETATM    8  C   UNL     1      -9.077  11.895  68.209  1.00  0.00    -0.183 C  
HETATM    9  O   UNL     1     -10.083  10.043  69.453  1.00  0.00    -0.192 OA 
HETATM   10  N   UNL     1     -10.050  10.713  67.520  1.00  0.00    -0.178 N  
HETATM   11  C   UNL     1      -9.814   9.306  67.493  1.00  0.00    -0.175 C  
HETATM   12  H   UNL     1     -11.643   8.807  68.529  1.00  0.00     0.000 HD 
HETATM   13  C   UNL     1      -8.966   9.094  68.690  1.00  0.00    -0.136 C  
HETATM   14  O   UNL     1     -10.215   8.490  66.678  1.00  0.00    -0.288 OA 
HETATM   15  O   UNL     1     -12.076   9.619  68.296  1.00  0.00     1.040 OA 
HETATM   16  C   UNL     1      -7.746   9.269  67.654  1.00  0.00    -0.092 C  
HETATM   17  C   UNL     1     -11.060  10.594  68.481  1.00  0.00    -0.263 C  
ENDROOT
BRANCH   8  18
HETATM   18  C   UNL     1      -7.682  12.240  67.687  1.00  0.00    -0.144 C  
BRANCH  18  19
HETATM   19  C   UNL     1      -7.455  11.873  66.260  1.00  0.00     0.397 A  
HETATM   20  C   UNL     1      -6.985  10.135  64.666  1.00  0.00    -0.121 A  
HETATM   21  C   UNL     1      -6.854  11.100  63.675  1.00  0.00     1.075 A  
HETATM   22  C   UNL     1      -7.350  12.833  65.253  1.00  0.00     5.716 A  
HETATM   23  C   UNL     1      -7.027  12.467  63.952  1.00  0.00     8.799 A  
HETATM   24  C   UNL     1      -7.293  10.519  65.957  1.00  0.00    -0.137 A  
ENDBRANCH  18  19
ENDBRANCH   8  18
BRANCH  13  25
HETATM   25  N   UNL     1      -8.548   8.012  69.563  1.00  0.00    -0.135 N  
HETATM   26  O   UNL     1      -9.310   6.329  68.120  1.00  0.00    -0.118 OA 
HETATM   27  C   UNL     1      -8.916   6.672  69.231  1.00  0.00    -0.135 C  
HETATM   28  H   UNL     1      -7.999   8.207  70.400  1.00  0.00     0.000 HD 
BRANCH  27  29
HETATM   29  C   UNL     1      -8.819   5.689  70.414  1.00  0.00    -0.143 C  
HETATM   30  C   UNL     1      -8.528   6.150  71.939  1.00  0.00    -0.129 C  
HETATM   31  N   UNL     1      -9.354   5.219  73.337  1.00  0.00    -0.134 NA 
HETATM   32  C   UNL     1      -9.972   3.881  74.041  1.00  0.00    -0.132 C  
HETATM   33  C   UNL     1     -10.397   5.966  73.110  1.00  0.00    -0.211 C  
HETATM   34  C   UNL     1      -9.024   6.346  74.416  1.00  0.00    -0.159 C  
HETATM   35  C   UNL     1      -7.432   5.360  74.190  1.00  0.00    -0.090 A  
HETATM   36  C   UNL     1      -6.117   5.563  74.530  1.00  0.00    -0.063 A  
HETATM   37  N   UNL     1      -5.335   4.665  73.788  1.00  0.00    -0.008 NA 
HETATM   38  H   UNL     1      -4.318   4.628  73.858  1.00  0.00     0.000 HD 
HETATM   39  C   UNL     1      -6.067   3.827  72.946  1.00  0.00    -0.012 A  
HETATM   40  C   UNL     1      -5.689   2.880  71.981  1.00  0.00    -0.008 A  
HETATM   41  C   UNL     1      -6.696   2.278  71.171  1.00  0.00    -0.031 A  
HETATM   42  C   UNL     1      -8.060   2.634  71.196  1.00  0.00    -0.060 A  
HETATM   43  C   UNL     1      -8.472   3.638  72.063  1.00  0.00    -0.095 A  
HETATM   44  C   UNL     1      -7.394   4.165  73.087  1.00  0.00    -0.070 A  
HETATM   45  C   UNL     1     -10.080   4.574  71.843  1.00  0.00    -0.258 C  
HETATM   46  C   UNL     1     -10.157   5.042  70.586  1.00  0.00    -0.313 C  
ENDBRANCH  27  29
ENDBRANCH  13  25
TORSDOF 4
ENDMDL
MODEL      157
REMARK 921   NORMALIZED FREE ENERGY PREDICTED BY IDOCK:   19.49 KCAL/MOL
REMARK 922        TOTAL FREE ENERGY PREDICTED BY IDOCK:   23.19 KCAL/MOL
REMARK 923 INTER-LIGAND FREE ENERGY PREDICTED BY IDOCK:   21.10 KCAL/MOL
REMARK 924 INTRA-LIGAND FREE ENERGY PREDICTED BY IDOCK:    2.09 KCAL/MOL
REMARK 927      BINDING AFFINITY PREDICTED BY RF-SCORE:    0.00 PKD
ROOT
HETATM    1  C   UNL     1      -9.512  17.838  70.127  1.00  0.00     1.965 A  
HETATM    2  C   UNL     1      -8.744  19.110  70.519  1.00  0.00     2.420 A  
HETATM    3  C   UNL     1      -9.870  20.207  70.584  1.00  0.00     1.317 A  
HETATM    4  C   UNL     1     -11.133  19.530  70.067  1.00  0.00     3.006 A  
HETATM    5  N   UNL     1     -10.621  18.360  69.390  1.00  0.00     0.436 N  
HETATM    6  C   UNL     1     -11.495  17.519  68.780  1.00  0.00     1.102 C  
HETATM    7  O   UNL     1     -12.342  17.948  67.998  1.00  0.00     2.472 OA 
HETATM    8  C   UNL     1     -11.253  16.015  69.076  1.00  0.00    -0.347 C  
HETATM    9  O   UNL     1      -8.933  15.276  68.816  1.00  0.00    -0.178 OA 
HETATM   10  N   UNL     1     -10.205  15.721  70.356  1.00  0.00    -0.081 N  
HETATM   11  C   UNL     1      -9.555  14.492  70.676  1.00  0.00     2.044 C  
HETATM   12  H   UNL     1      -7.561  15.313  70.527  1.00  0.00     0.000 HD 
HETATM   13  C   UNL     1      -9.475  13.813  69.361  1.00  0.00     0.712 C  
HETATM   14  O   UNL     1      -9.166  14.108  71.767  1.00  0.00     5.646 OA 
HETATM   15  O   UNL     1      -7.846  16.208  70.670  1.00  0.00     1.894 OA 
HETATM   16  C   UNL     1     -10.865  13.137  69.811  1.00  0.00     0.379 C  
HETATM   17  C   UNL     1      -9.024  16.304  69.883  1.00  0.00     0.693 C  
ENDROOT
BRANCH   8  18
HETATM   18  C   UNL     1     -12.633  15.368  68.959  1.00  0.00     0.281 C  
BRANCH  18  19
HETATM   19  C   UNL     1     -13.187  14.872  70.250  1.00  0.00     0.005 A  
HETATM   20  C   UNL     1     -13.827  15.387  72.510  1.00  0.00    -0.651 A  
HETATM   21  C   UNL     1     -14.045  14.035  72.742  1.00  0.00    -0.057 A  
HETATM   22  C   UNL     1     -13.435  13.519  70.483  1.00  0.00     0.570 A  
HETATM   23  C   UNL     1     -13.846  13.075  71.734  1.00  0.00    -0.022 A  
HETATM   24  C   UNL     1     -13.406  15.809  71.263  1.00  0.00    -0.288 A  
ENDBRANCH  18  19
ENDBRANCH   8  18
BRANCH  13  25
HETATM   25  N   UNL     1      -8.739  12.737  68.723  1.00  0.00    -0.375 N  
HETATM   26  O   UNL     1     -10.595  11.308  68.614  1.00  0.00    -0.184 OA 
HETATM   27  C   UNL     1      -9.380  11.473  68.538  1.00  0.00    -0.170 C  
HETATM   28  H   UNL     1      -7.779  12.881  68.411  1.00  0.00     0.000 HD 
BRANCH  27  29
HETATM   29  C   UNL     1      -8.402  10.311  68.278  1.00  0.00    -0.116 C  
HETATM   30  C   UNL     1      -8.641   9.175  67.148  1.00  0.00    -0.122 C  
HETATM   31  N   UNL     1      -7.161   8.483  66.237  1.00  0.00    -0.077 NA 
HETATM   32  C   UNL     1      -5.596   8.031  66.116  1.00  0.00    -0.032 C  
HETATM   33  C   UNL     1      -7.245   9.533  65.470  1.00  0.00    -0.091 C  
HETATM   34  C   UNL     1      -8.051   7.817  65.092  1.00  0.00    -0.137 C  
HETATM   35  C   UNL     1      -8.159   6.659  66.578  1.00  0.00    -0.111 A  
HETATM   36  C   UNL     1      -8.975   5.611  66.924  1.00  0.00    -0.112 A  
HETATM   37  N   UNL     1      -8.814   5.370  68.296  1.00  0.00    -0.105 NA 
HETATM   38  H   UNL     1      -9.325   4.642  68.795  1.00  0.00     0.000 HD 
HETATM   39  C   UNL     1      -7.895   6.214  68.921  1.00  0.00    -0.101 A  
HETATM   40  C   UNL     1      -7.516   6.383  70.262  1.00  0.00    -0.094 A  
HETATM   41  C   UNL     1      -6.632   7.450  70.602  1.00  0.00    -0.043 A  
HETATM   42  C   UNL     1      -6.174   8.427  69.695  1.00  0.00    -0.036 A  
HETATM   43  C   UNL     1      -6.600   8.365  68.374  1.00  0.00    -0.060 A  
HETATM   44  C   UNL     1      -7.418   7.081  67.963  1.00  0.00    -0.099 A  
HETATM   45  C   UNL     1      -6.528   9.833  67.213  1.00  0.00    -0.069 C  
HETATM   46  C   UNL     1      -7.111  10.894  67.796  1.00  0.00    -0.082 C  
ENDBRANCH  27  29
ENDBRANCH  13  25
TORSDOF 4
ENDMDL
MODEL      158
REMARK 921   NORMALIZED FREE ENERGY PREDICTED BY IDOCK:   20.04 KCAL/MOL
REMARK 922        TOTAL FREE ENERGY PREDICTED BY IDOCK:   23.86 KCAL/MOL
REMARK 923 INTER-LIGAND FREE ENERGY PREDICTED BY IDOCK:   21.27 KCAL/MOL
REMARK 924 INTRA-LIGAND FREE ENERGY PREDICTED BY IDOCK:    2.59 KCAL/MOL
REMARK 927      BINDING AFFINITY PREDICTED BY RF-SCORE:    0.00 PKD
ROOT
HETATM    1  C   UNL     1      -6.332  18.033  67.510  1.00  0.00    -0.171 A  
HETATM    2  C   UNL     1      -5.220  18.814  66.790  1.00  0.00    -0.148 A  
HETATM    3  C   UNL     1      -5.752  20.294  66.801  1.00  0.00    -0.197 A  
HETATM    4  C   UNL     1      -7.169  20.217  67.356  1.00  0.00    -0.290 A  
HETATM    5  N   UNL     1      -7.495  18.816  67.223  1.00  0.00    -0.221 N  
HETATM    6  C   UNL     1      -8.722  18.387  67.614  1.00  0.00    -0.260 C  
HETATM    7  O   UNL     1      -9.742  18.951  67.221  1.00  0.00    -0.300 OA 
HETATM    8  C   UNL     1      -8.707  17.100  68.481  1.00  0.00    -0.261 C  
HETATM    9  O   UNL     1      -7.337  15.276  67.594  1.00  0.00    -0.143 OA 
HETATM   10  N   UNL     1      -7.192  16.682  69.073  1.00  0.00    -0.213 N  
HETATM   11  C   UNL     1      -6.797  15.428  69.629  1.00  0.00    -0.185 C  
HETATM   12  H   UNL     1      -5.231  15.087  68.180  1.00  0.00     0.000 HD 
HETATM   13  C   UNL     1      -7.731  14.476  68.985  1.00  0.00    -0.113 C  
HETATM   14  O   UNL     1      -5.908  15.209  70.437  1.00  0.00    -0.138 OA 
HETATM   15  O   UNL     1      -5.141  16.007  67.960  1.00  0.00    -0.104 OA 
HETATM   16  C   UNL     1      -8.628  14.721  70.300  1.00  0.00     1.091 C  
HETATM   17  C   UNL     1      -6.486  16.456  67.886  1.00  0.00    -0.135 C  
ENDROOT
BRANCH   8  18
HETATM   18  C   UNL     1      -9.949  17.212  69.365  1.00  0.00    -0.061 C  
BRANCH  18  19
HETATM   19  C   UNL     1     -11.212  17.472  68.616  1.00  0.00     0.473 A  
HETATM   20  C   UNL     1     -12.806  19.093  67.836  1.00  0.00     6.574 A  
HETATM   21  C   UNL     1     -13.623  18.058  67.398  1.00  0.00     9.782 A  
HETATM   22  C   UNL     1     -12.024  16.439  68.149  1.00  0.00     0.568 A  
HETATM   23  C   UNL     1     -13.250  16.712  67.553  1.00  0.00     5.802 A  
HETATM   24  C   UNL     1     -11.597  18.803  68.439  1.00  0.00     2.084 A  
ENDBRANCH  18  19
ENDBRANCH   8  18
BRANCH  13  25
HETATM   25  N   UNL     1      -7.846  13.052  68.728  1.00  0.00    -0.312 N  
HETATM   26  O   UNL     1      -5.881  12.954  67.454  1.00  0.00    -0.248 OA 
HETATM   27  C   UNL     1      -6.933  12.436  67.817  1.00  0.00    -0.118 C  
HETATM   28  H   UNL     1      -8.567  12.499  69.192  1.00  0.00     0.000 HD 
BRANCH  27  29
HETATM   29  C   UNL     1      -7.410  11.070  67.287  1.00  0.00    -0.106 C  
HETATM   30  C   UNL     1      -8.219   9.993  68.186  1.00  0.00    -0.109 C  
HETATM   31  N   UNL     1      -9.541   8.949  67.372  1.00  0.00    -0.151 NA 
HETATM   32  C   UNL     1     -10.200   8.138  66.116  1.00  0.00     0.331 C  
HETATM   33  C   UNL     1     -10.335   9.969  67.539  1.00  0.00    -0.232 C  
HETATM   34  C   UNL     1     -10.169   8.481  68.762  1.00  0.00    -0.200 C  
HETATM   35  C   UNL     1      -8.631   7.420  68.501  1.00  0.00    -0.128 A  
HETATM   36  C   UNL     1      -7.877   6.603  69.306  1.00  0.00    -0.110 A  
HETATM   37  N   UNL     1      -6.654   6.367  68.661  1.00  0.00    -0.049 NA 
HETATM   38  H   UNL     1      -5.915   5.793  69.067  1.00  0.00     0.000 HD 
HETATM   39  C   UNL     1      -6.534   6.987  67.416  1.00  0.00    -0.054 A  
HETATM   40  C   UNL     1      -5.472   7.098  66.506  1.00  0.00    -0.023 A  
HETATM   41  C   UNL     1      -5.625   7.935  65.362  1.00  0.00    -0.037 A  
HETATM   42  C   UNL     1      -6.747   8.753  65.115  1.00  0.00    -0.064 A  
HETATM   43  C   UNL     1      -7.785   8.758  66.038  1.00  0.00    -0.097 A  
HETATM   44  C   UNL     1      -7.696   7.692  67.197  1.00  0.00    -0.112 A  
HETATM   45  C   UNL     1      -9.049  10.137  66.138  1.00  0.00    -0.184 C  
HETATM   46  C   UNL     1      -8.416  11.320  66.208  1.00  0.00    -0.156 C  
ENDBRANCH  27  29
ENDBRANCH  13  25
TORSDOF 4
ENDMDL
MODEL      159
REMARK 921   NORMALIZED FREE ENERGY PREDICTED BY IDOCK:   23.33 KCAL/MOL
REMARK 922        TOTAL FREE ENERGY PREDICTED BY IDOCK:   27.92 KCAL/MOL
REMARK 923 INTER-LIGAND FREE ENERGY PREDICTED BY IDOCK:   25.79 KCAL/MOL
REMARK 924 INTRA-LIGAND FREE ENERGY PREDICTED BY IDOCK:    2.13 KCAL/MOL
REMARK 927      BINDING AFFINITY PREDICTED BY RF-SCORE:    0.00 PKD
ROOT
HETATM    1  C   UNL     1      -9.466  17.272  71.067  1.00  0.00     5.239 A  
HETATM    2  C   UNL     1      -9.550  17.588  72.569  1.00  0.00    11.051 A  
HETATM    3  C   UNL     1      -9.306  19.141  72.627  1.00  0.00     6.116 A  
HETATM    4  C   UNL     1      -8.938  19.552  71.207  1.00  0.00     3.381 A  
HETATM    5  N   UNL     1      -8.589  18.294  70.585  1.00  0.00     4.103 N  
HETATM    6  C   UNL     1      -8.183  18.294  69.289  1.00  0.00     0.236 C  
HETATM    7  O   UNL     1      -7.294  19.052  68.907  1.00  0.00    -0.316 OA 
HETATM    8  C   UNL     1      -8.851  17.206  68.407  1.00  0.00    -0.255 C  
HETATM    9  O   UNL     1      -8.852  14.955  69.372  1.00  0.00    -0.149 OA 
HETATM   10  N   UNL     1     -10.194  16.477  69.105  1.00  0.00    -0.280 N  
HETATM   11  C   UNL     1     -10.830  15.266  68.699  1.00  0.00    -0.253 C  
HETATM   12  H   UNL     1     -10.540  14.277  70.599  1.00  0.00     0.000 HD 
HETATM   13  C   UNL     1      -9.729  14.525  68.039  1.00  0.00    -0.218 C  
HETATM   14  O   UNL     1     -11.993  14.934  68.861  1.00  0.00    -0.305 OA 
HETATM   15  O   UNL     1     -10.447  15.089  71.083  1.00  0.00     0.123 OA 
HETATM   16  C   UNL     1     -10.292  15.213  66.696  1.00  0.00    -0.274 C  
HETATM   17  C   UNL     1      -9.626  15.881  70.237  1.00  0.00     0.619 C  
ENDROOT
BRANCH   8  18
HETATM   18  C   UNL     1      -8.859  17.798  66.998  1.00  0.00    -0.260 C  
BRANCH  18  19
HETATM   19  C   UNL     1      -7.612  18.531  66.637  1.00  0.00    -0.259 A  
HETATM   20  C   UNL     1      -5.219  18.469  66.413  1.00  0.00    -0.166 A  
HETATM   21  C   UNL     1      -5.222  19.834  66.155  1.00  0.00    -0.168 A  
HETATM   22  C   UNL     1      -7.609  19.896  66.349  1.00  0.00    -0.313 A  
HETATM   23  C   UNL     1      -6.417  20.574  66.125  1.00  0.00    -0.272 A  
HETATM   24  C   UNL     1      -6.414  17.814  66.647  1.00  0.00    -0.230 A  
ENDBRANCH  18  19
ENDBRANCH   8  18
BRANCH  13  25
HETATM   25  N   UNL     1      -9.401  13.168  67.640  1.00  0.00    -0.197 N  
HETATM   26  O   UNL     1     -10.102  12.225  69.668  1.00  0.00     0.683 OA 
HETATM   27  C   UNL     1      -9.493  12.120  68.607  1.00  0.00    -0.045 C  
HETATM   28  H   UNL     1      -9.109  12.966  66.684  1.00  0.00     0.000 HD 
BRANCH  27  29
HETATM   29  C   UNL     1      -8.716  10.847  68.222  1.00  0.00    -0.140 C  
HETATM   30  C   UNL     1      -9.154   9.861  67.014  1.00  0.00    -0.156 C  
HETATM   31  N   UNL     1      -7.822   9.028  65.999  1.00  0.00    -0.101 NA 
HETATM   32  C   UNL     1      -6.350   8.351  65.788  1.00  0.00    -0.052 C  
HETATM   33  C   UNL     1      -7.757  10.139  65.322  1.00  0.00    -0.144 C  
HETATM   34  C   UNL     1      -8.830   8.606  64.837  1.00  0.00    -0.031 C  
HETATM   35  C   UNL     1      -9.085   7.358  66.228  1.00  0.00    -0.195 A  
HETATM   36  C   UNL     1     -10.048   6.422  66.518  1.00  0.00    -0.092 A  
HETATM   37  N   UNL     1      -9.896   6.046  67.860  1.00  0.00    -0.115 NA 
HETATM   38  H   UNL     1     -10.503   5.366  68.317  1.00  0.00     0.000 HD 
HETATM   39  C   UNL     1      -8.842   6.682  68.518  1.00  0.00    -0.122 A  
HETATM   40  C   UNL     1      -8.411   6.677  69.854  1.00  0.00    -0.139 A  
HETATM   41  C   UNL     1      -7.364   7.562  70.247  1.00  0.00    -0.076 A  
HETATM   42  C   UNL     1      -6.779   8.530  69.405  1.00  0.00    -0.045 A  
HETATM   43  C   UNL     1      -7.238   8.645  68.099  1.00  0.00    -0.087 A  
HETATM   44  C   UNL     1      -8.257   7.542  67.616  1.00  0.00    -0.118 A  
HETATM   45  C   UNL     1      -6.963  10.177  67.057  1.00  0.00    -0.088 C  
HETATM   46  C   UNL     1      -7.360  11.262  67.743  1.00  0.00    -0.094 C  
ENDBRANCH  27  29
ENDBRANCH  13  25
TORSDOF 4
ENDMDL
MODEL      160
REMARK 921   NORMALIZED FREE ENERGY PREDICTED BY IDOCK:   25.15 KCAL/MOL
REMARK 922        TOTAL FREE ENERGY PREDICTED BY IDOCK:   30.17 KCAL/MOL
REMARK 923 INTER-LIGAND FREE ENERGY PREDICTED BY IDOCK:   25.95 KCAL/MOL
REMARK 924 INTRA-LIGAND FREE ENERGY PREDICTED BY IDOCK:    4.22 KCAL/MOL
REMARK 927      BINDING AFFINITY PREDICTED BY RF-SCORE:    0.00 PKD
ROOT
HETATM    1  C   UNL     1     -12.380  13.319  68.148  1.00  0.00     0.137 A  
HETATM    2  C   UNL     1     -13.604  14.054  67.579  1.00  0.00     5.962 A  
HETATM    3  C   UNL     1     -13.587  15.430  68.340  1.00  0.00     5.032 A  
HETATM    4  C   UNL     1     -12.484  15.308  69.385  1.00  0.00    -0.037 A  
HETATM    5  N   UNL     1     -12.263  13.882  69.458  1.00  0.00    -0.336 N  
HETATM    6  C   UNL     1     -11.336  13.405  70.328  1.00  0.00     0.253 C  
HETATM    7  O   UNL     1     -11.342  13.750  71.509  1.00  0.00     1.044 OA 
HETATM    8  C   UNL     1     -10.377  12.343  69.727  1.00  0.00     1.121 C  
HETATM    9  O   UNL     1     -11.482  10.545  68.486  1.00  0.00    -0.270 OA 
HETATM   10  N   UNL     1     -10.421  12.240  68.052  1.00  0.00    -0.211 N  
HETATM   11  C   UNL     1      -9.906  11.188  67.236  1.00  0.00    -0.175 C  
HETATM   12  H   UNL     1     -11.812  10.732  66.325  1.00  0.00     0.000 HD 
HETATM   13  C   UNL     1      -9.953  10.018  68.145  1.00  0.00    -0.153 C  
HETATM   14  O   UNL     1      -9.524  11.250  66.079  1.00  0.00    -0.201 OA 
HETATM   15  O   UNL     1     -12.180  11.588  66.508  1.00  0.00     0.012 OA 
HETATM   16  C   UNL     1      -8.435  10.430  68.486  1.00  0.00    -0.129 C  
HETATM   17  C   UNL     1     -11.748  11.852  67.835  1.00  0.00    -0.298 C  
ENDROOT
BRANCH   8  18
HETATM   18  C   UNL     1      -9.081  12.494  70.523  1.00  0.00     6.747 C  
BRANCH  18  19
HETATM   19  C   UNL     1      -7.865  12.680  69.681  1.00  0.00     1.245 A  
HETATM   20  C   UNL     1      -5.463  12.711  69.573  1.00  0.00    -0.083 A  
HETATM   21  C   UNL     1      -5.542  13.167  68.263  1.00  0.00    -0.085 A  
HETATM   22  C   UNL     1      -7.936  13.111  68.356  1.00  0.00    -0.130 A  
HETATM   23  C   UNL     1      -6.781  13.382  67.633  1.00  0.00    -0.174 A  
HETATM   24  C   UNL     1      -6.623  12.460  70.281  1.00  0.00     0.495 A  
ENDBRANCH  18  19
ENDBRANCH   8  18
BRANCH  13  25
HETATM   25  N   UNL     1      -9.928   8.568  68.072  1.00  0.00    -0.175 N  
HETATM   26  O   UNL     1      -7.588   8.445  68.019  1.00  0.00    -0.095 OA 
HETATM   27  C   UNL     1      -8.679   7.907  67.859  1.00  0.00    -0.124 C  
HETATM   28  H   UNL     1     -10.789   8.030  68.172  1.00  0.00     0.000 HD 
BRANCH  27  29
HETATM   29  C   UNL     1      -8.821   6.456  67.360  1.00  0.00    -0.104 C  
HETATM   30  C   UNL     1      -8.989   5.182  68.346  1.00  0.00    -0.118 C  
HETATM   31  N   UNL     1     -10.077   3.759  67.807  1.00  0.00     0.211 NA 
HETATM   32  C   UNL     1     -10.747   2.767  66.695  1.00  0.00     4.116 C  
HETATM   33  C   UNL     1     -11.080   4.468  68.242  1.00  0.00     2.663 C  
HETATM   34  C   UNL     1     -10.144   3.124  69.269  1.00  0.00     0.899 C  
HETATM   35  C   UNL     1      -8.472   2.617  68.557  1.00  0.00    -0.094 A  
HETATM   36  C   UNL     1      -7.318   2.095  69.087  1.00  0.00    -0.043 A  
HETATM   37  N   UNL     1      -6.294   2.263  68.144  1.00  0.00    -0.028 NA 
HETATM   38  H   UNL     1      -5.334   1.963  68.310  1.00  0.00     0.000 HD 
HETATM   39  C   UNL     1      -6.701   2.878  66.959  1.00  0.00    -0.041 A  
HETATM   40  C   UNL     1      -6.001   3.319  65.826  1.00  0.00    -0.023 A  
HETATM   41  C   UNL     1      -6.700   4.052  64.822  1.00  0.00    -0.044 A  
HETATM   42  C   UNL     1      -8.046   4.460  64.923  1.00  0.00    -0.099 A  
HETATM   43  C   UNL     1      -8.757   4.136  66.071  1.00  0.00    -0.115 A  
HETATM   44  C   UNL     1      -8.041   3.166  67.088  1.00  0.00    -0.082 A  
HETATM   45  C   UNL     1     -10.321   5.032  66.584  1.00  0.00    -0.312 C  
HETATM   46  C   UNL     1     -10.097   6.357  66.585  1.00  0.00    -0.206 C  
ENDBRANCH  27  29
ENDBRANCH  13  25
TORSDOF 4
ENDMDL
MODEL      161
REMARK 921   NORMALIZED FREE ENERGY PREDICTED BY IDOCK:   29.52 KCAL/MOL
REMARK 922        TOTAL FREE ENERGY PREDICTED BY IDOCK:   35.57 KCAL/MOL
REMARK 923 INTER-LIGAND FREE ENERGY PREDICTED BY IDOCK:   32.04 KCAL/MOL
REMARK 924 INTRA-LIGAND FREE ENERGY PREDICTED BY IDOCK:    3.53 KCAL/MOL
REMARK 927      BINDING AFFINITY PREDICTED BY RF-SCORE:    0.00 PKD
ROOT
HETATM    1  C   UNL     1      -6.311  16.360  68.045  1.00  0.00    -0.126 A  
HETATM    2  C   UNL     1      -5.188  17.080  67.281  1.00  0.00    -0.172 A  
HETATM    3  C   UNL     1      -5.599  18.596  67.376  1.00  0.00    -0.142 A  
HETATM    4  C   UNL     1      -6.981  18.607  68.019  1.00  0.00    -0.234 A  
HETATM    5  N   UNL     1      -7.424  17.241  67.861  1.00  0.00    -0.179 N  
HETATM    6  C   UNL     1      -8.655  16.893  68.316  1.00  0.00    -0.230 C  
HETATM    7  O   UNL     1      -9.649  17.549  68.009  1.00  0.00    -0.267 OA 
HETATM    8  C   UNL     1      -8.688  15.577  69.137  1.00  0.00    -0.247 C  
HETATM    9  O   UNL     1      -7.524  13.688  68.102  1.00  0.00    -0.099 OA 
HETATM   10  N   UNL     1      -7.177  15.021  69.615  1.00  0.00    -0.194 N  
HETATM   11  C   UNL     1      -6.849  13.720  70.102  1.00  0.00     0.303 C  
HETATM   12  H   UNL     1      -5.408  13.315  68.543  1.00  0.00     0.000 HD 
HETATM   13  C   UNL     1      -7.894  12.868  69.488  1.00  0.00     0.976 C  
HETATM   14  O   UNL     1      -5.932  13.402  70.842  1.00  0.00    -0.165 OA 
HETATM   15  O   UNL     1      -5.259  14.232  68.349  1.00  0.00    -0.091 OA 
HETATM   16  C   UNL     1      -8.685  13.130  70.866  1.00  0.00     8.761 C  
HETATM   17  C   UNL     1      -6.566  14.787  68.378  1.00  0.00    -0.101 C  
ENDROOT
BRANCH   8  18
HETATM   18  C   UNL     1      -9.860  15.750  70.103  1.00  0.00     0.098 C  
BRANCH  18  19
HETATM   19  C   UNL     1     -11.133  16.171  69.451  1.00  0.00    -0.335 A  
HETATM   20  C   UNL     1     -12.620  17.975  68.891  1.00  0.00     7.750 A  
HETATM   21  C   UNL     1     -13.545  17.049  68.424  1.00  0.00     7.220 A  
HETATM   22  C   UNL     1     -12.055  15.249  68.955  1.00  0.00    -0.223 A  
HETATM   23  C   UNL     1     -13.282  15.668  68.454  1.00  0.00     3.138 A  
HETATM   24  C   UNL     1     -11.411  17.539  69.398  1.00  0.00     1.377 A  
ENDBRANCH  18  19
ENDBRANCH   8  18
BRANCH  13  25
HETATM   25  N   UNL     1      -8.137  11.468  69.192  1.00  0.00    -0.367 N  
HETATM   26  O   UNL     1      -9.719  11.208  70.902  1.00  0.00     2.890 OA 
HETATM   27  C   UNL     1      -8.965  10.706  70.074  1.00  0.00     0.683 C  
HETATM   28  H   UNL     1      -7.724  11.034  68.366  1.00  0.00     0.000 HD 
BRANCH  27  29
HETATM   29  C   UNL     1      -8.793   9.182  69.927  1.00  0.00    -0.176 C  
HETATM   30  C   UNL     1      -9.831   8.238  69.118  1.00  0.00    -0.179 C  
HETATM   31  N   UNL     1      -9.165   6.772  68.165  1.00  0.00    -0.123 NA 
HETATM   32  C   UNL     1      -8.117   5.544  67.911  1.00  0.00    -0.100 C  
HETATM   33  C   UNL     1      -8.896   7.618  67.211  1.00  0.00    -0.120 C  
HETATM   34  C   UNL     1     -10.514   6.568  67.339  1.00  0.00    -0.252 C  
HETATM   35  C   UNL     1     -10.823   5.809  69.039  1.00  0.00    -0.330 A  
HETATM   36  C   UNL     1     -11.942   5.401  69.722  1.00  0.00     3.674 A  
HETATM   37  N   UNL     1     -11.596   5.257  71.073  1.00  0.00     0.734 NA 
HETATM   38  H   UNL     1     -12.264   4.970  71.789  1.00  0.00     0.000 HD 
HETATM   39  C   UNL     1     -10.259   5.540  71.356  1.00  0.00    -0.215 A  
HETATM   40  C   UNL     1      -9.535   5.620  72.555  1.00  0.00    -0.157 A  
HETATM   41  C   UNL     1      -8.185   6.079  72.520  1.00  0.00    -0.108 A  
HETATM   42  C   UNL     1      -7.535   6.560  71.365  1.00  0.00    -0.089 A  
HETATM   43  C   UNL     1      -8.240   6.597  70.168  1.00  0.00    -0.133 A  
HETATM   44  C   UNL     1      -9.662   5.913  70.172  1.00  0.00    -0.211 A  
HETATM   45  C   UNL     1      -7.729   7.669  68.720  1.00  0.00    -0.118 C  
HETATM   46  C   UNL     1      -7.545   8.932  69.141  1.00  0.00    -0.080 C  
ENDBRANCH  27  29
ENDBRANCH  13  25
TORSDOF 4
ENDMDL
MODEL      162
REMARK 921   NORMALIZED FREE ENERGY PREDICTED BY IDOCK:   37.55 KCAL/MOL
REMARK 922        TOTAL FREE ENERGY PREDICTED BY IDOCK:   45.47 KCAL/MOL
REMARK 923 INTER-LIGAND FREE ENERGY PREDICTED BY IDOCK:   41.88 KCAL/MOL
REMARK 924 INTRA-LIGAND FREE ENERGY PREDICTED BY IDOCK:    3.58 KCAL/MOL
REMARK 927      BINDING AFFINITY PREDICTED BY RF-SCORE:    0.00 PKD
ROOT
HETATM    1  C   UNL     1     -12.414  13.300  68.195  1.00  0.00     0.405 A  
HETATM    2  C   UNL     1     -13.540  14.045  67.460  1.00  0.00     5.962 A  
HETATM    3  C   UNL     1     -13.608  15.428  68.207  1.00  0.00     5.309 A  
HETATM    4  C   UNL     1     -12.658  15.301  69.392  1.00  0.00     0.080 A  
HETATM    5  N   UNL     1     -12.468  13.873  69.505  1.00  0.00    -0.211 N  
HETATM    6  C   UNL     1     -11.673  13.392  70.495  1.00  0.00    -0.026 C  
HETATM    7  O   UNL     1     -11.835  13.747  71.662  1.00  0.00     0.148 OA 
HETATM    8  C   UNL     1     -10.657  12.313  70.037  1.00  0.00     1.241 C  
HETATM    9  O   UNL     1     -11.607  10.518  68.670  1.00  0.00    -0.258 OA 
HETATM   10  N   UNL     1     -10.475  12.196  68.371  1.00  0.00    -0.226 N  
HETATM   11  C   UNL     1      -9.869  11.131  67.640  1.00  0.00    -0.174 C  
HETATM   12  H   UNL     1     -11.640  10.690  66.483  1.00  0.00     0.000 HD 
HETATM   13  C   UNL     1     -10.054   9.969  68.542  1.00  0.00    -0.169 C  
HETATM   14  O   UNL     1      -9.332  11.178  66.545  1.00  0.00    -0.172 OA 
HETATM   15  O   UNL     1     -12.018  11.553  66.608  1.00  0.00    -0.428 OA 
HETATM   16  C   UNL     1      -8.590  10.365  69.083  1.00  0.00    -0.169 C  
HETATM   17  C   UNL     1     -11.765  11.822  67.980  1.00  0.00    -0.293 C  
ENDROOT
BRANCH   8  18
HETATM   18  C   UNL     1      -9.478  12.455  70.999  1.00  0.00    10.351 C  
BRANCH  18  19
HETATM   19  C   UNL     1      -8.151  12.571  70.329  1.00  0.00     3.985 A  
HETATM   20  C   UNL     1      -5.758  12.541  70.558  1.00  0.00    -0.170 A  
HETATM   21  C   UNL     1      -5.641  12.934  69.230  1.00  0.00    -0.076 A  
HETATM   22  C   UNL     1      -8.025  12.938  68.989  1.00  0.00     0.305 A  
HETATM   23  C   UNL     1      -6.772  13.146  68.424  1.00  0.00    -0.095 A  
HETATM   24  C   UNL     1      -7.012  12.352  71.107  1.00  0.00     3.996 A  
ENDBRANCH  18  19
ENDBRANCH   8  18
BRANCH  13  25
HETATM   25  N   UNL     1     -10.039   8.519  68.483  1.00  0.00    -0.189 N  
HETATM   26  O   UNL     1      -9.506   8.266  70.752  1.00  0.00    -0.155 OA 
HETATM   27  C   UNL     1      -9.599   7.784  69.627  1.00  0.00    -0.163 C  
HETATM   28  H   UNL     1     -10.338   8.032  67.638  1.00  0.00     0.000 HD 
BRANCH  27  29
HETATM   29  C   UNL     1      -9.202   6.328  69.316  1.00  0.00    -0.133 C  
HETATM   30  C   UNL     1     -10.184   5.062  69.552  1.00  0.00    -0.286 C  
HETATM   31  N   UNL     1     -10.114   3.628  68.352  1.00  0.00     0.346 NA 
HETATM   32  C   UNL     1      -9.351   2.624  67.313  1.00  0.00    -0.100 C  
HETATM   33  C   UNL     1     -10.897   4.335  67.588  1.00  0.00     1.869 C  
HETATM   34  C   UNL     1     -11.493   3.006  68.858  1.00  0.00    10.759 C  
HETATM   35  C   UNL     1     -10.194   2.501  70.131  1.00  0.00     1.065 A  
HETATM   36  C   UNL     1     -10.242   1.990  71.404  1.00  0.00     0.210 A  
HETATM   37  N   UNL     1      -8.976   2.156  71.985  1.00  0.00    -0.072 NA 
HETATM   38  H   UNL     1      -8.761   1.862  72.937  1.00  0.00     0.000 HD 
HETATM   39  C   UNL     1      -8.036   2.758  71.148  1.00  0.00    -0.053 A  
HETATM   40  C   UNL     1      -6.717   3.194  71.354  1.00  0.00    -0.030 A  
HETATM   41  C   UNL     1      -6.056   3.914  70.316  1.00  0.00    -0.019 A  
HETATM   42  C   UNL     1      -6.665   4.316  69.109  1.00  0.00    -0.045 A  
HETATM   43  C   UNL     1      -8.001   3.997  68.898  1.00  0.00    -0.067 A  
HETATM   44  C   UNL     1      -8.669   3.040  69.958  1.00  0.00    -0.129 A  
HETATM   45  C   UNL     1      -9.072   4.889  67.646  1.00  0.00    -0.126 C  
HETATM   46  C   UNL     1      -8.979   6.215  67.841  1.00  0.00    -0.112 C  
ENDBRANCH  27  29
ENDBRANCH  13  25
TORSDOF 4
ENDMDL
MODEL      163
REMARK 921   NORMALIZED FREE ENERGY PREDICTED BY IDOCK:   39.44 KCAL/MOL
REMARK 922        TOTAL FREE ENERGY PREDICTED BY IDOCK:   47.81 KCAL/MOL
REMARK 923 INTER-LIGAND FREE ENERGY PREDICTED BY IDOCK:   40.63 KCAL/MOL
REMARK 924 INTRA-LIGAND FREE ENERGY PREDICTED BY IDOCK:    7.17 KCAL/MOL
REMARK 927      BINDING AFFINITY PREDICTED BY RF-SCORE:    0.00 PKD
ROOT
HETATM    1  C   UNL     1      -8.317  14.054  69.802  1.00  0.00     1.096 A  
HETATM    2  C   UNL     1      -7.643  15.394  69.471  1.00  0.00    -0.212 A  
HETATM    3  C   UNL     1      -8.197  16.362  70.580  1.00  0.00     3.394 A  
HETATM    4  C   UNL     1      -9.253  15.562  71.333  1.00  0.00     3.649 A  
HETATM    5  N   UNL     1      -9.533  14.466  70.433  1.00  0.00     1.510 N  
HETATM    6  C   UNL     1     -10.467  13.547  70.789  1.00  0.00     3.358 C  
HETATM    7  O   UNL     1     -11.585  13.896  71.163  1.00  0.00     0.009 OA 
HETATM    8  C   UNL     1     -10.030  12.073  70.578  1.00  0.00     4.445 C  
HETATM    9  O   UNL     1      -9.057  11.592  68.383  1.00  0.00    -0.180 OA 
HETATM   10  N   UNL     1      -8.387  11.871  70.296  1.00  0.00     3.321 N  
HETATM   11  C   UNL     1      -7.734  10.714  69.775  1.00  0.00    -0.004 C  
HETATM   12  H   UNL     1      -6.890  11.747  68.075  1.00  0.00     0.000 HD 
HETATM   13  C   UNL     1      -8.802  10.070  68.974  1.00  0.00    -0.159 C  
HETATM   14  O   UNL     1      -6.581  10.354  69.954  1.00  0.00    -0.090 OA 
HETATM   15  O   UNL     1      -6.945  12.603  68.482  1.00  0.00    -0.082 OA 
HETATM   16  C   UNL     1      -9.087   9.241  70.324  1.00  0.00    -0.271 C  
HETATM   17  C   UNL     1      -8.222  12.586  69.104  1.00  0.00     0.542 C  
ENDROOT
BRANCH   8  18
HETATM   18  C   UNL     1     -10.801  11.283  71.635  1.00  0.00     4.746 C  
BRANCH  18  19
HETATM   19  C   UNL     1     -11.819  12.083  72.374  1.00  0.00     4.045 A  
HETATM   20  C   UNL     1     -14.099  12.269  73.115  1.00  0.00     2.782 A  
HETATM   21  C   UNL     1     -13.830  13.554  73.572  1.00  0.00     3.090 A  
HETATM   22  C   UNL     1     -11.550  13.362  72.861  1.00  0.00     3.938 A  
HETATM   23  C   UNL     1     -12.552  14.126  73.447  1.00  0.00     0.114 A  
HETATM   24  C   UNL     1     -13.093  11.529  72.523  1.00  0.00     0.717 A  
ENDBRANCH  18  19
ENDBRANCH   8  18
BRANCH  13  25
HETATM   25  N   UNL     1      -8.939   9.091  67.911  1.00  0.00    -0.132 N  
HETATM   26  O   UNL     1     -10.836   8.087  68.855  1.00  0.00    -0.119 OA 
HETATM   27  C   UNL     1      -9.912   8.053  68.047  1.00  0.00    -0.179 C  
HETATM   28  H   UNL     1      -8.351   9.144  67.080  1.00  0.00     0.000 HD 
BRANCH  27  29
HETATM   29  C   UNL     1      -9.672   6.849  67.115  1.00  0.00    -0.197 C  
HETATM   30  C   UNL     1      -8.625   5.658  67.442  1.00  0.00    -0.109 C  
HETATM   31  N   UNL     1      -9.049   3.913  66.916  1.00  0.00    -0.138 NA 
HETATM   32  C   UNL     1      -9.733   2.807  65.927  1.00  0.00     0.305 C  
HETATM   33  C   UNL     1      -9.760   3.844  68.005  1.00  0.00    -0.064 C  
HETATM   34  C   UNL     1      -7.926   3.255  67.839  1.00  0.00    -0.075 C  
HETATM   35  C   UNL     1      -7.030   3.906  66.311  1.00  0.00    -0.062 A  
HETATM   36  C   UNL     1      -5.714   4.141  65.994  1.00  0.00    -0.022 A  
HETATM   37  N   UNL     1      -5.683   4.961  64.857  1.00  0.00    -0.014 NA 
HETATM   38  H   UNL     1      -4.815   5.284  64.430  1.00  0.00     0.000 HD 
HETATM   39  C   UNL     1      -6.942   5.299  64.359  1.00  0.00    -0.049 A  
HETATM   40  C   UNL     1      -7.361   6.157  63.330  1.00  0.00    -0.066 A  
HETATM   41  C   UNL     1      -8.755   6.400  63.155  1.00  0.00     0.497 A  
HETATM   42  C   UNL     1      -9.764   5.911  64.011  1.00  0.00     2.028 A  
HETATM   43  C   UNL     1      -9.396   5.138  65.105  1.00  0.00    -0.011 A  
HETATM   44  C   UNL     1      -7.878   4.715  65.184  1.00  0.00    -0.090 A  
HETATM   45  C   UNL     1     -10.511   4.876  66.587  1.00  0.00    -0.270 C  
HETATM   46  C   UNL     1     -10.944   6.066  67.036  1.00  0.00    -0.364 C  
ENDBRANCH  27  29
ENDBRANCH  13  25
TORSDOF 4
ENDMDL
MODEL      164
REMARK 921   NORMALIZED FREE ENERGY PREDICTED BY IDOCK:   39.48 KCAL/MOL
REMARK 922        TOTAL FREE ENERGY PREDICTED BY IDOCK:   47.85 KCAL/MOL
REMARK 923 INTER-LIGAND FREE ENERGY PREDICTED BY IDOCK:   39.85 KCAL/MOL
REMARK 924 INTRA-LIGAND FREE ENERGY PREDICTED BY IDOCK:    8.00 KCAL/MOL
REMARK 927      BINDING AFFINITY PREDICTED BY RF-SCORE:    0.00 PKD
ROOT
HETATM    1  C   UNL     1     -12.020  15.355  69.715  1.00  0.00    -0.358 A  
HETATM    2  C   UNL     1     -12.557  16.751  69.359  1.00  0.00     2.811 A  
HETATM    3  C   UNL     1     -13.405  17.146  70.624  1.00  0.00     9.249 A  
HETATM    4  C   UNL     1     -13.429  15.904  71.506  1.00  0.00     0.030 A  
HETATM    5  N   UNL     1     -13.026  14.853  70.599  1.00  0.00    -0.358 N  
HETATM    6  C   UNL     1     -12.958  13.578  71.061  1.00  0.00    -0.202 C  
HETATM    7  O   UNL     1     -13.901  13.077  71.671  1.00  0.00    -0.103 OA 
HETATM    8  C   UNL     1     -11.666  12.818  70.660  1.00  0.00     0.190 C  
HETATM    9  O   UNL     1     -11.076  12.969  68.288  1.00  0.00    -0.238 OA 
HETATM   10  N   UNL     1     -10.447  13.799  70.050  1.00  0.00     0.727 N  
HETATM   11  C   UNL     1      -9.286  13.388  69.327  1.00  0.00     0.758 C  
HETATM   12  H   UNL     1      -9.752  14.567  67.576  1.00  0.00     0.000 HD 
HETATM   13  C   UNL     1      -9.723  12.116  68.703  1.00  0.00    -0.081 C  
HETATM   14  O   UNL     1      -8.207  13.953  69.251  1.00  0.00     0.182 OA 
HETATM   15  O   UNL     1     -10.311  15.171  68.049  1.00  0.00    -0.235 OA 
HETATM   16  C   UNL     1      -9.083  11.443  70.018  1.00  0.00     2.043 C  
HETATM   17  C   UNL     1     -11.060  14.319  68.905  1.00  0.00    -0.262 C  
ENDROOT
BRANCH   8  18
HETATM   18  C   UNL     1     -11.443  11.809  71.786  1.00  0.00     3.360 C  
BRANCH  18  19
HETATM   19  C   UNL     1     -10.717  10.576  71.367  1.00  0.00     1.650 A  
HETATM   20  C   UNL     1     -10.289   8.971  69.629  1.00  0.00    -0.217 A  
HETATM   21  C   UNL     1      -9.560   8.208  70.532  1.00  0.00    -0.177 A  
HETATM   22  C   UNL     1      -9.960   9.819  72.261  1.00  0.00     2.738 A  
HETATM   23  C   UNL     1      -9.388   8.615  71.867  1.00  0.00    -0.357 A  
HETATM   24  C   UNL     1     -10.863  10.158  70.042  1.00  0.00    -0.361 A  
ENDBRANCH  18  19
ENDBRANCH   8  18
BRANCH  13  25
HETATM   25  N   UNL     1      -9.335  11.234  67.618  1.00  0.00    -0.158 N  
HETATM   26  O   UNL     1     -11.544  10.718  67.025  1.00  0.00    -0.322 OA 
HETATM   27  C   UNL     1     -10.343  10.473  66.950  1.00  0.00    -0.239 C  
HETATM   28  H   UNL     1      -8.357  11.159  67.337  1.00  0.00     0.000 HD 
BRANCH  27  29
HETATM   29  C   UNL     1      -9.791   9.274  66.153  1.00  0.00    -0.363 C  
HETATM   30  C   UNL     1     -10.061   7.730  66.559  1.00  0.00    -0.224 C  
HETATM   31  N   UNL     1     -10.268   6.462  65.199  1.00  0.00     2.018 NA 
HETATM   32  C   UNL     1      -9.970   5.841  63.717  1.00  0.00     2.575 C  
HETATM   33  C   UNL     1     -11.507   6.858  65.130  1.00  0.00     8.164 C  
HETATM   34  C   UNL     1     -10.878   5.361  66.180  1.00  0.00    -0.027 C  
HETATM   35  C   UNL     1      -9.011   5.326  66.452  1.00  0.00    -0.128 A  
HETATM   36  C   UNL     1      -8.188   4.791  67.412  1.00  0.00    -0.105 A  
HETATM   37  N   UNL     1      -6.927   5.390  67.284  1.00  0.00    -0.064 NA 
HETATM   38  H   UNL     1      -6.142   5.164  67.894  1.00  0.00     0.000 HD 
HETATM   39  C   UNL     1      -6.837   6.322  66.249  1.00  0.00    -0.061 A  
HETATM   40  C   UNL     1      -5.822   7.203  65.845  1.00  0.00    -0.036 A  
HETATM   41  C   UNL     1      -6.095   8.149  64.814  1.00  0.00    -0.049 A  
HETATM   42  C   UNL     1      -7.360   8.339  64.220  1.00  0.00    -0.093 A  
HETATM   43  C   UNL     1      -8.426   7.561  64.654  1.00  0.00     0.101 A  
HETATM   44  C   UNL     1      -8.077   6.391  65.654  1.00  0.00    -0.131 A  
HETATM   45  C   UNL     1     -10.215   8.039  64.372  1.00  0.00     5.656 C  
HETATM   46  C   UNL     1     -10.412   9.300  64.792  1.00  0.00     2.547 C  
ENDBRANCH  27  29
ENDBRANCH  13  25
TORSDOF 4
ENDMDL
MODEL      165
REMARK 921   NORMALIZED FREE ENERGY PREDICTED BY IDOCK:   39.69 KCAL/MOL
REMARK 922        TOTAL FREE ENERGY PREDICTED BY IDOCK:   48.11 KCAL/MOL
REMARK 923 INTER-LIGAND FREE ENERGY PREDICTED BY IDOCK:   47.30 KCAL/MOL
REMARK 924 INTRA-LIGAND FREE ENERGY PREDICTED BY IDOCK:    0.81 KCAL/MOL
REMARK 927      BINDING AFFINITY PREDICTED BY RF-SCORE:    0.00 PKD
ROOT
HETATM    1  C   UNL     1      -9.319   7.960  70.395  1.00  0.00    -0.159 A  
HETATM    2  C   UNL     1      -8.883   6.969  71.486  1.00  0.00    -0.128 A  
HETATM    3  C   UNL     1      -9.290   5.572  70.891  1.00  0.00    -0.191 A  
HETATM    4  C   UNL     1     -10.065   5.879  69.615  1.00  0.00    -0.200 A  
HETATM    5  N   UNL     1     -10.409   7.274  69.773  1.00  0.00    -0.214 N  
HETATM    6  C   UNL     1     -11.138   7.883  68.803  1.00  0.00     0.310 C  
HETATM    7  O   UNL     1     -12.182   7.381  68.389  1.00  0.00     2.263 OA 
HETATM    8  C   UNL     1     -10.598   9.272  68.370  1.00  0.00    -0.234 C  
HETATM    9  O   UNL     1     -10.070  10.792  70.216  1.00  0.00     0.304 OA 
HETATM   10  N   UNL     1      -9.041   9.606  68.904  1.00  0.00    -0.139 N  
HETATM   11  C   UNL     1      -8.392  10.877  68.937  1.00  0.00    -0.139 C  
HETATM   12  H   UNL     1      -8.050  10.837  71.071  1.00  0.00     0.000 HD 
HETATM   13  C   UNL     1      -9.529  11.822  69.042  1.00  0.00     0.191 C  
HETATM   14  O   UNL     1      -7.195  11.113  68.890  1.00  0.00    -0.089 OA 
HETATM   15  O   UNL     1      -8.111   9.891  71.131  1.00  0.00     0.001 OA 
HETATM   16  C   UNL     1      -9.426  11.866  67.436  1.00  0.00    -0.175 C  
HETATM   17  C   UNL     1      -9.215   9.582  70.292  1.00  0.00    -0.258 C  
ENDROOT
BRANCH   8  18
HETATM   18  C   UNL     1     -11.033   9.422  66.912  1.00  0.00     0.102 C  
BRANCH  18  19
HETATM   19  C   UNL     1     -10.252   8.590  65.953  1.00  0.00     0.528 A  
HETATM   20  C   UNL     1      -8.216   7.393  65.501  1.00  0.00    -0.135 A  
HETATM   21  C   UNL     1      -8.645   7.186  64.196  1.00  0.00     0.443 A  
HETATM   22  C   UNL     1     -10.688   8.353  64.649  1.00  0.00     7.331 A  
HETATM   23  C   UNL     1      -9.886   7.667  63.744  1.00  0.00     4.980 A  
HETATM   24  C   UNL     1      -9.021   8.089  66.383  1.00  0.00    -0.204 A  
ENDBRANCH  18  19
ENDBRANCH   8  18
BRANCH  13  25
HETATM   25  N   UNL     1      -9.783  13.198  69.426  1.00  0.00     0.141 N  
HETATM   26  O   UNL     1      -9.181  14.069  67.335  1.00  0.00    -0.199 OA 
HETATM   27  C   UNL     1      -9.423  14.247  68.526  1.00  0.00    -0.206 C  
HETATM   28  H   UNL     1     -10.213  13.412  70.326  1.00  0.00     0.000 HD 
BRANCH  27  29
HETATM   29  C   UNL     1      -9.317  15.632  69.193  1.00  0.00    -0.252 C  
HETATM   30  C   UNL     1     -10.591  16.595  69.464  1.00  0.00    -0.308 C  
HETATM   31  N   UNL     1     -10.614  17.648  71.010  1.00  0.00     1.766 NA 
HETATM   32  C   UNL     1      -9.911  18.534  72.190  1.00  0.00     6.578 C  
HETATM   33  C   UNL     1     -11.045  16.586  71.630  1.00  0.00     0.542 C  
HETATM   34  C   UNL     1     -12.171  17.971  70.888  1.00  0.00     9.393 C  
HETATM   35  C   UNL     1     -11.304  19.113  69.662  1.00  0.00     3.847 A  
HETATM   36  C   UNL     1     -11.721  19.891  68.610  1.00  0.00     3.250 A  
HETATM   37  N   UNL     1     -10.592  20.230  67.849  1.00  0.00    -0.180 NA 
HETATM   38  H   UNL     1     -10.645  20.798  67.004  1.00  0.00     0.000 HD 
HETATM   39  C   UNL     1      -9.391  19.722  68.346  1.00  0.00    -0.314 A  
HETATM   40  C   UNL     1      -8.077  19.733  67.856  1.00  0.00    -0.336 A  
HETATM   41  C   UNL     1      -7.074  18.989  68.545  1.00  0.00    -0.322 A  
HETATM   42  C   UNL     1      -7.322  18.148  69.650  1.00  0.00     0.364 A  
HETATM   43  C   UNL     1      -8.625  18.023  70.115  1.00  0.00     2.556 A  
HETATM   44  C   UNL     1      -9.693  18.991  69.473  1.00  0.00     0.073 A  
HETATM   45  C   UNL     1      -9.191  16.589  71.179  1.00  0.00     5.009 C  
HETATM   46  C   UNL     1      -8.836  15.432  70.596  1.00  0.00     1.705 C  
ENDBRANCH  27  29
ENDBRANCH  13  25
TORSDOF 4
ENDMDL
MODEL      166
REMARK 921   NORMALIZED FREE ENERGY PREDICTED BY IDOCK:   40.49 KCAL/MOL
REMARK 922        TOTAL FREE ENERGY PREDICTED BY IDOCK:   49.10 KCAL/MOL
REMARK 923 INTER-LIGAND FREE ENERGY PREDICTED BY IDOCK:   47.19 KCAL/MOL
REMARK 924 INTRA-LIGAND FREE ENERGY PREDICTED BY IDOCK:    1.91 KCAL/MOL
REMARK 927      BINDING AFFINITY PREDICTED BY RF-SCORE:    0.00 PKD
ROOT
HETATM    1  C   UNL     1      -8.714  10.495  71.611  1.00  0.00     5.957 A  
HETATM    2  C   UNL     1      -9.674   9.989  72.699  1.00  0.00     6.041 A  
HETATM    3  C   UNL     1      -9.729   8.438  72.441  1.00  0.00    -0.376 A  
HETATM    4  C   UNL     1      -8.953   8.209  71.150  1.00  0.00    -0.146 A  
HETATM    5  N   UNL     1      -8.892   9.531  70.569  1.00  0.00    -0.234 N  
HETATM    6  C   UNL     1      -8.272   9.693  69.372  1.00  0.00    -0.132 C  
HETATM    7  O   UNL     1      -8.554   8.978  68.413  1.00  0.00    -0.128 OA 
HETATM    8  C   UNL     1      -7.292  10.896  69.314  1.00  0.00    -0.125 C  
HETATM    9  O   UNL     1      -8.197  13.002  70.175  1.00  0.00     2.490 OA 
HETATM   10  N   UNL     1      -6.907  11.548  70.813  1.00  0.00     1.359 N  
HETATM   11  C   UNL     1      -6.297  12.811  71.076  1.00  0.00     1.180 C  
HETATM   12  H   UNL     1      -7.933  13.541  72.285  1.00  0.00     0.000 HD 
HETATM   13  C   UNL     1      -6.688  13.615  69.894  1.00  0.00     0.113 C  
HETATM   14  O   UNL     1      -5.622  13.136  72.040  1.00  0.00    -0.399 OA 
HETATM   15  O   UNL     1      -8.255  12.672  72.493  1.00  0.00    15.118 OA 
HETATM   16  C   UNL     1      -5.280  13.115  69.294  1.00  0.00    -0.074 C  
HETATM   17  C   UNL     1      -8.162  11.984  71.254  1.00  0.00    10.715 C  
ENDROOT
BRANCH   8  18
HETATM   18  C   UNL     1      -6.240  10.492  68.282  1.00  0.00    -0.054 C  
BRANCH  18  19
HETATM   19  C   UNL     1      -6.723  10.522  66.872  1.00  0.00    -0.086 A  
HETATM   20  C   UNL     1      -6.155  10.684  64.541  1.00  0.00     0.046 A  
HETATM   21  C   UNL     1      -7.507  10.760  64.232  1.00  0.00     0.351 A  
HETATM   22  C   UNL     1      -8.079  10.571  66.551  1.00  0.00    -0.134 A  
HETATM   23  C   UNL     1      -8.494  10.712  65.232  1.00  0.00    -0.152 A  
HETATM   24  C   UNL     1      -5.761  10.558  65.860  1.00  0.00    -0.111 A  
ENDBRANCH  18  19
ENDBRANCH   8  18
BRANCH  13  25
HETATM   25  N   UNL     1      -6.779  15.006  69.492  1.00  0.00    -0.153 N  
HETATM   26  O   UNL     1      -8.966  15.269  70.296  1.00  0.00     0.250 OA 
HETATM   27  C   UNL     1      -8.033  15.682  69.613  1.00  0.00    -0.080 C  
HETATM   28  H   UNL     1      -5.960  15.495  69.129  1.00  0.00     0.000 HD 
BRANCH  27  29
HETATM   29  C   UNL     1      -8.132  16.966  68.767  1.00  0.00    -0.251 C  
HETATM   30  C   UNL     1      -8.469  16.970  67.183  1.00  0.00    -0.222 C  
HETATM   31  N   UNL     1      -9.498  18.367  66.482  1.00  0.00    -0.312 NA 
HETATM   32  C   UNL     1     -10.020  19.914  66.422  1.00  0.00    -0.479 C  
HETATM   33  C   UNL     1     -10.538  17.700  66.895  1.00  0.00    -0.235 C  
HETATM   34  C   UNL     1      -9.791  17.599  65.114  1.00  0.00     1.436 C  
HETATM   35  C   UNL     1      -8.045  18.296  64.957  1.00  0.00     2.698 A  
HETATM   36  C   UNL     1      -6.992  18.072  64.105  1.00  0.00     5.276 A  
HETATM   37  N   UNL     1      -5.838  18.611  64.691  1.00  0.00    -0.288 NA 
HETATM   38  H   UNL     1      -4.919  18.562  64.252  1.00  0.00     0.000 HD 
HETATM   39  C   UNL     1      -6.054  19.220  65.928  1.00  0.00    -0.188 A  
HETATM   40  C   UNL     1      -5.187  19.779  66.880  1.00  0.00    -0.160 A  
HETATM   41  C   UNL     1      -5.716  20.204  68.134  1.00  0.00    -0.257 A  
HETATM   42  C   UNL     1      -7.053  20.017  68.541  1.00  0.00    -0.309 A  
HETATM   43  C   UNL     1      -7.931  19.378  67.675  1.00  0.00    -0.318 A  
HETATM   44  C   UNL     1      -7.392  19.083  66.222  1.00  0.00    -0.281 A  
HETATM   45  C   UNL     1      -9.533  18.593  68.249  1.00  0.00    -0.369 C  
HETATM   46  C   UNL     1      -9.283  17.771  69.282  1.00  0.00     0.209 C  
ENDBRANCH  27  29
ENDBRANCH  13  25
TORSDOF 4
ENDMDL
MODEL      167
REMARK 921   NORMALIZED FREE ENERGY PREDICTED BY IDOCK:   41.27 KCAL/MOL
REMARK 922        TOTAL FREE ENERGY PREDICTED BY IDOCK:   50.05 KCAL/MOL
REMARK 923 INTER-LIGAND FREE ENERGY PREDICTED BY IDOCK:   49.69 KCAL/MOL
REMARK 924 INTRA-LIGAND FREE ENERGY PREDICTED BY IDOCK:    0.37 KCAL/MOL
REMARK 927      BINDING AFFINITY PREDICTED BY RF-SCORE:    0.00 PKD
ROOT
HETATM    1  C   UNL     1      -6.756  12.375  72.080  1.00  0.00     5.537 A  
HETATM    2  C   UNL     1      -5.859  13.328  72.886  1.00  0.00     0.986 A  
HETATM    3  C   UNL     1      -6.888  14.301  73.572  1.00  0.00     2.879 A  
HETATM    4  C   UNL     1      -8.247  13.945  72.980  1.00  0.00    10.368 A  
HETATM    5  N   UNL     1      -7.898  13.189  71.798  1.00  0.00     9.371 N  
HETATM    6  C   UNL     1      -8.894  12.721  71.002  1.00  0.00    11.263 C  
HETATM    7  O   UNL     1      -9.787  13.467  70.605  1.00  0.00     3.496 OA 
HETATM    8  C   UNL     1      -8.730  11.239  70.573  1.00  0.00     3.866 C  
HETATM    9  O   UNL     1      -6.513  10.653  69.715  1.00  0.00    -0.078 OA 
HETATM   10  N   UNL     1      -7.573  10.390  71.445  1.00  0.00     2.305 N  
HETATM   11  C   UNL     1      -6.982   9.136  71.106  1.00  0.00    -0.081 C  
HETATM   12  H   UNL     1      -4.962   9.903  71.073  1.00  0.00     0.000 HD 
HETATM   13  C   UNL     1      -7.097   9.110  69.628  1.00  0.00    -0.059 C  
HETATM   14  O   UNL     1      -6.505   8.300  71.857  1.00  0.00    -0.050 OA 
HETATM   15  O   UNL     1      -5.164  10.646  71.630  1.00  0.00    -0.202 OA 
HETATM   16  C   UNL     1      -8.475   8.328  69.914  1.00  0.00    -0.127 C  
HETATM   17  C   UNL     1      -6.411  11.102  71.126  1.00  0.00     1.253 C  
ENDROOT
BRANCH   8  18
HETATM   18  C   UNL     1     -10.158  10.734  70.366  1.00  0.00     0.920 C  
BRANCH  18  19
HETATM   19  C   UNL     1     -10.782  11.174  69.086  1.00  0.00    -0.262 A  
HETATM   20  C   UNL     1     -12.135  12.805  67.948  1.00  0.00    -0.187 A  
HETATM   21  C   UNL     1     -12.126  12.001  66.815  1.00  0.00     0.143 A  
HETATM   22  C   UNL     1     -10.754  10.386  67.935  1.00  0.00    -0.307 A  
HETATM   23  C   UNL     1     -11.441  10.773  66.790  1.00  0.00     0.305 A  
HETATM   24  C   UNL     1     -11.458  12.397  69.082  1.00  0.00    -0.358 A  
ENDBRANCH  18  19
ENDBRANCH   8  18
BRANCH  13  25
HETATM   25  N   UNL     1      -6.516   8.417  68.493  1.00  0.00    -0.054 N  
HETATM   26  O   UNL     1      -7.866   9.515  66.921  1.00  0.00    -0.100 OA 
HETATM   27  C   UNL     1      -7.096   8.599  67.199  1.00  0.00    -0.075 C  
HETATM   28  H   UNL     1      -5.706   7.810  68.616  1.00  0.00     0.000 HD 
BRANCH  27  29
HETATM   29  C   UNL     1      -6.706   7.508  66.183  1.00  0.00    -0.053 C  
HETATM   30  C   UNL     1      -7.568   7.174  64.853  1.00  0.00    -0.103 C  
HETATM   31  N   UNL     1      -6.664   6.667  63.295  1.00  0.00    -0.041 NA 
HETATM   32  C   UNL     1      -5.445   5.951  62.477  1.00  0.00    -0.017 C  
HETATM   33  C   UNL     1      -6.479   7.940  63.086  1.00  0.00    -0.072 C  
HETATM   34  C   UNL     1      -7.937   6.898  62.361  1.00  0.00    -0.122 C  
HETATM   35  C   UNL     1      -8.204   5.232  63.206  1.00  0.00    -0.114 A  
HETATM   36  C   UNL     1      -9.282   4.395  63.366  1.00  0.00    -0.123 A  
HETATM   37  N   UNL     1      -8.973   3.482  64.386  1.00  0.00    -0.116 NA 
HETATM   38  H   UNL     1      -9.623   2.761  64.697  1.00  0.00     0.000 HD 
HETATM   39  C   UNL     1      -7.702   3.647  64.937  1.00  0.00    -0.081 A  
HETATM   40  C   UNL     1      -7.045   3.036  66.016  1.00  0.00    -0.062 A  
HETATM   41  C   UNL     1      -5.774   3.534  66.426  1.00  0.00    -0.022 A  
HETATM   42  C   UNL     1      -5.152   4.677  65.882  1.00  0.00    -0.008 A  
HETATM   43  C   UNL     1      -5.806   5.379  64.878  1.00  0.00    -0.021 A  
HETATM   44  C   UNL     1      -7.116   4.718  64.300  1.00  0.00    -0.050 A  
HETATM   45  C   UNL     1      -5.392   7.155  64.444  1.00  0.00    -0.029 C  
HETATM   46  C   UNL     1      -5.404   7.902  65.561  1.00  0.00    -0.029 C  
ENDBRANCH  27  29
ENDBRANCH  13  25
TORSDOF 4
ENDMDL
MODEL      168
REMARK 921   NORMALIZED FREE ENERGY PREDICTED BY IDOCK:   45.01 KCAL/MOL
REMARK 922        TOTAL FREE ENERGY PREDICTED BY IDOCK:   54.67 KCAL/MOL
REMARK 923 INTER-LIGAND FREE ENERGY PREDICTED BY IDOCK:   54.32 KCAL/MOL
REMARK 924 INTRA-LIGAND FREE ENERGY PREDICTED BY IDOCK:    0.35 KCAL/MOL
REMARK 927      BINDING AFFINITY PREDICTED BY RF-SCORE:    0.00 PKD
ROOT
HETATM    1  C   UNL     1      -9.201  17.029  71.531  1.00  0.00     8.295 A  
HETATM    2  C   UNL     1      -9.204  17.155  73.062  1.00  0.00    14.886 A  
HETATM    3  C   UNL     1      -8.931  18.686  73.301  1.00  0.00     9.253 A  
HETATM    4  C   UNL     1      -8.627  19.268  71.926  1.00  0.00     5.932 A  
HETATM    5  N   UNL     1      -8.332  18.095  71.135  1.00  0.00     6.821 N  
HETATM    6  C   UNL     1      -7.991  18.252  69.830  1.00  0.00     1.034 C  
HETATM    7  O   UNL     1      -7.110  19.043  69.499  1.00  0.00    -0.222 OA 
HETATM    8  C   UNL     1      -8.722  17.291  68.855  1.00  0.00    -0.172 C  
HETATM    9  O   UNL     1      -8.713  14.937  69.530  1.00  0.00    -0.109 OA 
HETATM   10  N   UNL     1     -10.040  16.495  69.525  1.00  0.00    -0.209 N  
HETATM   11  C   UNL     1     -10.716  15.351  69.005  1.00  0.00    -0.242 C  
HETATM   12  H   UNL     1     -10.348  14.129  70.749  1.00  0.00     0.000 HD 
HETATM   13  C   UNL     1      -9.663  14.687  68.201  1.00  0.00    -0.220 C  
HETATM   14  O   UNL     1     -11.876  15.014  69.184  1.00  0.00    -0.302 OA 
HETATM   15  O   UNL     1     -10.217  14.872  71.325  1.00  0.00     0.684 OA 
HETATM   16  C   UNL     1     -10.281  15.544  66.986  1.00  0.00    -0.271 C  
HETATM   17  C   UNL     1      -9.426  15.755  70.542  1.00  0.00     1.157 C  
ENDROOT
BRANCH   8  18
HETATM   18  C   UNL     1      -8.790  18.055  67.533  1.00  0.00    -0.252 C  
BRANCH  18  19
HETATM   19  C   UNL     1      -9.761  19.186  67.529  1.00  0.00    -0.386 A  
HETATM   20  C   UNL     1     -10.771  20.991  68.756  1.00  0.00     0.975 A  
HETATM   21  C   UNL     1     -11.648  21.199  67.699  1.00  0.00     4.827 A  
HETATM   22  C   UNL     1     -10.627  19.420  66.461  1.00  0.00    -0.554 A  
HETATM   23  C   UNL     1     -11.597  20.413  66.535  1.00  0.00     2.113 A  
HETATM   24  C   UNL     1      -9.822  19.990  68.671  1.00  0.00    -0.377 A  
ENDBRANCH  18  19
ENDBRANCH   8  18
BRANCH  13  25
HETATM   25  N   UNL     1      -9.379  13.388  67.620  1.00  0.00    -0.208 N  
HETATM   26  O   UNL     1      -9.823  12.218  69.602  1.00  0.00     0.914 OA 
HETATM   27  C   UNL     1      -9.347  12.240  68.470  1.00  0.00    -0.099 C  
HETATM   28  H   UNL     1      -9.204  13.296  66.619  1.00  0.00     0.000 HD 
BRANCH  27  29
HETATM   29  C   UNL     1      -8.615  11.030  67.857  1.00  0.00    -0.133 C  
HETATM   30  C   UNL     1      -8.203  10.932  66.294  1.00  0.00    -0.165 C  
HETATM   31  N   UNL     1      -6.604  10.075  65.834  1.00  0.00    -0.091 NA 
HETATM   32  C   UNL     1      -5.433   8.955  66.036  1.00  0.00    -0.037 C  
HETATM   33  C   UNL     1      -6.014  11.202  66.115  1.00  0.00    -0.103 C  
HETATM   34  C   UNL     1      -6.597  10.665  64.352  1.00  0.00     0.183 C  
HETATM   35  C   UNL     1      -7.819   9.227  64.335  1.00  0.00    -0.123 A  
HETATM   36  C   UNL     1      -8.796   8.804  63.467  1.00  0.00     0.184 A  
HETATM   37  N   UNL     1      -9.616   7.894  64.150  1.00  0.00     1.835 NA 
HETATM   38  H   UNL     1     -10.424   7.445  63.719  1.00  0.00     0.000 HD 
HETATM   39  C   UNL     1      -9.234   7.657  65.471  1.00  0.00     0.283 A  
HETATM   40  C   UNL     1      -9.817   6.920  66.514  1.00  0.00    -0.168 A  
HETATM   41  C   UNL     1      -9.242   6.990  67.817  1.00  0.00    -0.124 A  
HETATM   42  C   UNL     1      -8.169   7.833  68.172  1.00  0.00    -0.124 A  
HETATM   43  C   UNL     1      -7.619   8.659  67.200  1.00  0.00    -0.092 A  
HETATM   44  C   UNL     1      -8.129   8.439  65.723  1.00  0.00    -0.117 A  
HETATM   45  C   UNL     1      -6.595  10.173  67.613  1.00  0.00    -0.067 C  
HETATM   46  C   UNL     1      -7.264  10.939  68.491  1.00  0.00    -0.090 C  
ENDBRANCH  27  29
ENDBRANCH  13  25
TORSDOF 4
ENDMDL
MODEL      169
REMARK 921   NORMALIZED FREE ENERGY PREDICTED BY IDOCK:   52.52 KCAL/MOL
REMARK 922        TOTAL FREE ENERGY PREDICTED BY IDOCK:   63.94 KCAL/MOL
REMARK 923 INTER-LIGAND FREE ENERGY PREDICTED BY IDOCK:   64.00 KCAL/MOL
REMARK 924 INTRA-LIGAND FREE ENERGY PREDICTED BY IDOCK:   -0.06 KCAL/MOL
REMARK 927      BINDING AFFINITY PREDICTED BY RF-SCORE:    0.00 PKD
ROOT
HETATM    1  C   UNL     1      -9.201  17.029  71.532  1.00  0.00     8.295 A  
HETATM    2  C   UNL     1      -9.187  17.140  73.065  1.00  0.00    14.886 A  
HETATM    3  C   UNL     1      -8.900  18.666  73.316  1.00  0.00     9.457 A  
HETATM    4  C   UNL     1      -8.605  19.259  71.943  1.00  0.00     5.932 A  
HETATM    5  N   UNL     1      -8.328  18.091  71.138  1.00  0.00     7.000 N  
HETATM    6  C   UNL     1      -7.999  18.259  69.831  1.00  0.00     1.355 C  
HETATM    7  O   UNL     1      -7.115  19.046  69.499  1.00  0.00    -0.222 OA 
HETATM    8  C   UNL     1      -8.747  17.313  68.855  1.00  0.00    -0.172 C  
HETATM    9  O   UNL     1      -8.749  14.953  69.507  1.00  0.00    -0.109 OA 
HETATM   10  N   UNL     1     -10.064  16.520  69.531  1.00  0.00    -0.209 N  
HETATM   11  C   UNL     1     -10.754  15.387  69.006  1.00  0.00    -0.242 C  
HETATM   12  H   UNL     1     -10.378  14.145  70.735  1.00  0.00     0.000 HD 
HETATM   13  C   UNL     1      -9.714  14.722  68.185  1.00  0.00    -0.217 C  
HETATM   14  O   UNL     1     -11.915  15.057  69.194  1.00  0.00    -0.305 OA 
HETATM   15  O   UNL     1     -10.236  14.882  71.317  1.00  0.00     0.684 OA 
HETATM   16  C   UNL     1     -10.338  15.596  66.985  1.00  0.00    -0.289 C  
HETATM   17  C   UNL     1      -9.446  15.766  70.534  1.00  0.00     1.157 C  
ENDROOT
BRANCH   8  18
HETATM   18  C   UNL     1      -8.822  18.090  67.541  1.00  0.00    -0.252 C  
BRANCH  18  19
HETATM   19  C   UNL     1      -9.783  19.229  67.558  1.00  0.00    -0.406 A  
HETATM   20  C   UNL     1     -10.765  21.031  68.812  1.00  0.00     0.975 A  
HETATM   21  C   UNL     1     -11.652  21.256  67.767  1.00  0.00     5.264 A  
HETATM   22  C   UNL     1     -10.658  19.480  66.501  1.00  0.00    -0.579 A  
HETATM   23  C   UNL     1     -11.619  20.481  66.595  1.00  0.00     2.537 A  
HETATM   24  C   UNL     1      -9.826  20.022  68.708  1.00  0.00    -0.335 A  
ENDBRANCH  18  19
ENDBRANCH   8  18
BRANCH  13  25
HETATM   25  N   UNL     1      -9.446  13.427  67.589  1.00  0.00    -0.209 N  
HETATM   26  O   UNL     1      -7.439  14.115  66.591  1.00  0.00     0.460 OA 
HETATM   27  C   UNL     1      -8.348  13.294  66.684  1.00  0.00     0.236 C  
HETATM   28  H   UNL     1     -10.033  12.623  67.813  1.00  0.00     0.000 HD 
BRANCH  27  29
HETATM   29  C   UNL     1      -8.425  12.041  65.790  1.00  0.00     0.490 C  
HETATM   30  C   UNL     1      -9.454  10.818  66.052  1.00  0.00    -0.230 C  
HETATM   31  N   UNL     1     -10.190   9.926  64.580  1.00  0.00     0.115 NA 
HETATM   32  C   UNL     1     -10.157   9.346  63.053  1.00  0.00     2.469 C  
HETATM   33  C   UNL     1     -11.058  10.896  64.530  1.00  0.00     0.207 C  
HETATM   34  C   UNL     1     -11.323   9.216  65.450  1.00  0.00     5.442 C  
HETATM   35  C   UNL     1      -9.744   8.227  65.744  1.00  0.00     0.159 A  
HETATM   36  C   UNL     1      -9.355   7.284  66.664  1.00  0.00    -0.171 A  
HETATM   37  N   UNL     1      -7.958   7.174  66.607  1.00  0.00    -0.109 NA 
HETATM   38  H   UNL     1      -7.428   6.541  67.206  1.00  0.00     0.000 HD 
HETATM   39  C   UNL     1      -7.356   8.005  65.662  1.00  0.00    -0.079 A  
HETATM   40  C   UNL     1      -6.014   8.280  65.353  1.00  0.00    -0.045 A  
HETATM   41  C   UNL     1      -5.718   9.306  64.408  1.00  0.00    -0.069 A  
HETATM   42  C   UNL     1      -6.682  10.148  63.815  1.00  0.00    -0.113 A  
HETATM   43  C   UNL     1      -8.017   9.984  64.163  1.00  0.00    -0.152 A  
HETATM   44  C   UNL     1      -8.358   8.730  65.058  1.00  0.00    -0.180 A  
HETATM   45  C   UNL     1      -9.307  11.317  63.900  1.00  0.00    -0.145 C  
HETATM   46  C   UNL     1      -8.871  12.472  64.429  1.00  0.00     1.726 C  
ENDBRANCH  27  29
ENDBRANCH  13  25
TORSDOF 4
ENDMDL
MODEL      170
REMARK 921   NORMALIZED FREE ENERGY PREDICTED BY IDOCK:   59.29 KCAL/MOL
REMARK 922        TOTAL FREE ENERGY PREDICTED BY IDOCK:   72.29 KCAL/MOL
REMARK 923 INTER-LIGAND FREE ENERGY PREDICTED BY IDOCK:   61.56 KCAL/MOL
REMARK 924 INTRA-LIGAND FREE ENERGY PREDICTED BY IDOCK:   10.73 KCAL/MOL
REMARK 927      BINDING AFFINITY PREDICTED BY RF-SCORE:    0.00 PKD
ROOT
HETATM    1  C   UNL     1     -12.018  15.399  69.742  1.00  0.00    -0.358 A  
HETATM    2  C   UNL     1     -12.609  16.703  69.184  1.00  0.00     2.302 A  
HETATM    3  C   UNL     1     -13.479  17.247  70.376  1.00  0.00    11.161 A  
HETATM    4  C   UNL     1     -13.456  16.150  71.434  1.00  0.00     1.016 A  
HETATM    5  N   UNL     1     -13.007  14.993  70.693  1.00  0.00    -0.362 N  
HETATM    6  C   UNL     1     -12.889  13.805  71.340  1.00  0.00    -0.369 C  
HETATM    7  O   UNL     1     -13.814  13.362  72.018  1.00  0.00    -0.447 OA 
HETATM    8  C   UNL     1     -11.565  13.047  71.054  1.00  0.00     1.017 C  
HETATM    9  O   UNL     1     -10.971  12.868  68.686  1.00  0.00    -0.244 OA 
HETATM   10  N   UNL     1     -10.384  13.975  70.303  1.00  0.00     1.010 N  
HETATM   11  C   UNL     1      -9.205  13.509  69.649  1.00  0.00     1.572 C  
HETATM   12  H   UNL     1      -9.709  14.394  67.742  1.00  0.00     0.000 HD 
HETATM   13  C   UNL     1      -9.587  12.142  69.222  1.00  0.00     0.679 C  
HETATM   14  O   UNL     1      -8.149  14.100  69.488  1.00  0.00     0.228 OA 
HETATM   15  O   UNL     1     -10.295  15.039  68.121  1.00  0.00    -0.235 OA 
HETATM   16  C   UNL     1      -8.926  11.698  70.621  1.00  0.00     5.914 C  
HETATM   17  C   UNL     1     -11.013  14.294  69.094  1.00  0.00    -0.261 C  
ENDROOT
BRANCH   8  18
HETATM   18  C   UNL     1     -11.307  12.226  72.318  1.00  0.00     6.460 C  
BRANCH  18  19
HETATM   19  C   UNL     1     -10.452  11.025  72.102  1.00  0.00     8.355 A  
HETATM   20  C   UNL     1      -9.770   9.266  70.610  1.00  0.00    -0.334 A  
HETATM   21  C   UNL     1      -9.043   8.691  71.645  1.00  0.00    -0.318 A  
HETATM   22  C   UNL     1      -9.696  10.456  73.127  1.00  0.00    11.423 A  
HETATM   23  C   UNL     1      -8.998   9.271  72.924  1.00  0.00     1.895 A  
HETATM   24  C   UNL     1     -10.470  10.437  70.835  1.00  0.00     0.654 A  
ENDBRANCH  18  19
ENDBRANCH   8  18
BRANCH  13  25
HETATM   25  N   UNL     1      -9.158  11.125  68.280  1.00  0.00    -0.156 N  
HETATM   26  O   UNL     1     -11.342  10.468  67.738  1.00  0.00    -0.367 OA 
HETATM   27  C   UNL     1     -10.134  10.248  67.714  1.00  0.00    -0.180 C  
HETATM   28  H   UNL     1      -8.174  11.037  68.025  1.00  0.00     0.000 HD 
BRANCH  27  29
HETATM   29  C   UNL     1      -9.539   8.964  67.105  1.00  0.00    -0.225 C  
HETATM   30  C   UNL     1      -8.210   8.944  66.179  1.00  0.00    -0.116 C  
HETATM   31  N   UNL     1      -7.042   7.488  66.305  1.00  0.00    -0.069 NA 
HETATM   32  C   UNL     1      -6.689   5.911  66.547  1.00  0.00    -0.057 C  
HETATM   33  C   UNL     1      -6.538   8.086  67.347  1.00  0.00    -0.058 C  
HETATM   34  C   UNL     1      -5.860   8.241  65.543  1.00  0.00    -0.044 C  
HETATM   35  C   UNL     1      -7.055   7.656  64.205  1.00  0.00    -0.068 A  
HETATM   36  C   UNL     1      -7.229   7.950  62.875  1.00  0.00    -0.091 A  
HETATM   37  N   UNL     1      -8.494   7.483  62.490  1.00  0.00    -0.382 NA 
HETATM   38  H   UNL     1      -8.861   7.592  61.545  1.00  0.00     0.000 HD 
HETATM   39  C   UNL     1      -9.209   6.857  63.512  1.00  0.00     2.018 A  
HETATM   40  C   UNL     1     -10.516   6.350  63.589  1.00  0.00     7.008 A  
HETATM   41  C   UNL     1     -11.006   5.888  64.845  1.00  0.00     3.583 A  
HETATM   42  C   UNL     1     -10.303   5.988  66.063  1.00  0.00     0.220 A  
HETATM   43  C   UNL     1      -9.043   6.574  66.060  1.00  0.00    -0.111 A  
HETATM   44  C   UNL     1      -8.430   6.908  64.646  1.00  0.00     0.146 A  
HETATM   45  C   UNL     1      -8.235   7.254  67.608  1.00  0.00    -0.114 C  
HETATM   46  C   UNL     1      -9.088   8.086  68.229  1.00  0.00    -0.135 C  
ENDBRANCH  27  29
ENDBRANCH  13  25
TORSDOF 4
ENDMDL
MODEL      171
REMARK 921   NORMALIZED FREE ENERGY PREDICTED BY IDOCK:   59.34 KCAL/MOL
REMARK 922        TOTAL FREE ENERGY PREDICTED BY IDOCK:   72.36 KCAL/MOL
REMARK 923 INTER-LIGAND FREE ENERGY PREDICTED BY IDOCK:   60.86 KCAL/MOL
REMARK 924 INTRA-LIGAND FREE ENERGY PREDICTED BY IDOCK:   11.49 KCAL/MOL
REMARK 927      BINDING AFFINITY PREDICTED BY RF-SCORE:    0.00 PKD
ROOT
HETATM    1  C   UNL     1      -8.457  12.981  71.310  1.00  0.00    11.716 A  
HETATM    2  C   UNL     1      -7.580  14.243  71.340  1.00  0.00     3.558 A  
HETATM    3  C   UNL     1      -8.617  15.401  71.581  1.00  0.00     5.078 A  
HETATM    4  C   UNL     1      -9.991  14.745  71.497  1.00  0.00     2.744 A  
HETATM    5  N   UNL     1      -9.711  13.487  70.842  1.00  0.00     5.503 N  
HETATM    6  C   UNL     1     -10.739  12.639  70.585  1.00  0.00     3.102 C  
HETATM    7  O   UNL     1     -11.755  13.033  70.014  1.00  0.00    -0.289 OA 
HETATM    8  C   UNL     1     -10.464  11.161  70.970  1.00  0.00     3.043 C  
HETATM    9  O   UNL     1      -8.321  10.274  70.184  1.00  0.00    -0.048 OA 
HETATM   10  N   UNL     1      -9.117  10.939  71.948  1.00  0.00     8.993 N  
HETATM   11  C   UNL     1      -8.435   9.715  72.217  1.00  0.00     2.548 C  
HETATM   12  H   UNL     1      -6.536  10.407  71.452  1.00  0.00     0.000 HD 
HETATM   13  C   UNL     1      -8.732   8.904  71.012  1.00  0.00    -0.224 C  
HETATM   14  O   UNL     1      -7.775   9.420  73.200  1.00  0.00     0.517 OA 
HETATM   15  O   UNL     1      -6.748  11.325  71.566  1.00  0.00     1.564 OA 
HETATM   16  C   UNL     1      -9.965   8.354  71.888  1.00  0.00    -0.331 C  
HETATM   17  C   UNL     1      -8.093  11.406  71.115  1.00  0.00     7.060 C  
ENDROOT
BRANCH   8  18
HETATM   18  C   UNL     1     -11.840  10.581  71.297  1.00  0.00    -0.323 C  
BRANCH  18  19
HETATM   19  C   UNL     1     -11.858   9.099  71.454  1.00  0.00    -0.415 A  
HETATM   20  C   UNL     1     -12.033   7.224  72.949  1.00  0.00     0.163 A  
HETATM   21  C   UNL     1     -11.737   6.372  71.892  1.00  0.00    -0.378 A  
HETATM   22  C   UNL     1     -11.589   8.235  70.392  1.00  0.00    -0.060 A  
HETATM   23  C   UNL     1     -11.503   6.863  70.595  1.00  0.00    -0.383 A  
HETATM   24  C   UNL     1     -12.101   8.587  72.731  1.00  0.00    -0.154 A  
ENDBRANCH  18  19
ENDBRANCH   8  18
BRANCH  13  25
HETATM   25  N   UNL     1      -8.225   7.732  70.323  1.00  0.00    -0.123 N  
HETATM   26  O   UNL     1      -9.745   7.910  68.547  1.00  0.00    -0.155 OA 
HETATM   27  C   UNL     1      -8.920   7.249  69.172  1.00  0.00    -0.135 C  
HETATM   28  H   UNL     1      -7.384   7.260  70.656  1.00  0.00     0.000 HD 
BRANCH  27  29
HETATM   29  C   UNL     1      -8.577   5.793  68.803  1.00  0.00    -0.109 C  
HETATM   30  C   UNL     1      -7.870   5.365  67.410  1.00  0.00    -0.101 C  
HETATM   31  N   UNL     1      -6.656   3.941  67.413  1.00  0.00    -0.045 NA 
HETATM   32  C   UNL     1      -6.082   2.507  67.946  1.00  0.00    -0.024 C  
HETATM   33  C   UNL     1      -5.769   4.805  67.817  1.00  0.00    -0.017 C  
HETATM   34  C   UNL     1      -6.070   4.306  65.975  1.00  0.00    -0.031 C  
HETATM   35  C   UNL     1      -7.703   3.413  65.662  1.00  0.00    -0.078 A  
HETATM   36  C   UNL     1      -8.528   3.268  64.574  1.00  0.00    -0.093 A  
HETATM   37  N   UNL     1      -9.770   2.804  65.032  1.00  0.00    -0.351 NA 
HETATM   38  H   UNL     1     -10.558   2.627  64.409  1.00  0.00     0.000 HD 
HETATM   39  C   UNL     1      -9.835   2.606  66.412  1.00  0.00     0.657 A  
HETATM   40  C   UNL     1     -10.885   2.259  67.276  1.00  0.00     5.693 A  
HETATM   41  C   UNL     1     -10.658   2.275  68.683  1.00  0.00     3.267 A  
HETATM   42  C   UNL     1      -9.464   2.711  69.294  1.00  0.00    -0.140 A  
HETATM   43  C   UNL     1      -8.427   3.161  68.487  1.00  0.00    -0.103 A  
HETATM   44  C   UNL     1      -8.612   2.963  66.934  1.00  0.00    -0.114 A  
HETATM   45  C   UNL     1      -7.037   4.243  69.127  1.00  0.00    -0.051 C  
HETATM   46  C   UNL     1      -7.555   5.298  69.778  1.00  0.00    -0.069 C  
ENDBRANCH  27  29
ENDBRANCH  13  25
TORSDOF 4
ENDMDL
MODEL      172
REMARK 921   NORMALIZED FREE ENERGY PREDICTED BY IDOCK:   62.26 KCAL/MOL
REMARK 922        TOTAL FREE ENERGY PREDICTED BY IDOCK:   75.96 KCAL/MOL
REMARK 923 INTER-LIGAND FREE ENERGY PREDICTED BY IDOCK:   72.60 KCAL/MOL
REMARK 924 INTRA-LIGAND FREE ENERGY PREDICTED BY IDOCK:    3.36 KCAL/MOL
REMARK 927      BINDING AFFINITY PREDICTED BY RF-SCORE:    0.00 PKD
ROOT
HETATM    1  C   UNL     1      -6.750  14.308  65.539  1.00  0.00    10.221 A  
HETATM    2  C   UNL     1      -5.482  15.118  65.224  1.00  0.00    11.407 A  
HETATM    3  C   UNL     1      -6.021  16.309  64.349  1.00  0.00    10.786 A  
HETATM    4  C   UNL     1      -7.491  15.999  64.094  1.00  0.00    15.290 A  
HETATM    5  N   UNL     1      -7.587  14.593  64.414  1.00  0.00    14.055 N  
HETATM    6  C   UNL     1      -8.784  13.968  64.275  1.00  0.00     6.681 C  
HETATM    7  O   UNL     1      -9.428  14.063  63.232  1.00  0.00     4.884 OA 
HETATM    8  C   UNL     1      -9.184  13.071  65.477  1.00  0.00     0.435 C  
HETATM    9  O   UNL     1      -7.434  11.543  66.249  1.00  0.00    -0.034 OA 
HETATM   10  N   UNL     1      -8.260  13.313  66.859  1.00  0.00    -0.034 N  
HETATM   11  C   UNL     1      -8.173  12.461  68.001  1.00  0.00    -0.168 C  
HETATM   12  H   UNL     1      -6.040  12.162  67.826  1.00  0.00     0.000 HD 
HETATM   13  C   UNL     1      -8.501  11.129  67.440  1.00  0.00    -0.134 C  
HETATM   14  O   UNL     1      -7.897  12.768  69.149  1.00  0.00     0.171 OA 
HETATM   15  O   UNL     1      -5.902  12.955  67.321  1.00  0.00    -0.308 OA 
HETATM   16  C   UNL     1     -10.004  11.494  67.888  1.00  0.00    -0.193 C  
HETATM   17  C   UNL     1      -6.987  12.950  66.405  1.00  0.00     1.912 C  
ENDROOT
BRANCH   8  18
HETATM   18  C   UNL     1     -10.712  13.083  65.480  1.00  0.00    -0.299 C  
BRANCH  18  19
HETATM   19  C   UNL     1     -11.317  13.703  66.693  1.00  0.00    -0.343 A  
HETATM   20  C   UNL     1     -12.259  13.372  68.880  1.00  0.00    -0.164 A  
HETATM   21  C   UNL     1     -12.601  14.718  68.921  1.00  0.00     0.257 A  
HETATM   22  C   UNL     1     -11.639  15.059  66.753  1.00  0.00    -0.209 A  
HETATM   23  C   UNL     1     -12.304  15.585  67.855  1.00  0.00     0.749 A  
HETATM   24  C   UNL     1     -11.610  12.864  67.770  1.00  0.00    -0.391 A  
ENDBRANCH  18  19
ENDBRANCH   8  18
BRANCH  13  25
HETATM   25  N   UNL     1      -8.352   9.726  67.781  1.00  0.00    -0.114 N  
HETATM   26  O   UNL     1      -9.566   9.910  69.778  1.00  0.00    -0.212 OA 
HETATM   27  C   UNL     1      -8.803   9.272  69.059  1.00  0.00    -0.136 C  
HETATM   28  H   UNL     1      -7.932   9.075  67.118  1.00  0.00     0.000 HD 
BRANCH  27  29
HETATM   29  C   UNL     1      -8.206   7.916  69.483  1.00  0.00    -0.130 C  
HETATM   30  C   UNL     1      -7.740   6.775  68.433  1.00  0.00    -0.106 C  
HETATM   31  N   UNL     1      -6.247   5.725  68.843  1.00  0.00    -0.028 NA 
HETATM   32  C   UNL     1      -5.239   4.949  69.869  1.00  0.00     0.000 C  
HETATM   33  C   UNL     1      -5.530   6.710  68.382  1.00  0.00    -0.016 C  
HETATM   34  C   UNL     1      -6.098   5.176  67.353  1.00  0.00    -0.030 C  
HETATM   35  C   UNL     1      -7.493   4.178  68.140  1.00  0.00    -0.067 A  
HETATM   36  C   UNL     1      -8.476   3.350  67.656  1.00  0.00    -0.096 A  
HETATM   37  N   UNL     1      -9.436   3.184  68.665  1.00  0.00    -0.167 NA 
HETATM   38  H   UNL     1     -10.275   2.616  68.543  1.00  0.00     0.000 HD 
HETATM   39  C   UNL     1      -9.147   3.862  69.850  1.00  0.00    -0.122 A  
HETATM   40  C   UNL     1      -9.865   4.047  71.041  1.00  0.00    -0.230 A  
HETATM   41  C   UNL     1      -9.344   4.929  72.034  1.00  0.00    -0.175 A  
HETATM   42  C   UNL     1      -8.188   5.720  71.871  1.00  0.00    -0.119 A  
HETATM   43  C   UNL     1      -7.494   5.650  70.670  1.00  0.00    -0.085 A  
HETATM   44  C   UNL     1      -7.963   4.538  69.655  1.00  0.00    -0.061 A  
HETATM   45  C   UNL     1      -6.304   6.982  70.105  1.00  0.00    -0.035 C  
HETATM   46  C   UNL     1      -6.907   8.181  70.176  1.00  0.00    -0.040 C  
ENDBRANCH  27  29
ENDBRANCH  13  25
TORSDOF 4
ENDMDL
MODEL      173
REMARK 921   NORMALIZED FREE ENERGY PREDICTED BY IDOCK:   63.75 KCAL/MOL
REMARK 922        TOTAL FREE ENERGY PREDICTED BY IDOCK:   77.79 KCAL/MOL
REMARK 923 INTER-LIGAND FREE ENERGY PREDICTED BY IDOCK:   77.16 KCAL/MOL
REMARK 924 INTRA-LIGAND FREE ENERGY PREDICTED BY IDOCK:    0.63 KCAL/MOL
REMARK 927      BINDING AFFINITY PREDICTED BY RF-SCORE:    0.00 PKD
ROOT
HETATM    1  C   UNL     1      -6.925  14.927  72.108  1.00  0.00     2.607 A  
HETATM    2  C   UNL     1      -6.019  16.026  72.688  1.00  0.00     2.114 A  
HETATM    3  C   UNL     1      -7.034  16.991  73.404  1.00  0.00     9.768 A  
HETATM    4  C   UNL     1      -8.420  16.474  73.038  1.00  0.00    18.422 A  
HETATM    5  N   UNL     1      -8.159  15.620  71.902  1.00  0.00     5.923 N  
HETATM    6  C   UNL     1      -9.202  14.997  71.296  1.00  0.00     3.149 C  
HETATM    7  O   UNL     1     -10.199  15.628  70.950  1.00  0.00     0.146 OA 
HETATM    8  C   UNL     1      -8.966  13.492  71.000  1.00  0.00     8.146 C  
HETATM    9  O   UNL     1      -6.832  12.977  69.916  1.00  0.00     0.134 OA 
HETATM   10  N   UNL     1      -7.640  12.830  71.790  1.00  0.00     8.992 N  
HETATM   11  C   UNL     1      -6.991  11.592  71.502  1.00  0.00     4.695 C  
HETATM   12  H   UNL     1      -5.064  12.496  71.123  1.00  0.00     0.000 HD 
HETATM   13  C   UNL     1      -7.287  11.395  70.063  1.00  0.00     0.737 C  
HETATM   14  O   UNL     1      -6.353  10.881  72.262  1.00  0.00     1.276 OA 
HETATM   15  O   UNL     1      -5.258  13.279  71.625  1.00  0.00    -0.170 OA 
HETATM   16  C   UNL     1      -8.546  10.552  70.607  1.00  0.00     1.879 C  
HETATM   17  C   UNL     1      -6.593  13.584  71.249  1.00  0.00     1.526 C  
ENDROOT
BRANCH   8  18
HETATM   18  C   UNL     1     -10.360  12.865  71.036  1.00  0.00     6.100 C  
BRANCH  18  19
HETATM   19  C   UNL     1     -11.030  12.786  69.707  1.00  0.00     0.278 A  
HETATM   20  C   UNL     1     -11.634  11.420  67.823  1.00  0.00    -0.325 A  
HETATM   21  C   UNL     1     -12.091  12.555  67.165  1.00  0.00    -0.135 A  
HETATM   22  C   UNL     1     -11.517  13.917  69.051  1.00  0.00    -0.341 A  
HETATM   23  C   UNL     1     -12.035  13.825  67.765  1.00  0.00    -0.391 A  
HETATM   24  C   UNL     1     -11.109  11.532  69.097  1.00  0.00    -0.316 A  
ENDBRANCH  18  19
ENDBRANCH   8  18
BRANCH  13  25
HETATM   25  N   UNL     1      -6.795  10.626  68.935  1.00  0.00    -0.061 N  
HETATM   26  O   UNL     1      -6.796  12.457  67.471  1.00  0.00    -0.114 OA 
HETATM   27  C   UNL     1      -6.737  11.243  67.648  1.00  0.00    -0.073 C  
HETATM   28  H   UNL     1      -6.496   9.658  69.060  1.00  0.00     0.000 HD 
BRANCH  27  29
HETATM   29  C   UNL     1      -6.638  10.241  66.481  1.00  0.00    -0.085 C  
HETATM   30  C   UNL     1      -7.044  10.601  64.955  1.00  0.00     0.096 C  
HETATM   31  N   UNL     1      -6.060   9.845  63.556  1.00  0.00    -0.114 NA 
HETATM   32  C   UNL     1      -5.179   8.658  62.859  1.00  0.00    -0.069 C  
HETATM   33  C   UNL     1      -5.199  10.802  63.752  1.00  0.00    -0.114 C  
HETATM   34  C   UNL     1      -6.641  10.855  62.466  1.00  0.00     0.037 C  
HETATM   35  C   UNL     1      -7.980   9.553  62.738  1.00  0.00    -0.126 A  
HETATM   36  C   UNL     1      -9.313   9.463  62.420  1.00  0.00     0.097 A  
HETATM   37  N   UNL     1      -9.872   8.431  63.189  1.00  0.00     2.264 NA 
HETATM   38  H   UNL     1     -10.858   8.175  63.138  1.00  0.00     0.000 HD 
HETATM   39  C   UNL     1      -8.964   7.786  64.029  1.00  0.00     1.089 A  
HETATM   40  C   UNL     1      -9.114   6.797  65.014  1.00  0.00     0.578 A  
HETATM   41  C   UNL     1      -7.988   6.440  65.813  1.00  0.00    -0.117 A  
HETATM   42  C   UNL     1      -6.733   7.081  65.757  1.00  0.00    -0.052 A  
HETATM   43  C   UNL     1      -6.561   8.134  64.868  1.00  0.00    -0.055 A  
HETATM   44  C   UNL     1      -7.742   8.398  63.857  1.00  0.00    -0.143 A  
HETATM   45  C   UNL     1      -5.188   9.398  65.044  1.00  0.00    -0.044 C  
HETATM   46  C   UNL     1      -5.195   9.894  66.293  1.00  0.00    -0.043 C  
ENDBRANCH  27  29
ENDBRANCH  13  25
TORSDOF 4
ENDMDL
MODEL      174
REMARK 921   NORMALIZED FREE ENERGY PREDICTED BY IDOCK:   64.08 KCAL/MOL
REMARK 922        TOTAL FREE ENERGY PREDICTED BY IDOCK:   78.20 KCAL/MOL
REMARK 923 INTER-LIGAND FREE ENERGY PREDICTED BY IDOCK:   65.43 KCAL/MOL
REMARK 924 INTRA-LIGAND FREE ENERGY PREDICTED BY IDOCK:   12.77 KCAL/MOL
REMARK 927      BINDING AFFINITY PREDICTED BY RF-SCORE:    0.00 PKD
ROOT
HETATM    1  C   UNL     1      -6.800  17.938  70.979  1.00  0.00     3.106 A  
HETATM    2  C   UNL     1      -5.369  18.501  70.971  1.00  0.00    -0.245 A  
HETATM    3  C   UNL     1      -5.415  19.621  72.075  1.00  0.00    -0.218 A  
HETATM    4  C   UNL     1      -6.876  19.726  72.494  1.00  0.00     1.785 A  
HETATM    5  N   UNL     1      -7.571  19.061  71.415  1.00  0.00     3.820 N  
HETATM    6  C   UNL     1      -8.927  18.987  71.456  1.00  0.00     6.037 C  
HETATM    7  O   UNL     1      -9.608  19.992  71.652  1.00  0.00     1.764 OA 
HETATM    8  C   UNL     1      -9.503  17.583  71.132  1.00  0.00     6.038 C  
HETATM    9  O   UNL     1      -8.584  16.531  69.121  1.00  0.00    -0.230 OA 
HETATM   10  N   UNL     1      -8.365  16.347  71.147  1.00  0.00     5.088 N  
HETATM   11  C   UNL     1      -8.508  15.034  70.607  1.00  0.00     1.775 C  
HETATM   12  H   UNL     1      -6.829  15.222  69.259  1.00  0.00     0.000 HD 
HETATM   13  C   UNL     1      -9.512  15.229  69.535  1.00  0.00    -0.201 C  
HETATM   14  O   UNL     1      -7.938  14.011  70.953  1.00  0.00     2.502 OA 
HETATM   15  O   UNL     1      -6.417  15.914  69.762  1.00  0.00    -0.182 OA 
HETATM   16  C   UNL     1     -10.570  14.821  70.678  1.00  0.00     0.256 C  
HETATM   17  C   UNL     1      -7.507  16.752  70.118  1.00  0.00     1.490 C  
ENDROOT
BRANCH   8  18
HETATM   18  C   UNL     1     -10.821  17.516  71.903  1.00  0.00     2.512 C  
BRANCH  18  19
HETATM   19  C   UNL     1     -11.275  16.132  72.220  1.00  0.00     0.275 A  
HETATM   20  C   UNL     1     -13.069  14.707  72.947  1.00  0.00    -0.609 A  
HETATM   21  C   UNL     1     -12.182  13.639  72.996  1.00  0.00     1.003 A  
HETATM   22  C   UNL     1     -10.396  15.048  72.244  1.00  0.00     2.405 A  
HETATM   23  C   UNL     1     -10.828  13.792  72.652  1.00  0.00     5.580 A  
HETATM   24  C   UNL     1     -12.620  15.952  72.552  1.00  0.00    -0.545 A  
ENDBRANCH  18  19
ENDBRANCH   8  18
BRANCH  13  25
HETATM   25  N   UNL     1      -9.991  14.555  68.342  1.00  0.00    -0.234 N  
HETATM   26  O   UNL     1      -8.838  12.566  68.799  1.00  0.00    -0.008 OA 
HETATM   27  C   UNL     1      -9.456  13.272  68.008  1.00  0.00    -0.219 C  
HETATM   28  H   UNL     1     -10.699  14.991  67.750  1.00  0.00     0.000 HD 
BRANCH  27  29
HETATM   29  C   UNL     1      -9.685  12.865  66.540  1.00  0.00    -0.257 C  
HETATM   30  C   UNL     1     -10.800  11.788  66.072  1.00  0.00    -0.343 C  
HETATM   31  N   UNL     1     -11.681  12.049  64.443  1.00  0.00    -0.338 NA 
HETATM   32  C   UNL     1     -11.774  12.560  62.893  1.00  0.00     0.321 C  
HETATM   33  C   UNL     1     -12.465  12.864  65.090  1.00  0.00    -0.501 C  
HETATM   34  C   UNL     1     -12.827  10.991  64.777  1.00  0.00     3.833 C  
HETATM   35  C   UNL     1     -11.325   9.982  64.241  1.00  0.00     4.186 A  
HETATM   36  C   UNL     1     -10.974   8.657  64.329  1.00  0.00     9.930 A  
HETATM   37  N   UNL     1      -9.596   8.558  64.087  1.00  0.00     0.897 NA 
HETATM   38  H   UNL     1      -9.093   7.671  64.107  1.00  0.00     0.000 HD 
HETATM   39  C   UNL     1      -8.972   9.777  63.818  1.00  0.00    -0.240 A  
HETATM   40  C   UNL     1      -7.629  10.138  63.628  1.00  0.00    -0.139 A  
HETATM   41  C   UNL     1      -7.293  11.518  63.509  1.00  0.00     1.909 A  
HETATM   42  C   UNL     1      -8.209  12.579  63.665  1.00  0.00     4.387 A  
HETATM   43  C   UNL     1      -9.534  12.280  63.955  1.00  0.00     0.214 A  
HETATM   44  C   UNL     1      -9.937  10.756  63.896  1.00  0.00    -0.404 A  
HETATM   45  C   UNL     1     -10.717  13.525  64.703  1.00  0.00    -0.429 C  
HETATM   46  C   UNL     1     -10.159  14.073  65.795  1.00  0.00    -0.345 C  
ENDBRANCH  27  29
ENDBRANCH  13  25
TORSDOF 4
ENDMDL
MODEL      175
REMARK 921   NORMALIZED FREE ENERGY PREDICTED BY IDOCK:   64.52 KCAL/MOL
REMARK 922        TOTAL FREE ENERGY PREDICTED BY IDOCK:   78.74 KCAL/MOL
REMARK 923 INTER-LIGAND FREE ENERGY PREDICTED BY IDOCK:   75.08 KCAL/MOL
REMARK 924 INTRA-LIGAND FREE ENERGY PREDICTED BY IDOCK:    3.66 KCAL/MOL
REMARK 927      BINDING AFFINITY PREDICTED BY RF-SCORE:    0.00 PKD
ROOT
HETATM    1  C   UNL     1      -6.750  14.308  65.539  1.00  0.00    10.221 A  
HETATM    2  C   UNL     1      -5.478  15.107  65.216  1.00  0.00    11.407 A  
HETATM    3  C   UNL     1      -6.013  16.309  64.353  1.00  0.00    10.786 A  
HETATM    4  C   UNL     1      -7.489  16.014  64.110  1.00  0.00    15.290 A  
HETATM    5  N   UNL     1      -7.595  14.607  64.424  1.00  0.00    14.055 N  
HETATM    6  C   UNL     1      -8.800  13.995  64.293  1.00  0.00     5.871 C  
HETATM    7  O   UNL     1      -9.452  14.102  63.257  1.00  0.00     5.359 OA 
HETATM    8  C   UNL     1      -9.197  13.096  65.494  1.00  0.00     0.469 C  
HETATM    9  O   UNL     1      -7.454  11.546  66.241  1.00  0.00    -0.034 OA 
HETATM   10  N   UNL     1      -8.257  13.320  66.868  1.00  0.00    -0.034 N  
HETATM   11  C   UNL     1      -8.167  12.462  68.004  1.00  0.00    -0.168 C  
HETATM   12  H   UNL     1      -6.039  12.143  67.807  1.00  0.00     0.000 HD 
HETATM   13  C   UNL     1      -8.514  11.136  67.440  1.00  0.00    -0.134 C  
HETATM   14  O   UNL     1      -7.877  12.759  69.152  1.00  0.00     0.171 OA 
HETATM   15  O   UNL     1      -5.898  12.937  67.306  1.00  0.00    -0.308 OA 
HETATM   16  C   UNL     1     -10.009  11.513  67.904  1.00  0.00    -0.193 C  
HETATM   17  C   UNL     1      -6.992  12.947  66.400  1.00  0.00     1.912 C  
ENDROOT
BRANCH   8  18
HETATM   18  C   UNL     1     -10.725  13.123  65.512  1.00  0.00    -0.297 C  
BRANCH  18  19
HETATM   19  C   UNL     1     -11.311  13.742  66.734  1.00  0.00    -0.345 A  
HETATM   20  C   UNL     1     -13.229  14.762  67.766  1.00  0.00     3.449 A  
HETATM   21  C   UNL     1     -12.454  15.058  68.880  1.00  0.00     0.109 A  
HETATM   22  C   UNL     1     -10.547  14.017  67.868  1.00  0.00    -0.246 A  
HETATM   23  C   UNL     1     -11.097  14.696  68.949  1.00  0.00    -0.268 A  
HETATM   24  C   UNL     1     -12.662  14.098  66.695  1.00  0.00     0.121 A  
ENDBRANCH  18  19
ENDBRANCH   8  18
BRANCH  13  25
HETATM   25  N   UNL     1      -8.375   9.730  67.772  1.00  0.00    -0.114 N  
HETATM   26  O   UNL     1      -9.568   9.915  69.782  1.00  0.00    -0.212 OA 
HETATM   27  C   UNL     1      -8.818   9.273  69.052  1.00  0.00    -0.136 C  
HETATM   28  H   UNL     1      -7.968   9.078  67.101  1.00  0.00     0.000 HD 
BRANCH  27  29
HETATM   29  C   UNL     1      -8.231   7.909  69.463  1.00  0.00    -0.130 C  
HETATM   30  C   UNL     1      -9.129   6.582  69.699  1.00  0.00    -0.141 C  
HETATM   31  N   UNL     1      -8.423   4.917  69.220  1.00  0.00    -0.087 NA 
HETATM   32  C   UNL     1      -7.206   3.847  69.011  1.00  0.00    -0.054 C  
HETATM   33  C   UNL     1      -8.810   5.193  68.007  1.00  0.00    -0.102 C  
HETATM   34  C   UNL     1      -9.838   4.183  69.295  1.00  0.00    -0.067 C  
HETATM   35  C   UNL     1      -9.241   4.351  71.078  1.00  0.00    -0.201 A  
HETATM   36  C   UNL     1      -9.836   4.224  72.308  1.00  0.00    -0.166 A  
HETATM   37  N   UNL     1      -8.993   4.815  73.261  1.00  0.00    -0.113 NA 
HETATM   38  H   UNL     1      -9.222   4.856  74.253  1.00  0.00     0.000 HD 
HETATM   39  C   UNL     1      -7.814   5.342  72.733  1.00  0.00    -0.099 A  
HETATM   40  C   UNL     1      -6.769   6.090  73.297  1.00  0.00    -0.075 A  
HETATM   41  C   UNL     1      -5.751   6.611  72.444  1.00  0.00    -0.038 A  
HETATM   42  C   UNL     1      -5.761   6.514  71.037  1.00  0.00    -0.027 A  
HETATM   43  C   UNL     1      -6.826   5.870  70.420  1.00  0.00    -0.057 A  
HETATM   44  C   UNL     1      -7.845   5.133  71.372  1.00  0.00    -0.107 A  
HETATM   45  C   UNL     1      -7.256   6.119  68.614  1.00  0.00    -0.084 C  
HETATM   46  C   UNL     1      -7.347   7.434  68.353  1.00  0.00    -0.103 C  
ENDBRANCH  27  29
ENDBRANCH  13  25
TORSDOF 4
ENDMDL
MODEL      176
REMARK 921   NORMALIZED FREE ENERGY PREDICTED BY IDOCK:   71.11 KCAL/MOL
REMARK 922        TOTAL FREE ENERGY PREDICTED BY IDOCK:   86.88 KCAL/MOL
REMARK 923 INTER-LIGAND FREE ENERGY PREDICTED BY IDOCK:   67.47 KCAL/MOL
REMARK 924 INTRA-LIGAND FREE ENERGY PREDICTED BY IDOCK:   19.41 KCAL/MOL
REMARK 927      BINDING AFFINITY PREDICTED BY RF-SCORE:    0.00 PKD
ROOT
HETATM    1  C   UNL     1      -9.546  19.065  70.791  1.00  0.00     2.580 A  
HETATM    2  C   UNL     1     -10.029  20.496  70.506  1.00  0.00     1.355 A  
HETATM    3  C   UNL     1      -9.974  21.186  71.918  1.00  0.00     4.103 A  
HETATM    4  C   UNL     1      -9.639  20.074  72.905  1.00  0.00     3.500 A  
HETATM    5  N   UNL     1      -9.933  18.874  72.155  1.00  0.00     4.223 N  
HETATM    6  C   UNL     1      -9.762  17.667  72.753  1.00  0.00    10.426 C  
HETATM    7  O   UNL     1     -10.252  17.436  73.857  1.00  0.00     5.876 OA 
HETATM    8  C   UNL     1      -9.010  16.622  71.887  1.00  0.00    10.153 C  
HETATM    9  O   UNL     1      -9.836  16.401  69.592  1.00  0.00    -0.172 OA 
HETATM   10  N   UNL     1      -8.240  17.264  70.539  1.00  0.00     3.566 N  
HETATM   11  C   UNL     1      -7.738  16.552  69.409  1.00  0.00    -0.037 C  
HETATM   12  H   UNL     1      -8.967  17.611  67.982  1.00  0.00     0.000 HD 
HETATM   13  C   UNL     1      -8.588  15.338  69.383  1.00  0.00    -0.226 C  
HETATM   14  O   UNL     1      -6.830  16.874  68.659  1.00  0.00    -0.164 OA 
HETATM   15  O   UNL     1      -9.094  18.363  68.548  1.00  0.00    -0.317 OA 
HETATM   16  C   UNL     1      -7.402  14.690  70.258  1.00  0.00     0.400 C  
HETATM   17  C   UNL     1      -9.326  17.776  69.821  1.00  0.00     1.036 C  
ENDROOT
BRANCH   8  18
HETATM   18  C   UNL     1      -8.311  15.712  72.896  1.00  0.00    11.698 C  
BRANCH  18  19
HETATM   19  C   UNL     1      -7.150  14.960  72.339  1.00  0.00     3.322 A  
HETATM   20  C   UNL     1      -5.761  14.504  70.430  1.00  0.00    -0.144 A  
HETATM   21  C   UNL     1      -5.127  13.499  71.150  1.00  0.00    -0.146 A  
HETATM   22  C   UNL     1      -6.490  13.967  73.064  1.00  0.00     1.741 A  
HETATM   23  C   UNL     1      -5.485  13.207  72.478  1.00  0.00     0.310 A  
HETATM   24  C   UNL     1      -6.768  15.241  71.025  1.00  0.00     0.857 A  
ENDBRANCH  18  19
ENDBRANCH   8  18
BRANCH  13  25
HETATM   25  N   UNL     1      -8.975  14.287  68.461  1.00  0.00    -0.191 N  
HETATM   26  O   UNL     1      -7.350  14.856  66.869  1.00  0.00    -0.067 OA 
HETATM   27  C   UNL     1      -8.375  14.247  67.164  1.00  0.00    -0.180 C  
HETATM   28  H   UNL     1      -9.665  13.587  68.734  1.00  0.00     0.000 HD 
BRANCH  27  29
HETATM   29  C   UNL     1      -9.158  13.401  66.142  1.00  0.00     0.103 C  
HETATM   30  C   UNL     1     -10.041  12.104  66.542  1.00  0.00    -0.229 C  
HETATM   31  N   UNL     1     -11.622  11.763  65.602  1.00  0.00    -0.291 NA 
HETATM   32  C   UNL     1     -12.566  11.780  64.269  1.00  0.00    -0.005 C  
HETATM   33  C   UNL     1     -12.186  12.627  66.398  1.00  0.00    -0.104 C  
HETATM   34  C   UNL     1     -12.156  10.715  66.681  1.00  0.00     2.785 C  
HETATM   35  C   UNL     1     -10.885   9.789  65.637  1.00  0.00     0.884 A  
HETATM   36  C   UNL     1     -10.206   8.603  65.775  1.00  0.00     0.742 A  
HETATM   37  N   UNL     1      -9.135   8.610  64.870  1.00  0.00    -0.423 NA 
HETATM   38  H   UNL     1      -8.473   7.838  64.789  1.00  0.00     0.000 HD 
HETATM   39  C   UNL     1      -9.051   9.764  64.090  1.00  0.00    -0.244 A  
HETATM   40  C   UNL     1      -8.104  10.218  63.159  1.00  0.00    -0.158 A  
HETATM   41  C   UNL     1      -8.234  11.533  62.624  1.00  0.00     0.325 A  
HETATM   42  C   UNL     1      -9.204  12.470  63.035  1.00  0.00     2.074 A  
HETATM   43  C   UNL     1     -10.106  12.106  64.027  1.00  0.00    -0.357 A  
HETATM   44  C   UNL     1     -10.079  10.594  64.477  1.00  0.00    -0.421 A  
HETATM   45  C   UNL     1     -11.068  13.358  65.035  1.00  0.00    -0.332 C  
HETATM   46  C   UNL     1     -10.222  14.268  65.545  1.00  0.00    -0.379 C  
ENDBRANCH  27  29
ENDBRANCH  13  25
TORSDOF 4
ENDMDL
MODEL      177
REMARK 921   NORMALIZED FREE ENERGY PREDICTED BY IDOCK:   71.87 KCAL/MOL
REMARK 922        TOTAL FREE ENERGY PREDICTED BY IDOCK:   87.82 KCAL/MOL
REMARK 923 INTER-LIGAND FREE ENERGY PREDICTED BY IDOCK:   67.89 KCAL/MOL
REMARK 924 INTRA-LIGAND FREE ENERGY PREDICTED BY IDOCK:   19.92 KCAL/MOL
REMARK 927      BINDING AFFINITY PREDICTED BY RF-SCORE:    0.00 PKD
ROOT
HETATM    1  C   UNL     1      -9.546  19.065  70.791  1.00  0.00     2.580 A  
HETATM    2  C   UNL     1     -10.029  20.496  70.506  1.00  0.00     1.355 A  
HETATM    3  C   UNL     1      -9.974  21.186  71.918  1.00  0.00     4.103 A  
HETATM    4  C   UNL     1      -9.639  20.074  72.905  1.00  0.00     3.500 A  
HETATM    5  N   UNL     1      -9.933  18.874  72.155  1.00  0.00     4.223 N  
HETATM    6  C   UNL     1      -9.762  17.667  72.753  1.00  0.00    10.426 C  
HETATM    7  O   UNL     1     -10.252  17.436  73.857  1.00  0.00     5.876 OA 
HETATM    8  C   UNL     1      -9.010  16.622  71.887  1.00  0.00    10.153 C  
HETATM    9  O   UNL     1      -9.836  16.401  69.592  1.00  0.00    -0.172 OA 
HETATM   10  N   UNL     1      -8.240  17.264  70.539  1.00  0.00     3.566 N  
HETATM   11  C   UNL     1      -7.738  16.552  69.409  1.00  0.00    -0.037 C  
HETATM   12  H   UNL     1      -8.967  17.611  67.982  1.00  0.00     0.000 HD 
HETATM   13  C   UNL     1      -8.588  15.338  69.383  1.00  0.00    -0.226 C  
HETATM   14  O   UNL     1      -6.830  16.874  68.659  1.00  0.00    -0.164 OA 
HETATM   15  O   UNL     1      -9.094  18.363  68.548  1.00  0.00    -0.317 OA 
HETATM   16  C   UNL     1      -7.402  14.690  70.258  1.00  0.00     0.400 C  
HETATM   17  C   UNL     1      -9.326  17.776  69.821  1.00  0.00     1.036 C  
ENDROOT
BRANCH   8  18
HETATM   18  C   UNL     1      -8.311  15.712  72.896  1.00  0.00    11.698 C  
BRANCH  18  19
HETATM   19  C   UNL     1      -7.150  14.960  72.339  1.00  0.00     3.322 A  
HETATM   20  C   UNL     1      -5.761  14.504  70.430  1.00  0.00    -0.144 A  
HETATM   21  C   UNL     1      -5.127  13.499  71.150  1.00  0.00    -0.146 A  
HETATM   22  C   UNL     1      -6.490  13.967  73.064  1.00  0.00     1.741 A  
HETATM   23  C   UNL     1      -5.485  13.207  72.478  1.00  0.00     0.310 A  
HETATM   24  C   UNL     1      -6.768  15.241  71.025  1.00  0.00     0.857 A  
ENDBRANCH  18  19
ENDBRANCH   8  18
BRANCH  13  25
HETATM   25  N   UNL     1      -8.975  14.287  68.461  1.00  0.00    -0.191 N  
HETATM   26  O   UNL     1     -10.518  15.630  67.316  1.00  0.00    -0.279 OA 
HETATM   27  C   UNL     1     -10.066  14.516  67.567  1.00  0.00    -0.228 C  
HETATM   28  H   UNL     1      -8.475  13.398  68.451  1.00  0.00     0.000 HD 
BRANCH  27  29
HETATM   29  C   UNL     1     -10.665  13.227  66.973  1.00  0.00    -0.263 C  
HETATM   30  C   UNL     1      -9.770  11.997  66.416  1.00  0.00    -0.239 C  
HETATM   31  N   UNL     1     -10.392  10.249  66.650  1.00  0.00    -0.230 NA 
HETATM   32  C   UNL     1     -11.562   9.114  66.775  1.00  0.00     2.893 C  
HETATM   33  C   UNL     1      -9.891  10.318  67.851  1.00  0.00    -0.157 C  
HETATM   34  C   UNL     1      -8.978   9.593  66.310  1.00  0.00    -0.155 C  
HETATM   35  C   UNL     1      -9.753  10.054  64.652  1.00  0.00    -0.339 A  
HETATM   36  C   UNL     1      -9.280  10.170  63.368  1.00  0.00    -0.291 A  
HETATM   37  N   UNL     1     -10.225  10.890  62.622  1.00  0.00    -0.754 NA 
HETATM   38  H   UNL     1     -10.097  11.117  61.636  1.00  0.00     0.000 HD 
HETATM   39  C   UNL     1     -11.356  11.271  63.346  1.00  0.00     0.075 A  
HETATM   40  C   UNL     1     -12.467  12.069  63.028  1.00  0.00    -0.156 A  
HETATM   41  C   UNL     1     -13.404  12.391  64.053  1.00  0.00     0.317 A  
HETATM   42  C   UNL     1     -13.252  12.045  65.412  1.00  0.00     2.681 A  
HETATM   43  C   UNL     1     -12.118  11.341  65.799  1.00  0.00     1.450 A  
HETATM   44  C   UNL     1     -11.185  10.823  64.637  1.00  0.00     0.516 A  
HETATM   45  C   UNL     1     -11.516  11.279  67.572  1.00  0.00    -0.324 C  
HETATM   46  C   UNL     1     -11.424  12.529  68.057  1.00  0.00    -0.368 C  
ENDBRANCH  27  29
ENDBRANCH  13  25
TORSDOF 4
ENDMDL
MODEL      178
REMARK 921   NORMALIZED FREE ENERGY PREDICTED BY IDOCK:   75.06 KCAL/MOL
REMARK 922        TOTAL FREE ENERGY PREDICTED BY IDOCK:   91.75 KCAL/MOL
REMARK 923 INTER-LIGAND FREE ENERGY PREDICTED BY IDOCK:   81.43 KCAL/MOL
REMARK 924 INTRA-LIGAND FREE ENERGY PREDICTED BY IDOCK:   10.32 KCAL/MOL
REMARK 927      BINDING AFFINITY PREDICTED BY RF-SCORE:    0.00 PKD
ROOT
HETATM    1  C   UNL     1      -9.627   8.125  72.290  1.00  0.00    -0.251 A  
HETATM    2  C   UNL     1      -8.837   7.010  72.994  1.00  0.00    -0.148 A  
HETATM    3  C   UNL     1      -9.955   5.991  73.424  1.00  0.00    -0.186 A  
HETATM    4  C   UNL     1     -11.279   6.670  73.095  1.00  0.00    -0.086 A  
HETATM    5  N   UNL     1     -10.902   8.056  72.935  1.00  0.00    -0.372 N  
HETATM    6  C   UNL     1     -11.865   8.969  72.649  1.00  0.00     0.211 C  
HETATM    7  O   UNL     1     -12.893   9.033  73.321  1.00  0.00     0.115 OA 
HETATM    8  C   UNL     1     -11.499   9.951  71.505  1.00  0.00    -0.322 C  
HETATM    9  O   UNL     1      -9.286  10.981  71.700  1.00  0.00     6.439 OA 
HETATM   10  N   UNL     1     -10.161   9.493  70.600  1.00  0.00    -0.282 N  
HETATM   11  C   UNL     1      -9.404  10.305  69.703  1.00  0.00    -0.139 C  
HETATM   12  H   UNL     1      -7.540  10.038  70.764  1.00  0.00     0.000 HD 
HETATM   13  C   UNL     1      -9.621  11.671  70.236  1.00  0.00     3.232 C  
HETATM   14  O   UNL     1      -8.746   9.950  68.738  1.00  0.00    -0.122 OA 
HETATM   15  O   UNL     1      -7.816   9.231  71.182  1.00  0.00    -0.289 OA 
HETATM   16  C   UNL     1     -10.832  11.714  69.176  1.00  0.00    -0.231 C  
HETATM   17  C   UNL     1      -9.154   9.508  71.572  1.00  0.00     0.643 C  
ENDROOT
BRANCH   8  18
HETATM   18  C   UNL     1     -12.840  10.337  70.880  1.00  0.00    -0.463 C  
BRANCH  18  19
HETATM   19  C   UNL     1     -12.744  11.390  69.828  1.00  0.00     0.085 A  
HETATM   20  C   UNL     1     -12.587  11.901  67.484  1.00  0.00     1.880 A  
HETATM   21  C   UNL     1     -12.395  13.239  67.804  1.00  0.00     0.037 A  
HETATM   22  C   UNL     1     -12.579  12.739  70.140  1.00  0.00     0.008 A  
HETATM   23  C   UNL     1     -12.380  13.682  69.138  1.00  0.00    -0.115 A  
HETATM   24  C   UNL     1     -12.769  10.975  68.494  1.00  0.00     1.685 A  
ENDBRANCH  18  19
ENDBRANCH   8  18
BRANCH  13  25
HETATM   25  N   UNL     1      -9.022  12.990  70.156  1.00  0.00     3.009 N  
HETATM   26  O   UNL     1     -10.108  13.784  72.076  1.00  0.00     6.178 OA 
HETATM   27  C   UNL     1      -9.466  14.009  71.054  1.00  0.00     5.148 C  
HETATM   28  H   UNL     1      -8.293  13.186  69.469  1.00  0.00     0.000 HD 
BRANCH  27  29
HETATM   29  C   UNL     1      -9.109  15.438  70.600  1.00  0.00     1.537 C  
HETATM   30  C   UNL     1      -9.707  16.774  71.293  1.00  0.00     4.637 C  
HETATM   31  N   UNL     1      -8.615  18.286  71.432  1.00  0.00     8.254 NA 
HETATM   32  C   UNL     1      -7.431  19.289  70.922  1.00  0.00     2.113 C  
HETATM   33  C   UNL     1      -8.116  17.728  72.498  1.00  0.00    14.781 C  
HETATM   34  C   UNL     1      -9.570  19.002  72.491  1.00  0.00     6.049 C  
HETATM   35  C   UNL     1     -10.372  19.266  70.803  1.00  0.00     1.908 A  
HETATM   36  C   UNL     1     -11.613  19.673  70.380  1.00  0.00     6.796 A  
HETATM   37  N   UNL     1     -11.742  19.332  69.025  1.00  0.00     3.006 NA 
HETATM   38  H   UNL     1     -12.585  19.523  68.484  1.00  0.00     0.000 HD 
HETATM   39  C   UNL     1     -10.619  18.707  68.482  1.00  0.00     0.006 A  
HETATM   40  C   UNL     1     -10.365  18.124  67.231  1.00  0.00    -0.399 A  
HETATM   41  C   UNL     1      -9.137  17.428  67.028  1.00  0.00    -0.251 A  
HETATM   42  C   UNL     1      -8.178  17.191  68.034  1.00  0.00    -0.216 A  
HETATM   43  C   UNL     1      -8.426  17.660  69.317  1.00  0.00     0.261 A  
HETATM   44  C   UNL     1      -9.689  18.590  69.491  1.00  0.00     0.250 A  
HETATM   45  C   UNL     1      -7.553  16.988  70.832  1.00  0.00     4.741 C  
HETATM   46  C   UNL     1      -7.648  15.647  70.846  1.00  0.00     2.290 C  
ENDBRANCH  27  29
ENDBRANCH  13  25
TORSDOF 4
ENDMDL
MODEL      179
REMARK 921   NORMALIZED FREE ENERGY PREDICTED BY IDOCK:   78.71 KCAL/MOL
REMARK 922        TOTAL FREE ENERGY PREDICTED BY IDOCK:   96.26 KCAL/MOL
REMARK 923 INTER-LIGAND FREE ENERGY PREDICTED BY IDOCK:   83.14 KCAL/MOL
REMARK 924 INTRA-LIGAND FREE ENERGY PREDICTED BY IDOCK:   13.12 KCAL/MOL
REMARK 927      BINDING AFFINITY PREDICTED BY RF-SCORE:    0.00 PKD
ROOT
HETATM    1  C   UNL     1      -9.621   8.118  72.244  1.00  0.00    -0.251 A  
HETATM    2  C   UNL     1      -9.022   7.255  73.366  1.00  0.00    -0.203 A  
HETATM    3  C   UNL     1     -10.289   6.639  74.066  1.00  0.00    -0.377 A  
HETATM    4  C   UNL     1     -11.488   7.320  73.417  1.00  0.00     0.344 A  
HETATM    5  N   UNL     1     -10.900   8.475  72.779  1.00  0.00    -0.137 N  
HETATM    6  C   UNL     1     -11.707   9.336  72.107  1.00  0.00    -0.146 C  
HETATM    7  O   UNL     1     -12.720   9.791  72.634  1.00  0.00    -0.113 OA 
HETATM    8  C   UNL     1     -11.180   9.752  70.708  1.00  0.00    -0.419 C  
HETATM    9  O   UNL     1      -8.837  10.461  70.659  1.00  0.00     0.572 OA 
HETATM   10  N   UNL     1      -9.917   8.805  70.134  1.00  0.00    -0.180 N  
HETATM   11  C   UNL     1      -9.033   9.104  69.054  1.00  0.00    -0.143 C  
HETATM   12  H   UNL     1      -7.246   9.003  70.266  1.00  0.00     0.000 HD 
HETATM   13  C   UNL     1      -9.043  10.586  69.025  1.00  0.00    -0.181 C  
HETATM   14  O   UNL     1      -8.426   8.322  68.339  1.00  0.00    -0.127 OA 
HETATM   15  O   UNL     1      -7.648   8.461  70.934  1.00  0.00    -0.066 OA 
HETATM   16  C   UNL     1     -10.220  10.391  67.943  1.00  0.00    -0.211 C  
HETATM   17  C   UNL     1      -8.932   9.047  71.098  1.00  0.00    -0.235 C  
ENDROOT
BRANCH   8  18
HETATM   18  C   UNL     1     -12.437  10.054  69.892  1.00  0.00     0.174 C  
BRANCH  18  19
HETATM   19  C   UNL     1     -12.167  10.519  68.502  1.00  0.00     0.620 A  
HETATM   20  C   UNL     1     -11.195  10.032  66.357  1.00  0.00     0.624 A  
HETATM   21  C   UNL     1     -11.461  11.336  65.957  1.00  0.00     0.127 A  
HETATM   22  C   UNL     1     -12.455  11.818  68.083  1.00  0.00     0.994 A  
HETATM   23  C   UNL     1     -12.089  12.255  66.816  1.00  0.00    -0.043 A  
HETATM   24  C   UNL     1     -11.554   9.619  67.627  1.00  0.00     1.189 A  
ENDBRANCH  18  19
ENDBRANCH   8  18
BRANCH  13  25
HETATM   25  N   UNL     1      -8.246  11.680  68.501  1.00  0.00    -0.171 N  
HETATM   26  O   UNL     1      -9.448  13.328  69.656  1.00  0.00     1.123 OA 
HETATM   27  C   UNL     1      -8.648  13.024  68.775  1.00  0.00     0.161 C  
HETATM   28  H   UNL     1      -7.411  11.492  67.946  1.00  0.00     0.000 HD 
BRANCH  27  29
HETATM   29  C   UNL     1      -8.022  14.066  67.830  1.00  0.00    -0.175 C  
HETATM   30  C   UNL     1      -8.566  15.585  67.685  1.00  0.00    -0.175 C  
HETATM   31  N   UNL     1      -7.334  16.961  67.388  1.00  0.00    -0.153 NA 
HETATM   32  C   UNL     1      -5.949  17.582  66.781  1.00  0.00    -0.177 C  
HETATM   33  C   UNL     1      -7.137  16.953  68.676  1.00  0.00    -0.203 C  
HETATM   34  C   UNL     1      -8.379  18.111  67.751  1.00  0.00    -0.250 C  
HETATM   35  C   UNL     1      -8.784  17.575  65.988  1.00  0.00    -0.069 A  
HETATM   36  C   UNL     1      -9.851  17.768  65.144  1.00  0.00     1.519 A  
HETATM   37  N   UNL     1      -9.750  16.837  64.100  1.00  0.00     3.619 NA 
HETATM   38  H   UNL     1     -10.434  16.774  63.346  1.00  0.00     0.000 HD 
HETATM   39  C   UNL     1      -8.632  16.005  64.180  1.00  0.00    10.599 A  
HETATM   40  C   UNL     1      -8.212  14.899  63.424  1.00  0.00    19.426 A  
HETATM   41  C   UNL     1      -7.071  14.160  63.854  1.00  0.00    22.431 A  
HETATM   42  C   UNL     1      -6.373  14.397  65.056  1.00  0.00    16.359 A  
HETATM   43  C   UNL     1      -6.810  15.416  65.892  1.00  0.00     4.641 A  
HETATM   44  C   UNL     1      -7.947  16.349  65.323  1.00  0.00     3.114 A  
HETATM   45  C   UNL     1      -6.353  15.508  67.707  1.00  0.00    -0.183 C  
HETATM   46  C   UNL     1      -6.625  14.331  68.296  1.00  0.00    -0.113 C  
ENDBRANCH  27  29
ENDBRANCH  13  25
TORSDOF 4
ENDMDL
MODEL      180
REMARK 921   NORMALIZED FREE ENERGY PREDICTED BY IDOCK:   93.77 KCAL/MOL
REMARK 922        TOTAL FREE ENERGY PREDICTED BY IDOCK:  114.83 KCAL/MOL
REMARK 923 INTER-LIGAND FREE ENERGY PREDICTED BY IDOCK:  112.62 KCAL/MOL
REMARK 924 INTRA-LIGAND FREE ENERGY PREDICTED BY IDOCK:    2.21 KCAL/MOL
REMARK 927      BINDING AFFINITY PREDICTED BY RF-SCORE:    0.00 PKD
ROOT
HETATM    1  C   UNL     1      -8.916  16.178  72.145  1.00  0.00     9.580 A  
HETATM    2  C   UNL     1      -8.439  15.909  73.581  1.00  0.00    15.703 A  
HETATM    3  C   UNL     1      -8.144  17.349  74.141  1.00  0.00    15.454 A  
HETATM    4  C   UNL     1      -8.304  18.291  72.953  1.00  0.00    13.045 A  
HETATM    5  N   UNL     1      -8.245  17.398  71.819  1.00  0.00    10.968 N  
HETATM    6  C   UNL     1      -8.337  17.918  70.568  1.00  0.00     4.253 C  
HETATM    7  O   UNL     1      -7.626  18.859  70.222  1.00  0.00     0.946 OA 
HETATM    8  C   UNL     1      -9.314  17.161  69.629  1.00  0.00     0.593 C  
HETATM    9  O   UNL     1      -9.032  14.729  69.595  1.00  0.00     0.032 OA 
HETATM   10  N   UNL     1     -10.332  16.080  70.414  1.00  0.00    -0.021 N  
HETATM   11  C   UNL     1     -11.108  15.039  69.823  1.00  0.00    -0.276 C  
HETATM   12  H   UNL     1     -10.177  13.462  70.972  1.00  0.00     0.000 HD 
HETATM   13  C   UNL     1     -10.346  14.721  68.592  1.00  0.00    -0.245 C  
HETATM   14  O   UNL     1     -12.143  14.542  70.239  1.00  0.00    -0.283 OA 
HETATM   15  O   UNL     1      -9.890  14.045  71.665  1.00  0.00     4.945 OA 
HETATM   16  C   UNL     1     -11.338  15.785  67.902  1.00  0.00    -0.277 C  
HETATM   17  C   UNL     1      -9.409  15.179  70.957  1.00  0.00     2.247 C  
ENDROOT
BRANCH   8  18
HETATM   18  C   UNL     1      -9.815  18.224  68.651  1.00  0.00    -0.400 C  
BRANCH  18  19
HETATM   19  C   UNL     1      -8.737  19.065  68.057  1.00  0.00    -0.341 A  
HETATM   20  C   UNL     1      -7.845  21.273  67.722  1.00  0.00     0.382 A  
HETATM   21  C   UNL     1      -6.892  20.741  66.862  1.00  0.00    -0.368 A  
HETATM   22  C   UNL     1      -7.759  18.536  67.215  1.00  0.00    -0.229 A  
HETATM   23  C   UNL     1      -6.836  19.364  66.588  1.00  0.00    -0.202 A  
HETATM   24  C   UNL     1      -8.764  20.436  68.326  1.00  0.00     0.116 A  
ENDBRANCH  18  19
ENDBRANCH   8  18
BRANCH  13  25
HETATM   25  N   UNL     1     -10.227  13.652  67.619  1.00  0.00    -0.236 N  
HETATM   26  O   UNL     1      -8.607  12.486  68.849  1.00  0.00     0.106 OA 
HETATM   27  C   UNL     1      -9.206  12.666  67.793  1.00  0.00    -0.195 C  
HETATM   28  H   UNL     1     -10.862  13.604  66.822  1.00  0.00     0.000 HD 
BRANCH  27  29
HETATM   29  C   UNL     1      -8.884  11.871  66.513  1.00  0.00    -0.178 C  
HETATM   30  C   UNL     1      -9.791  11.927  65.172  1.00  0.00    -0.243 C  
HETATM   31  N   UNL     1      -8.946  11.821  63.506  1.00  0.00     0.235 NA 
HETATM   32  C   UNL     1      -7.777  11.308  62.487  1.00  0.00     0.222 C  
HETATM   33  C   UNL     1      -8.716  13.097  63.632  1.00  0.00     5.516 C  
HETATM   34  C   UNL     1     -10.232  12.330  62.709  1.00  0.00     0.996 C  
HETATM   35  C   UNL     1     -10.544  10.509  63.095  1.00  0.00     0.603 A  
HETATM   36  C   UNL     1     -11.649   9.695  63.066  1.00  0.00     8.414 A  
HETATM   37  N   UNL     1     -11.352   8.536  63.798  1.00  0.00    12.791 NA 
HETATM   38  H   UNL     1     -12.021   7.778  63.931  1.00  0.00     0.000 HD 
HETATM   39  C   UNL     1     -10.062   8.509  64.330  1.00  0.00     4.123 A  
HETATM   40  C   UNL     1      -9.404   7.614  65.188  1.00  0.00     0.821 A  
HETATM   41  C   UNL     1      -8.104   7.946  65.670  1.00  0.00    -0.130 A  
HETATM   42  C   UNL     1      -7.450   9.172  65.425  1.00  0.00    -0.093 A  
HETATM   43  C   UNL     1      -8.101  10.135  64.664  1.00  0.00    -0.153 A  
HETATM   44  C   UNL     1      -9.450   9.691  63.977  1.00  0.00    -0.003 A  
HETATM   45  C   UNL     1      -7.628  11.947  64.698  1.00  0.00     2.946 C  
HETATM   46  C   UNL     1      -7.583  12.374  65.972  1.00  0.00     1.457 C  
ENDBRANCH  27  29
ENDBRANCH  13  25
TORSDOF 4
ENDMDL
MODEL      181
REMARK 921   NORMALIZED FREE ENERGY PREDICTED BY IDOCK:  109.88 KCAL/MOL
REMARK 922        TOTAL FREE ENERGY PREDICTED BY IDOCK:  134.72 KCAL/MOL
REMARK 923 INTER-LIGAND FREE ENERGY PREDICTED BY IDOCK:  133.45 KCAL/MOL
REMARK 924 INTRA-LIGAND FREE ENERGY PREDICTED BY IDOCK:    1.27 KCAL/MOL
REMARK 927      BINDING AFFINITY PREDICTED BY RF-SCORE:    0.00 PKD
ROOT
HETATM    1  C   UNL     1     -11.159   5.276  69.152  1.00  0.00     0.745 A  
HETATM    2  C   UNL     1     -12.389   5.042  70.044  1.00  0.00     7.742 A  
HETATM    3  C   UNL     1     -12.442   3.476  70.183  1.00  0.00    18.136 A  
HETATM    4  C   UNL     1     -11.369   2.943  69.241  1.00  0.00     9.069 A  
HETATM    5  N   UNL     1     -11.102   4.073  68.381  1.00  0.00     3.521 N  
HETATM    6  C   UNL     1     -10.187   3.939  67.386  1.00  0.00     0.555 C  
HETATM    7  O   UNL     1     -10.242   2.995  66.601  1.00  0.00     0.833 OA 
HETATM    8  C   UNL     1      -9.176   5.112  67.282  1.00  0.00    -0.119 C  
HETATM    9  O   UNL     1     -10.180   7.344  67.313  1.00  0.00    -0.206 OA 
HETATM   10  N   UNL     1      -9.164   6.136  68.614  1.00  0.00    -0.124 N  
HETATM   11  C   UNL     1      -8.589   7.439  68.697  1.00  0.00    -0.129 C  
HETATM   12  H   UNL     1     -10.449   8.412  69.210  1.00  0.00     0.000 HD 
HETATM   13  C   UNL     1      -8.625   7.903  67.289  1.00  0.00    -0.128 C  
HETATM   14  O   UNL     1      -8.172   8.017  69.688  1.00  0.00    -0.117 OA 
HETATM   15  O   UNL     1     -10.851   7.618  69.541  1.00  0.00    -0.234 OA 
HETATM   16  C   UNL     1      -7.133   7.302  67.226  1.00  0.00    -0.091 C  
HETATM   17  C   UNL     1     -10.469   6.638  68.585  1.00  0.00    -0.211 C  
ENDROOT
BRANCH   8  18
HETATM   18  C   UNL     1      -7.911   4.483  66.699  1.00  0.00    -0.099 C  
BRANCH  18  19
HETATM   19  C   UNL     1      -7.467   5.086  65.410  1.00  0.00    -0.073 A  
HETATM   20  C   UNL     1      -5.893   6.506  64.274  1.00  0.00    -0.030 A  
HETATM   21  C   UNL     1      -6.651   6.394  63.115  1.00  0.00    -0.033 A  
HETATM   22  C   UNL     1      -8.207   4.956  64.234  1.00  0.00    -0.121 A  
HETATM   23  C   UNL     1      -7.826   5.623  63.076  1.00  0.00    -0.095 A  
HETATM   24  C   UNL     1      -6.295   5.847  65.421  1.00  0.00    -0.038 A  
ENDBRANCH  18  19
ENDBRANCH   8  18
BRANCH  13  25
HETATM   25  N   UNL     1      -8.549   9.142  66.538  1.00  0.00    -0.125 N  
HETATM   26  O   UNL     1      -6.972  10.112  67.976  1.00  0.00    -0.080 OA 
HETATM   27  C   UNL     1      -7.796  10.232  67.073  1.00  0.00    -0.107 C  
HETATM   28  H   UNL     1      -9.027   9.233  65.641  1.00  0.00     0.000 HD 
BRANCH  27  29
HETATM   29  C   UNL     1      -8.143  11.596  66.446  1.00  0.00    -0.023 C  
HETATM   30  C   UNL     1      -7.952  11.932  64.873  1.00  0.00     2.001 C  
HETATM   31  N   UNL     1      -9.191  13.055  64.033  1.00  0.00     1.086 NA 
HETATM   32  C   UNL     1     -10.249  14.300  63.994  1.00  0.00     1.614 C  
HETATM   33  C   UNL     1      -9.943  11.999  63.910  1.00  0.00    -0.318 C  
HETATM   34  C   UNL     1      -8.716  12.648  62.565  1.00  0.00     4.746 C  
HETATM   35  C   UNL     1      -7.445  13.890  63.200  1.00  0.00    18.541 A  
HETATM   36  C   UNL     1      -6.186  14.268  62.801  1.00  0.00    18.908 A  
HETATM   37  N   UNL     1      -5.588  14.967  63.860  1.00  0.00    18.597 NA 
HETATM   38  H   UNL     1      -4.642  15.344  63.810  1.00  0.00     0.000 HD 
HETATM   39  C   UNL     1      -6.399  15.101  64.988  1.00  0.00    14.213 A  
HETATM   40  C   UNL     1      -6.167  15.622  66.270  1.00  0.00     2.662 A  
HETATM   41  C   UNL     1      -7.178  15.484  67.267  1.00  0.00    -0.242 A  
HETATM   42  C   UNL     1      -8.379  14.766  67.091  1.00  0.00    -0.240 A  
HETATM   43  C   UNL     1      -8.613  14.145  65.871  1.00  0.00     1.175 A  
HETATM   44  C   UNL     1      -7.586  14.460  64.716  1.00  0.00    12.696 A  
HETATM   45  C   UNL     1      -9.851  12.754  65.660  1.00  0.00    -0.190 C  
HETATM   46  C   UNL     1      -9.618  11.805  66.582  1.00  0.00    -0.219 C  
ENDBRANCH  27  29
ENDBRANCH  13  25
TORSDOF 4
ENDMDL
