MODEL        1
REMARK 921   NORMALIZED FREE ENERGY PREDICTED BY IDOCK:   -7.24 KCAL/MOL
REMARK 922        TOTAL FREE ENERGY PREDICTED BY IDOCK:   -8.94 KCAL/MOL
REMARK 923 INTER-LIGAND FREE ENERGY PREDICTED BY IDOCK:   -8.93 KCAL/MOL
REMARK 924 INTRA-LIGAND FREE ENERGY PREDICTED BY IDOCK:   -0.02 KCAL/MOL
REMARK 927      BINDING AFFINITY PREDICTED BY RF-SCORE:    0.00 PKD
ROOT
HETATM    1  C   UNL     1     -12.015  13.669  67.891  1.00  0.00    -0.347 C  
HETATM    2  O   UNL     1     -12.280  12.498  68.652  1.00  0.00    -0.173 OA 
HETATM    3  C   UNL     1     -11.386  11.468  68.291  1.00  0.00    -0.286 C  
HETATM    4  C   UNL     1     -11.626  10.187  69.007  1.00  0.00    -0.076 C  
HETATM    5  C   UNL     1     -10.833   9.226  68.140  1.00  0.00    -0.145 C  
HETATM    6  C   UNL     1      -9.265   9.558  67.974  1.00  0.00    -0.129 C  
HETATM    7  C   UNL     1      -7.766   8.635  68.037  1.00  0.00    -0.102 C  
HETATM    8  C   UNL     1      -7.101   7.032  67.983  1.00  0.00    -0.086 C  
HETATM    9  O   UNL     1      -6.236   6.845  67.100  1.00  0.00    -0.036 OA 
HETATM   10  C   UNL     1      -7.156   5.847  69.085  1.00  0.00    -0.069 C  
HETATM   11  C   UNL     1      -8.025   4.473  69.291  1.00  0.00    -0.069 C  
HETATM   12  C   UNL     1      -9.513   4.216  69.896  1.00  0.00    -0.195 C  
HETATM   13  O   UNL     1      -9.526   2.805  70.219  1.00  0.00    -0.145 OA 
HETATM   14  C   UNL     1     -10.250   4.846  71.133  1.00  0.00    -0.261 C  
HETATM   15  C   UNL     1     -10.817   6.289  71.121  1.00  0.00    -0.266 C  
HETATM   16  C   UNL     1      -8.207   2.366  70.549  1.00  0.00    -0.045 C  
HETATM   17  O   UNL     1      -8.966  10.808  68.635  1.00  0.00    -0.148 OA 
HETATM   18  C   UNL     1      -7.208   3.468  70.125  1.00  0.00    -0.041 C  
HETATM   19  O   UNL     1     -10.927   6.767  69.763  1.00  0.00    -0.257 OA 
HETATM   20  C   UNL     1      -9.926  11.866  68.514  1.00  0.00    -0.192 C  
HETATM   21  O   UNL     1      -9.440  12.656  66.169  1.00  0.00    -0.239 OA 
HETATM   22  C   UNL     1      -9.658   7.055  69.118  1.00  0.00    -0.149 C  
HETATM   23  C   UNL     1      -9.575  13.035  67.558  1.00  0.00    -0.204 C  
HETATM   24  C   UNL     1      -9.762   6.918  67.287  1.00  0.00    -0.184 C  
HETATM   25  C   UNL     1     -10.572  14.160  67.935  1.00  0.00    -0.243 C  
HETATM   26  C   UNL     1      -8.803   7.931  70.202  1.00  0.00    -0.144 C  
HETATM   27  O   UNL     1     -11.702  12.550  65.591  1.00  0.00    -0.381 OA 
HETATM   28  C   UNL     1      -8.623   7.281  71.581  1.00  0.00    -0.120 C  
HETATM   29  C   UNL     1     -12.266  13.658  66.378  1.00  0.00    -0.423 C  
HETATM   30  O   UNL     1     -10.534  15.252  67.029  1.00  0.00    -0.279 OA 
HETATM   31  C   UNL     1      -8.908   7.386  65.842  1.00  0.00    -0.149 C  
HETATM   32  C   UNL     1      -8.840   8.831  65.076  1.00  0.00    -0.107 C  
HETATM   33  C   UNL     1     -11.463  14.908  65.984  1.00  0.00    -0.275 C  
HETATM   34  C   UNL     1     -10.027   7.236  72.029  1.00  0.00    -0.184 C  
HETATM   35  C   UNL     1      -7.506   7.955  72.404  1.00  0.00    -0.108 C  
HETATM   36  C   UNL     1     -10.614  14.440  64.833  1.00  0.00    -0.456 C  
HETATM   37  O   UNL     1      -8.995   8.601  63.627  1.00  0.00     0.140 OA 
HETATM   38  C   UNL     1     -10.485   8.020  73.020  1.00  0.00    -0.341 C  
HETATM   39  C   UNL     1      -8.670   9.888  63.012  1.00  0.00    -0.218 C  
HETATM   40  C   UNL     1      -7.314  10.150  63.601  1.00  0.00    -0.123 C  
HETATM   41  C   UNL     1      -9.901  10.864  63.246  1.00  0.00    -0.409 C  
HETATM   42  C   UNL     1      -9.842  12.342  63.752  1.00  0.00    -0.204 C  
HETATM   43  C   UNL     1      -7.663   9.899  65.030  1.00  0.00    -0.133 C  
HETATM   44  C   UNL     1      -7.157  10.829  65.864  1.00  0.00    -0.080 C  
HETATM   45  C   UNL     1     -10.399  12.944  65.148  1.00  0.00    -0.303 C  
ENDROOT
BRANCH  16  46
HETATM   46  C   UNL     1      -8.086   2.009  72.040  1.00  0.00    -0.049 C  
BRANCH  46  47
HETATM   47  C   UNL     1      -9.117   2.609  72.995  1.00  0.00    -0.085 C  
HETATM   48  H   UNL     1      -9.092   3.526  74.730  1.00  0.00     0.000 HD 
HETATM   49  O   UNL     1      -8.451   3.153  74.136  1.00  0.00    -0.072 OA 
BRANCH  47  50
HETATM   50  C   UNL     1     -10.227   1.637  73.432  1.00  0.00    -0.093 C  
HETATM   51  N   UNL     1     -11.505   2.348  73.615  1.00  0.00    -0.220 NA 
HETATM   52  H1  UNL     1     -12.241   1.703  73.904  1.00  0.00     0.000 HD 
HETATM   53  H2  UNL     1     -11.769   2.870  72.780  1.00  0.00     0.000 HD 
ENDBRANCH  47  50
ENDBRANCH  46  47
ENDBRANCH  16  46
BRANCH  18  54
HETATM   54  O   UNL     1      -6.631   4.111  71.271  1.00  0.00    -0.027 OA 
HETATM   55  C   UNL     1      -5.238   3.879  71.462  1.00  0.00     0.000 C  
ENDBRANCH  18  54
TORSDOF 4
ENDMDL
MODEL        2
REMARK 921   NORMALIZED FREE ENERGY PREDICTED BY IDOCK:   -7.06 KCAL/MOL
REMARK 922        TOTAL FREE ENERGY PREDICTED BY IDOCK:   -8.73 KCAL/MOL
REMARK 923 INTER-LIGAND FREE ENERGY PREDICTED BY IDOCK:   -8.65 KCAL/MOL
REMARK 924 INTRA-LIGAND FREE ENERGY PREDICTED BY IDOCK:   -0.08 KCAL/MOL
REMARK 927      BINDING AFFINITY PREDICTED BY RF-SCORE:    0.00 PKD
ROOT
HETATM    1  C   UNL     1      -8.982   2.931  67.469  1.00  0.00    -0.163 C  
HETATM    2  O   UNL     1      -9.463   4.107  66.833  1.00  0.00    -0.164 OA 
HETATM    3  C   UNL     1      -9.123   5.248  67.590  1.00  0.00    -0.109 C  
HETATM    4  C   UNL     1      -9.633   6.523  67.018  1.00  0.00    -0.174 C  
HETATM    5  C   UNL     1      -9.480   7.448  68.211  1.00  0.00    -0.143 C  
HETATM    6  C   UNL     1      -7.990   7.590  68.806  1.00  0.00    -0.126 C  
HETATM    7  C   UNL     1      -6.963   8.919  69.337  1.00  0.00    -0.053 C  
HETATM    8  C   UNL     1      -6.964  10.589  69.813  1.00  0.00    -0.144 C  
HETATM    9  O   UNL     1      -6.469  10.821  70.938  1.00  0.00    -0.343 OA 
HETATM   10  C   UNL     1      -7.179  11.924  68.922  1.00  0.00    -0.098 C  
HETATM   11  C   UNL     1      -8.411  12.968  68.648  1.00  0.00     0.041 C  
HETATM   12  C   UNL     1      -9.697  12.887  67.654  1.00  0.00    -0.212 C  
HETATM   13  O   UNL     1     -10.144  14.258  67.540  1.00  0.00    -0.233 OA 
HETATM   14  C   UNL     1      -9.829  12.370  66.176  1.00  0.00    -0.263 C  
HETATM   15  C   UNL     1      -9.815  10.862  65.813  1.00  0.00    -0.237 C  
HETATM   16  C   UNL     1      -9.039  15.149  67.697  1.00  0.00    -0.180 C  
HETATM   17  O   UNL     1      -7.104   6.688  68.105  1.00  0.00    -0.077 OA 
HETATM   18  C   UNL     1      -7.842  14.344  68.255  1.00  0.00    -0.138 C  
HETATM   19  O   UNL     1     -10.069  10.068  66.992  1.00  0.00    -0.197 OA 
HETATM   20  C   UNL     1      -7.611   5.387  67.777  1.00  0.00    -0.088 C  
HETATM   21  O   UNL     1      -7.454   4.257  70.025  1.00  0.00    -0.048 OA 
HETATM   22  C   UNL     1      -8.979  10.043  67.952  1.00  0.00    -0.131 C  
HETATM   23  C   UNL     1      -7.100   4.193  68.625  1.00  0.00    -0.055 C  
HETATM   24  C   UNL     1      -9.566   9.705  69.662  1.00  0.00    -0.225 C  
HETATM   25  C   UNL     1      -7.495   2.937  67.808  1.00  0.00    -0.057 C  
HETATM   26  C   UNL     1      -7.628   9.758  67.076  1.00  0.00    -0.092 C  
HETATM   27  O   UNL     1      -9.666   3.516  69.885  1.00  0.00    -0.176 OA 
HETATM   28  C   UNL     1      -7.370  10.737  65.924  1.00  0.00    -0.094 C  
HETATM   29  C   UNL     1      -9.578   2.507  68.817  1.00  0.00    -0.000 C  
HETATM   30  O   UNL     1      -7.282   1.729  68.522  1.00  0.00    -0.042 OA 
HETATM   31  C   UNL     1      -8.978   9.197  71.221  1.00  0.00    -0.207 C  
HETATM   32  C   UNL     1      -8.575   7.707  71.765  1.00  0.00    -0.113 C  
HETATM   33  C   UNL     1      -8.496   1.511  69.265  1.00  0.00    -0.050 C  
HETATM   34  C   UNL     1      -8.540  10.450  65.073  1.00  0.00    -0.190 C  
HETATM   35  C   UNL     1      -5.920  10.658  65.402  1.00  0.00    -0.105 C  
HETATM   36  C   UNL     1      -8.182   1.933  70.675  1.00  0.00    -0.058 C  
HETATM   37  O   UNL     1      -9.149   7.528  73.112  1.00  0.00    -0.144 OA 
HETATM   38  C   UNL     1      -8.425   9.820  63.892  1.00  0.00    -0.186 C  
HETATM   39  C   UNL     1      -8.536   6.298  73.615  1.00  0.00    -0.123 C  
HETATM   40  C   UNL     1      -7.079   6.617  73.443  1.00  0.00    -0.077 C  
HETATM   41  C   UNL     1      -9.230   5.073  72.880  1.00  0.00    -0.144 C  
HETATM   42  C   UNL     1      -8.515   3.850  72.219  1.00  0.00    -0.098 C  
HETATM   43  C   UNL     1      -7.138   7.077  72.025  1.00  0.00    -0.073 C  
HETATM   44  C   UNL     1      -6.142   6.575  71.269  1.00  0.00    -0.040 C  
HETATM   45  C   UNL     1      -8.458   3.453  70.651  1.00  0.00    -0.068 C  
ENDROOT
BRANCH  16  46
HETATM   46  C   UNL     1      -8.699  15.867  66.381  1.00  0.00    -0.362 C  
BRANCH  46  47
HETATM   47  C   UNL     1      -9.845  16.547  65.632  1.00  0.00    -0.152 C  
HETATM   48  H   UNL     1     -11.304  17.782  66.072  1.00  0.00     0.000 HD 
HETATM   49  O   UNL     1     -10.592  17.360  66.538  1.00  0.00    -0.285 OA 
BRANCH  47  50
HETATM   50  C   UNL     1     -10.778  15.583  64.878  1.00  0.00    -0.392 C  
HETATM   51  N   UNL     1     -11.659  16.320  63.955  1.00  0.00    -1.573 NA 
HETATM   52  H1  UNL     1     -12.277  15.680  63.455  1.00  0.00     0.000 HD 
HETATM   53  H2  UNL     1     -11.126  16.907  63.313  1.00  0.00     0.000 HD 
ENDBRANCH  47  50
ENDBRANCH  46  47
ENDBRANCH  16  46
BRANCH  18  54
HETATM   54  O   UNL     1      -6.810  14.201  67.266  1.00  0.00    -0.226 OA 
HETATM   55  C   UNL     1      -5.546  14.756  67.621  1.00  0.00     0.035 C  
ENDBRANCH  18  54
TORSDOF 4
ENDMDL
MODEL        3
REMARK 921   NORMALIZED FREE ENERGY PREDICTED BY IDOCK:   -6.47 KCAL/MOL
REMARK 922        TOTAL FREE ENERGY PREDICTED BY IDOCK:   -7.99 KCAL/MOL
REMARK 923 INTER-LIGAND FREE ENERGY PREDICTED BY IDOCK:   -7.81 KCAL/MOL
REMARK 924 INTRA-LIGAND FREE ENERGY PREDICTED BY IDOCK:   -0.18 KCAL/MOL
REMARK 927      BINDING AFFINITY PREDICTED BY RF-SCORE:    0.00 PKD
ROOT
HETATM    1  C   UNL     1      -6.212   2.789  68.143  1.00  0.00    -0.028 C  
HETATM    2  O   UNL     1      -6.684   3.687  67.148  1.00  0.00    -0.044 OA 
HETATM    3  C   UNL     1      -7.391   4.751  67.745  1.00  0.00    -0.070 C  
HETATM    4  C   UNL     1      -7.964   5.716  66.768  1.00  0.00    -0.102 C  
HETATM    5  C   UNL     1      -8.960   6.450  67.646  1.00  0.00    -0.113 C  
HETATM    6  C   UNL     1      -8.348   7.178  68.947  1.00  0.00    -0.126 C  
HETATM    7  C   UNL     1      -8.535   8.750  69.720  1.00  0.00    -0.129 C  
HETATM    8  C   UNL     1      -9.543  10.162  69.803  1.00  0.00    -0.177 C  
HETATM    9  O   UNL     1      -9.961  10.449  70.946  1.00  0.00     0.629 OA 
HETATM   10  C   UNL     1      -9.753  11.353  68.727  1.00  0.00    -0.155 C  
HETATM   11  C   UNL     1     -10.894  11.748  67.619  1.00  0.00    -0.263 C  
HETATM   12  C   UNL     1     -11.159  11.216  66.104  1.00  0.00    -0.085 C  
HETATM   13  O   UNL     1     -11.998  12.236  65.512  1.00  0.00    -0.449 OA 
HETATM   14  C   UNL     1     -10.161  10.888  64.935  1.00  0.00    -0.381 C  
HETATM   15  C   UNL     1      -9.282   9.610  64.921  1.00  0.00    -0.246 C  
HETATM   16  C   UNL     1     -11.722  13.505  66.108  1.00  0.00    -0.365 C  
HETATM   17  O   UNL     1      -6.938   6.874  69.050  1.00  0.00    -0.076 OA 
HETATM   18  C   UNL     1     -10.875  13.269  67.381  1.00  0.00    -0.267 C  
HETATM   19  O   UNL     1      -9.796   8.645  65.864  1.00  0.00    -0.192 OA 
HETATM   20  C   UNL     1      -6.525   5.538  68.731  1.00  0.00    -0.043 C  
HETATM   21  O   UNL     1      -7.236   4.330  70.827  1.00  0.00    -0.040 OA 
HETATM   22  C   UNL     1      -9.599   8.998  67.260  1.00  0.00    -0.159 C  
HETATM   23  C   UNL     1      -6.149   4.611  69.915  1.00  0.00    -0.018 C  
HETATM   24  C   UNL     1     -10.850   8.217  68.358  1.00  0.00     0.036 C  
HETATM   25  C   UNL     1      -5.394   3.428  69.260  1.00  0.00    -0.012 C  
HETATM   26  C   UNL     1      -8.038   9.472  67.377  1.00  0.00    -0.110 C  
HETATM   27  O   UNL     1      -8.345   2.688  69.587  1.00  0.00    -0.047 OA 
HETATM   28  C   UNL     1      -7.617  10.599  66.424  1.00  0.00    -0.138 C  
HETATM   29  C   UNL     1      -7.221   1.973  68.961  1.00  0.00    -0.043 C  
HETATM   30  O   UNL     1      -5.137   2.370  70.170  1.00  0.00    -0.003 OA 
HETATM   31  C   UNL     1     -11.135   7.841  70.035  1.00  0.00    -0.182 C  
HETATM   32  C   UNL     1     -10.525   6.641  70.967  1.00  0.00    -0.214 C  
HETATM   33  C   UNL     1      -6.307   1.531  70.114  1.00  0.00    -0.024 C  
HETATM   34  C   UNL     1      -7.796   9.920  65.127  1.00  0.00    -0.133 C  
HETATM   35  C   UNL     1      -6.285  11.254  66.845  1.00  0.00    -0.123 C  
HETATM   36  C   UNL     1      -7.098   1.868  71.349  1.00  0.00    -0.032 C  
HETATM   37  O   UNL     1     -11.626   6.053  71.753  1.00  0.00    -0.287 OA 
HETATM   38  C   UNL     1      -6.754   9.567  64.357  1.00  0.00    -0.100 C  
HETATM   39  C   UNL     1     -10.962   5.184  72.726  1.00  0.00    -0.267 C  
HETATM   40  C   UNL     1     -10.003   6.149  73.360  1.00  0.00    -0.191 C  
HETATM   41  C   UNL     1     -10.474   3.881  71.960  1.00  0.00    -0.010 C  
HETATM   42  C   UNL     1      -9.064   3.212  72.055  1.00  0.00    -0.155 C  
HETATM   43  C   UNL     1      -9.418   6.707  72.107  1.00  0.00    -0.146 C  
HETATM   44  C   UNL     1      -8.076   6.813  72.157  1.00  0.00    -0.100 C  
HETATM   45  C   UNL     1      -7.937   3.085  70.900  1.00  0.00    -0.053 C  
ENDROOT
BRANCH  16  46
HETATM   46  C   UNL     1     -11.035  14.459  65.117  1.00  0.00    -0.380 C  
BRANCH  46  47
HETATM   47  C   UNL     1     -11.418  15.937  65.179  1.00  0.00    -0.002 C  
HETATM   48  H   UNL     1     -11.731  17.386  63.894  1.00  0.00     0.000 HD 
HETATM   49  O   UNL     1     -11.494  16.467  63.855  1.00  0.00    -1.063 OA 
BRANCH  47  50
HETATM   50  C   UNL     1     -10.493  16.802  66.054  1.00  0.00    -0.293 C  
HETATM   51  N   UNL     1      -9.085  16.633  65.653  1.00  0.00    -0.426 NA 
HETATM   52  H1  UNL     1      -8.471  17.207  66.233  1.00  0.00     0.000 HD 
HETATM   53  H2  UNL     1      -8.950  16.823  64.660  1.00  0.00     0.000 HD 
ENDBRANCH  47  50
ENDBRANCH  46  47
ENDBRANCH  16  46
BRANCH  18  54
HETATM   54  O   UNL     1      -9.530  13.738  67.201  1.00  0.00    -0.226 OA 
HETATM   55  C   UNL     1      -9.053  14.622  68.211  1.00  0.00    -0.189 C  
ENDBRANCH  18  54
TORSDOF 4
ENDMDL
MODEL        4
REMARK 921   NORMALIZED FREE ENERGY PREDICTED BY IDOCK:   -6.25 KCAL/MOL
REMARK 922        TOTAL FREE ENERGY PREDICTED BY IDOCK:   -7.73 KCAL/MOL
REMARK 923 INTER-LIGAND FREE ENERGY PREDICTED BY IDOCK:   -7.31 KCAL/MOL
REMARK 924 INTRA-LIGAND FREE ENERGY PREDICTED BY IDOCK:   -0.42 KCAL/MOL
REMARK 927      BINDING AFFINITY PREDICTED BY RF-SCORE:    0.00 PKD
ROOT
HETATM    1  C   UNL     1      -9.228   3.058  66.805  1.00  0.00    -0.142 C  
HETATM    2  O   UNL     1      -9.907   4.235  66.387  1.00  0.00    -0.204 OA 
HETATM    3  C   UNL     1      -9.506   5.336  67.172  1.00  0.00    -0.127 C  
HETATM    4  C   UNL     1     -10.207   6.603  66.832  1.00  0.00    -0.287 C  
HETATM    5  C   UNL     1      -9.889   7.439  68.058  1.00  0.00    -0.172 C  
HETATM    6  C   UNL     1      -8.324   7.663  68.370  1.00  0.00    -0.125 C  
HETATM    7  C   UNL     1      -7.310   9.031  68.821  1.00  0.00    -0.076 C  
HETATM    8  C   UNL     1      -7.334  10.650  69.447  1.00  0.00    -0.133 C  
HETATM    9  O   UNL     1      -6.645  10.834  70.474  1.00  0.00    -0.310 OA 
HETATM   10  C   UNL     1      -7.815  12.028  68.745  1.00  0.00    -0.033 C  
HETATM   11  C   UNL     1      -9.148  12.979  68.812  1.00  0.00     0.168 C  
HETATM   12  C   UNL     1     -10.595  12.864  68.078  1.00  0.00    -0.227 C  
HETATM   13  O   UNL     1     -11.153  14.196  68.183  1.00  0.00    -0.244 OA 
HETATM   14  C   UNL     1     -10.980  12.459  66.609  1.00  0.00    -0.309 C  
HETATM   15  C   UNL     1     -10.931  10.992  66.107  1.00  0.00    -0.089 C  
HETATM   16  C   UNL     1     -10.104  15.165  68.212  1.00  0.00    -0.223 C  
HETATM   17  O   UNL     1      -7.532   6.902  67.429  1.00  0.00    -0.092 OA 
HETATM   18  C   UNL     1      -8.766  14.426  68.452  1.00  0.00    -0.180 C  
HETATM   19  O   UNL     1     -10.891  10.086  67.231  1.00  0.00    -0.270 OA 
HETATM   20  C   UNL     1      -8.000   5.592  67.080  1.00  0.00    -0.102 C  
HETATM   21  O   UNL     1      -7.323   4.303  69.139  1.00  0.00    -0.054 OA 
HETATM   22  C   UNL     1      -9.634  10.080  67.959  1.00  0.00    -0.138 C  
HETATM   23  C   UNL     1      -7.249   4.384  67.697  1.00  0.00    -0.068 C  
HETATM   24  C   UNL     1      -9.846   9.555  69.709  1.00  0.00    -0.236 C  
HETATM   25  C   UNL     1      -7.707   3.168  66.853  1.00  0.00    -0.076 C  
HETATM   26  C   UNL     1      -8.465   9.987  66.819  1.00  0.00    -0.125 C  
HETATM   27  O   UNL     1      -9.461   3.383  69.351  1.00  0.00    -0.171 OA 
HETATM   28  C   UNL     1      -8.509  11.075  65.738  1.00  0.00    -0.119 C  
HETATM   29  C   UNL     1      -9.514   2.475  68.194  1.00  0.00    -0.159 C  
HETATM   30  O   UNL     1      -7.273   1.930  67.394  1.00  0.00    -0.052 OA 
HETATM   31  C   UNL     1      -8.928   8.977  71.071  1.00  0.00    -0.304 C  
HETATM   32  C   UNL     1      -8.321   7.490  71.383  1.00  0.00    -0.107 C  
HETATM   33  C   UNL     1      -8.298   1.547  68.330  1.00  0.00    -0.057 C  
HETATM   34  C   UNL     1      -9.801  10.754  65.102  1.00  0.00    -0.333 C  
HETATM   35  C   UNL     1      -7.189  11.166  64.944  1.00  0.00     0.790 C  
HETATM   36  C   UNL     1      -7.742   1.880  69.688  1.00  0.00    -0.045 C  
HETATM   37  O   UNL     1      -8.604   7.153  72.791  1.00  0.00    -0.113 OA 
HETATM   38  C   UNL     1      -9.877  10.235  63.865  1.00  0.00    -0.251 C  
HETATM   39  C   UNL     1      -7.818   5.946  73.047  1.00  0.00    -0.103 C  
HETATM   40  C   UNL     1      -6.450   6.404  72.633  1.00  0.00    -0.063 C  
HETATM   41  C   UNL     1      -8.555   4.728  72.344  1.00  0.00    -0.120 C  
HETATM   42  C   UNL     1      -7.899   3.630  71.444  1.00  0.00    -0.060 C  
HETATM   43  C   UNL     1      -6.820   6.970  71.304  1.00  0.00    -0.060 C  
HETATM   44  C   UNL     1      -5.960   6.620  70.327  1.00  0.00    -0.023 C  
HETATM   45  C   UNL     1      -8.125   3.366  69.863  1.00  0.00    -0.048 C  
ENDROOT
BRANCH  16  46
HETATM   46  C   UNL     1     -10.082  16.014  66.930  1.00  0.00    -0.266 C  
BRANCH  46  47
HETATM   47  C   UNL     1     -10.068  17.534  67.091  1.00  0.00    -0.321 C  
HETATM   48  H   UNL     1      -9.173  19.052  66.227  1.00  0.00     0.000 HD 
HETATM   49  O   UNL     1      -9.183  18.107  66.127  1.00  0.00    -0.477 OA 
BRANCH  47  50
HETATM   50  C   UNL     1      -9.714  18.025  68.506  1.00  0.00    -0.352 C  
HETATM   51  N   UNL     1      -8.277  18.332  68.611  1.00  0.00    -0.306 NA 
HETATM   52  H1  UNL     1      -8.042  18.658  69.549  1.00  0.00     0.000 HD 
HETATM   53  H2  UNL     1      -7.980  18.996  67.897  1.00  0.00     0.000 HD 
ENDBRANCH  47  50
ENDBRANCH  46  47
ENDBRANCH  16  46
BRANCH  18  54
HETATM   54  O   UNL     1      -7.943  14.455  67.276  1.00  0.00    -0.193 OA 
HETATM   55  C   UNL     1      -6.777  15.270  67.370  1.00  0.00    -0.123 C  
ENDBRANCH  18  54
TORSDOF 4
ENDMDL
MODEL        5
REMARK 921   NORMALIZED FREE ENERGY PREDICTED BY IDOCK:   -5.18 KCAL/MOL
REMARK 922        TOTAL FREE ENERGY PREDICTED BY IDOCK:   -6.40 KCAL/MOL
REMARK 923 INTER-LIGAND FREE ENERGY PREDICTED BY IDOCK:   -6.15 KCAL/MOL
REMARK 924 INTRA-LIGAND FREE ENERGY PREDICTED BY IDOCK:   -0.25 KCAL/MOL
REMARK 927      BINDING AFFINITY PREDICTED BY RF-SCORE:    0.00 PKD
ROOT
HETATM    1  C   UNL     1     -12.439  13.067  64.048  1.00  0.00    -0.292 C  
HETATM    2  O   UNL     1     -11.900  11.754  63.986  1.00  0.00    -0.363 OA 
HETATM    3  C   UNL     1     -10.937  11.571  65.000  1.00  0.00    -0.241 C  
HETATM    4  C   UNL     1     -10.285  10.234  64.976  1.00  0.00    -0.277 C  
HETATM    5  C   UNL     1      -9.078  10.492  65.859  1.00  0.00    -0.192 C  
HETATM    6  C   UNL     1      -9.397  10.998  67.355  1.00  0.00    -0.155 C  
HETATM    7  C   UNL     1      -8.821  10.600  68.972  1.00  0.00    -0.154 C  
HETATM    8  C   UNL     1      -7.548   9.816  69.855  1.00  0.00    -0.152 C  
HETATM    9  O   UNL     1      -6.967  10.533  70.699  1.00  0.00    -0.300 OA 
HETATM   10  C   UNL     1      -7.213   8.240  70.016  1.00  0.00    -0.059 C  
HETATM   11  C   UNL     1      -6.134   7.194  69.360  1.00  0.00    -0.030 C  
HETATM   12  C   UNL     1      -6.136   6.382  67.951  1.00  0.00    -0.027 C  
HETATM   13  O   UNL     1      -5.174   5.319  68.153  1.00  0.00    -0.003 OA 
HETATM   14  C   UNL     1      -7.293   5.641  67.186  1.00  0.00    -0.080 C  
HETATM   15  C   UNL     1      -8.407   6.400  66.420  1.00  0.00    -0.119 C  
HETATM   16  C   UNL     1      -5.128   4.955  69.534  1.00  0.00     0.000 C  
HETATM   17  O   UNL     1     -10.821  11.198  67.502  1.00  0.00    -0.219 OA 
HETATM   18  C   UNL     1      -5.872   6.041  70.347  1.00  0.00    -0.021 C  
HETATM   19  O   UNL     1      -8.003   7.766  66.185  1.00  0.00    -0.097 OA 
HETATM   20  C   UNL     1     -11.524  11.783  66.397  1.00  0.00    -0.239 C  
HETATM   21  O   UNL     1     -10.861  14.201  66.666  1.00  0.00    -0.294 OA 
HETATM   22  C   UNL     1      -7.984   8.604  67.371  1.00  0.00    -0.102 C  
HETATM   23  C   UNL     1     -11.956  13.266  66.537  1.00  0.00    -0.391 C  
HETATM   24  C   UNL     1      -6.810  10.011  67.210  1.00  0.00    -0.082 C  
HETATM   25  C   UNL     1     -12.995  13.477  65.408  1.00  0.00    -0.231 C  
HETATM   26  C   UNL     1      -9.398   8.313  68.139  1.00  0.00    -0.140 C  
HETATM   27  O   UNL     1     -10.235  14.351  64.419  1.00  0.00    -0.175 OA 
HETATM   28  C   UNL     1      -9.679   6.840  68.468  1.00  0.00    -0.133 C  
HETATM   29  C   UNL     1     -11.537  14.268  63.737  1.00  0.00     0.266 C  
HETATM   30  O   UNL     1     -13.366  14.838  65.251  1.00  0.00    -0.164 OA 
HETATM   31  C   UNL     1      -6.438  11.555  67.926  1.00  0.00    -0.056 C  
HETATM   32  C   UNL     1      -7.178  13.004  67.755  1.00  0.00    -0.139 C  
HETATM   33  C   UNL     1     -12.400  15.389  64.336  1.00  0.00    -0.077 C  
HETATM   34  C   UNL     1      -9.771   6.285  67.105  1.00  0.00    -0.164 C  
HETATM   35  C   UNL     1     -10.803   6.678  69.512  1.00  0.00    -0.339 C  
HETATM   36  C   UNL     1     -11.436  16.164  65.193  1.00  0.00     0.107 C  
HETATM   37  O   UNL     1      -6.144  14.040  67.572  1.00  0.00    -0.323 OA 
HETATM   38  C   UNL     1     -10.936   5.865  66.584  1.00  0.00    -0.228 C  
HETATM   39  C   UNL     1      -6.867  15.308  67.685  1.00  0.00    -0.180 C  
HETATM   40  C   UNL     1      -7.543  15.132  69.014  1.00  0.00    -0.162 C  
HETATM   41  C   UNL     1      -7.681  15.524  66.339  1.00  0.00     0.441 C  
HETATM   42  C   UNL     1      -9.180  15.952  66.209  1.00  0.00    -0.372 C  
HETATM   43  C   UNL     1      -8.129  13.782  68.765  1.00  0.00    -0.022 C  
HETATM   44  C   UNL     1      -9.411  13.685  69.169  1.00  0.00     0.431 C  
HETATM   45  C   UNL     1     -10.420  15.087  65.632  1.00  0.00    -0.350 C  
ENDROOT
BRANCH  16  46
HETATM   46  C   UNL     1      -5.707   3.550  69.768  1.00  0.00    -0.018 C  
BRANCH  46  47
HETATM   47  C   UNL     1      -6.237   2.793  68.550  1.00  0.00    -0.029 C  
HETATM   48  H   UNL     1      -7.440   1.278  68.224  1.00  0.00     0.000 HD 
HETATM   49  O   UNL     1      -7.110   1.749  68.982  1.00  0.00    -0.036 OA 
BRANCH  47  50
HETATM   50  C   UNL     1      -5.146   2.234  67.619  1.00  0.00    -0.008 C  
HETATM   51  N   UNL     1      -5.374   2.664  66.228  1.00  0.00    -0.011 NA 
HETATM   52  H1  UNL     1      -4.650   2.293  65.611  1.00  0.00     0.000 HD 
HETATM   53  H2  UNL     1      -5.449   3.678  66.154  1.00  0.00     0.000 HD 
ENDBRANCH  47  50
ENDBRANCH  46  47
ENDBRANCH  16  46
BRANCH  18  54
HETATM   54  O   UNL     1      -7.107   5.535  70.876  1.00  0.00    -0.064 OA 
HETATM   55  C   UNL     1      -7.186   5.487  72.297  1.00  0.00    -0.089 C  
ENDBRANCH  18  54
TORSDOF 4
ENDMDL
MODEL        6
REMARK 921   NORMALIZED FREE ENERGY PREDICTED BY IDOCK:   -4.38 KCAL/MOL
REMARK 922        TOTAL FREE ENERGY PREDICTED BY IDOCK:   -5.41 KCAL/MOL
REMARK 923 INTER-LIGAND FREE ENERGY PREDICTED BY IDOCK:   -5.25 KCAL/MOL
REMARK 924 INTRA-LIGAND FREE ENERGY PREDICTED BY IDOCK:   -0.17 KCAL/MOL
REMARK 927      BINDING AFFINITY PREDICTED BY RF-SCORE:    0.00 PKD
ROOT
HETATM    1  C   UNL     1      -6.936  17.222  66.923  1.00  0.00    -0.194 C  
HETATM    2  O   UNL     1      -6.283  15.965  67.034  1.00  0.00    -0.319 OA 
HETATM    3  C   UNL     1      -7.212  14.959  67.373  1.00  0.00    -0.183 C  
HETATM    4  C   UNL     1      -6.600  13.615  67.558  1.00  0.00    -0.122 C  
HETATM    5  C   UNL     1      -7.719  12.895  68.288  1.00  0.00    -0.137 C  
HETATM    6  C   UNL     1      -9.134  12.831  67.520  1.00  0.00    -0.193 C  
HETATM    7  C   UNL     1     -10.345  11.590  67.207  1.00  0.00    -0.236 C  
HETATM    8  C   UNL     1     -10.906  10.021  67.695  1.00  0.00    -0.278 C  
HETATM    9  O   UNL     1     -12.107   9.969  68.038  1.00  0.00     0.599 OA 
HETATM   10  C   UNL     1     -10.244   8.562  67.460  1.00  0.00    -0.307 C  
HETATM   11  C   UNL     1      -9.377   7.505  68.365  1.00  0.00    -0.141 C  
HETATM   12  C   UNL     1      -7.793   7.443  68.733  1.00  0.00    -0.121 C  
HETATM   13  O   UNL     1      -7.584   6.078  69.165  1.00  0.00    -0.087 OA 
HETATM   14  C   UNL     1      -6.517   7.713  67.856  1.00  0.00    -0.054 C  
HETATM   15  C   UNL     1      -6.072   9.141  67.447  1.00  0.00    -0.054 C  
HETATM   16  C   UNL     1      -8.508   5.208  68.509  1.00  0.00    -0.088 C  
HETATM   17  O   UNL     1      -9.051  13.593  66.294  1.00  0.00    -0.128 OA 
HETATM   18  C   UNL     1      -9.597   6.076  67.836  1.00  0.00    -0.116 C  
HETATM   19  O   UNL     1      -6.720  10.121  68.286  1.00  0.00    -0.054 OA 
HETATM   20  C   UNL     1      -8.327  14.830  66.334  1.00  0.00     0.343 C  
HETATM   21  O   UNL     1     -10.016  16.309  67.481  1.00  0.00    -0.240 OA 
HETATM   22  C   UNL     1      -8.142  10.286  68.036  1.00  0.00    -0.106 C  
HETATM   23  C   UNL     1      -9.159  16.138  66.329  1.00  0.00    -0.338 C  
HETATM   24  C   UNL     1      -9.040  10.907  69.515  1.00  0.00     0.229 C  
HETATM   25  C   UNL     1      -8.136  17.250  65.983  1.00  0.00    -0.151 C  
HETATM   26  C   UNL     1      -8.292  10.404  66.412  1.00  0.00    -0.139 C  
HETATM   27  O   UNL     1      -8.422  17.051  69.022  1.00  0.00    -0.227 OA 
HETATM   28  C   UNL     1      -7.687   9.246  65.607  1.00  0.00    -0.095 C  
HETATM   29  C   UNL     1      -7.542  17.870  68.175  1.00  0.00    -0.260 C  
HETATM   30  O   UNL     1      -8.676  18.555  66.123  1.00  0.00    -0.462 OA 
HETATM   31  C   UNL     1     -10.547  11.654  69.972  1.00  0.00     0.789 C  
HETATM   32  C   UNL     1     -11.043  13.207  69.827  1.00  0.00     0.162 C  
HETATM   33  C   UNL     1      -8.452  18.909  67.501  1.00  0.00    -0.274 C  
HETATM   34  C   UNL     1      -6.263   9.408  65.952  1.00  0.00    -0.063 C  
HETATM   35  C   UNL     1      -8.195   9.218  64.151  1.00  0.00    -0.159 C  
HETATM   36  C   UNL     1      -9.780  18.718  68.183  1.00  0.00    -0.384 C  
HETATM   37  O   UNL     1     -11.691  13.612  71.090  1.00  0.00     0.023 OA 
HETATM   38  C   UNL     1      -5.357   9.834  65.056  1.00  0.00    -0.051 C  
HETATM   39  C   UNL     1     -12.319  14.898  70.786  1.00  0.00    -0.329 C  
HETATM   40  C   UNL     1     -13.146  14.534  69.588  1.00  0.00     0.680 C  
HETATM   41  C   UNL     1     -11.174  15.996  70.726  1.00  0.00    -0.381 C  
HETATM   42  C   UNL     1     -10.976  17.084  69.621  1.00  0.00     0.125 C  
HETATM   43  C   UNL     1     -12.077  13.849  68.804  1.00  0.00    -0.344 C  
HETATM   44  C   UNL     1     -12.069  14.206  67.505  1.00  0.00    -0.363 C  
HETATM   45  C   UNL     1      -9.765  17.220  68.556  1.00  0.00    -0.296 C  
ENDROOT
BRANCH  16  46
HETATM   46  C   UNL     1      -7.799   4.279  67.509  1.00  0.00    -0.088 C  
BRANCH  46  47
HETATM   47  C   UNL     1      -8.175   2.799  67.532  1.00  0.00    -0.081 C  
HETATM   48  H   UNL     1      -8.480   1.382  66.209  1.00  0.00     0.000 HD 
HETATM   49  O   UNL     1      -8.246   2.303  66.194  1.00  0.00    -0.082 OA 
BRANCH  47  50
HETATM   50  C   UNL     1      -9.474   2.480  68.294  1.00  0.00    -0.161 C  
HETATM   51  N   UNL     1      -9.187   2.123  69.695  1.00  0.00    -0.108 NA 
HETATM   52  H1  UNL     1     -10.048   1.912  70.200  1.00  0.00     0.000 HD 
HETATM   53  H2  UNL     1      -8.643   2.847  70.164  1.00  0.00     0.000 HD 
ENDBRANCH  47  50
ENDBRANCH  46  47
ENDBRANCH  16  46
BRANCH  18  54
HETATM   54  O   UNL     1      -9.476   6.039  66.406  1.00  0.00    -0.156 OA 
HETATM   55  C   UNL     1     -10.393   5.177  65.739  1.00  0.00    -0.049 C  
ENDBRANCH  18  54
TORSDOF 4
ENDMDL
MODEL        7
REMARK 921   NORMALIZED FREE ENERGY PREDICTED BY IDOCK:   -4.30 KCAL/MOL
REMARK 922        TOTAL FREE ENERGY PREDICTED BY IDOCK:   -5.32 KCAL/MOL
REMARK 923 INTER-LIGAND FREE ENERGY PREDICTED BY IDOCK:   -5.11 KCAL/MOL
REMARK 924 INTRA-LIGAND FREE ENERGY PREDICTED BY IDOCK:   -0.21 KCAL/MOL
REMARK 927      BINDING AFFINITY PREDICTED BY RF-SCORE:    0.00 PKD
ROOT
HETATM    1  C   UNL     1      -8.222   3.218  64.907  1.00  0.00    -0.090 C  
HETATM    2  O   UNL     1      -8.774   4.441  64.441  1.00  0.00    -0.132 OA 
HETATM    3  C   UNL     1      -8.779   5.401  65.475  1.00  0.00    -0.154 C  
HETATM    4  C   UNL     1      -9.388   6.701  65.085  1.00  0.00     0.766 C  
HETATM    5  C   UNL     1      -9.617   7.326  66.448  1.00  0.00    -0.169 C  
HETATM    6  C   UNL     1      -8.306   7.509  67.368  1.00  0.00    -0.112 C  
HETATM    7  C   UNL     1      -7.638   8.792  68.373  1.00  0.00    -0.095 C  
HETATM    8  C   UNL     1      -8.012  10.285  69.175  1.00  0.00    -0.135 C  
HETATM    9  O   UNL     1      -7.777  10.302  70.404  1.00  0.00    -0.194 OA 
HETATM   10  C   UNL     1      -8.288  11.756  68.557  1.00  0.00    -0.131 C  
HETATM   11  C   UNL     1      -9.612  12.671  68.247  1.00  0.00    -0.208 C  
HETATM   12  C   UNL     1     -10.662  12.668  67.004  1.00  0.00    -0.245 C  
HETATM   13  O   UNL     1     -11.310  13.959  67.084  1.00  0.00    -0.302 OA 
HETATM   14  C   UNL     1     -10.432  12.507  65.457  1.00  0.00    -0.305 C  
HETATM   15  C   UNL     1     -10.093  11.144  64.801  1.00  0.00    -0.295 C  
HETATM   16  C   UNL     1     -10.422  14.919  67.659  1.00  0.00    -0.249 C  
HETATM   17  O   UNL     1      -7.166   6.920  66.702  1.00  0.00    -0.072 OA 
HETATM   18  C   UNL     1      -9.226  14.162  68.281  1.00  0.00    -0.198 C  
HETATM   19  O   UNL     1     -10.417  10.065  65.704  1.00  0.00    -0.168 OA 
HETATM   20  C   UNL     1      -7.373   5.682  66.008  1.00  0.00    -0.077 C  
HETATM   21  O   UNL     1      -7.435   4.076  67.952  1.00  0.00    -0.066 OA 
HETATM   22  C   UNL     1      -9.532   9.949  66.851  1.00  0.00    -0.163 C  
HETATM   23  C   UNL     1      -6.827   4.394  66.679  1.00  0.00    -0.055 C  
HETATM   24  C   UNL     1     -10.352   9.141  68.284  1.00  0.00    -0.256 C  
HETATM   25  C   UNL     1      -6.845   3.331  65.553  1.00  0.00    -0.049 C  
HETATM   26  C   UNL     1      -8.015  10.055  66.248  1.00  0.00    -0.111 C  
HETATM   27  O   UNL     1      -9.423   3.117  67.185  1.00  0.00    -0.189 OA 
HETATM   28  C   UNL     1      -7.724  11.306  65.408  1.00  0.00     0.477 C  
HETATM   29  C   UNL     1      -8.971   2.411  65.976  1.00  0.00    -0.115 C  
HETATM   30  O   UNL     1      -6.560   2.024  66.028  1.00  0.00    -0.026 OA 
HETATM   31  C   UNL     1      -9.979   8.354  69.793  1.00  0.00    -0.191 C  
HETATM   32  C   UNL     1      -9.431   6.840  70.088  1.00  0.00    -0.158 C  
HETATM   33  C   UNL     1      -7.833   1.483  66.429  1.00  0.00    -0.070 C  
HETATM   34  C   UNL     1      -8.653  11.085  64.284  1.00  0.00     0.151 C  
HETATM   35  C   UNL     1      -6.212  11.538  65.207  1.00  0.00     1.413 C  
HETATM   36  C   UNL     1      -7.858   1.592  67.929  1.00  0.00    -0.058 C  
HETATM   37  O   UNL     1     -10.201   6.274  71.211  1.00  0.00    -0.194 OA 
HETATM   38  C   UNL     1      -8.219  10.775  63.051  1.00  0.00    -0.051 C  
HETATM   39  C   UNL     1      -9.486   5.047  71.567  1.00  0.00    -0.153 C  
HETATM   40  C   UNL     1      -8.099   5.579  71.785  1.00  0.00    -0.118 C  
HETATM   41  C   UNL     1      -9.814   3.956  70.461  1.00  0.00    -0.180 C  
HETATM   42  C   UNL     1      -8.791   3.027  69.730  1.00  0.00    -0.146 C  
HETATM   43  C   UNL     1      -7.978   6.353  70.515  1.00  0.00    -0.112 C  
HETATM   44  C   UNL     1      -6.790   6.177  69.905  1.00  0.00    -0.058 C  
HETATM   45  C   UNL     1      -8.382   3.025  68.164  1.00  0.00    -0.078 C  
ENDROOT
BRANCH  16  46
HETATM   46  C   UNL     1      -9.978  15.968  66.626  1.00  0.00    -0.277 C  
BRANCH  46  47
HETATM   47  C   UNL     1      -9.960  17.431  67.069  1.00  0.00    -0.295 C  
HETATM   48  H   UNL     1      -9.130  19.098  66.453  1.00  0.00     0.000 HD 
HETATM   49  O   UNL     1      -9.141  18.189  66.177  1.00  0.00    -0.478 OA 
BRANCH  47  50
HETATM   50  C   UNL     1      -9.517  17.653  68.527  1.00  0.00    -0.298 C  
HETATM   51  N   UNL     1      -9.199  19.071  68.768  1.00  0.00    -0.357 NA 
HETATM   52  H1  UNL     1      -8.906  19.218  69.734  1.00  0.00     0.000 HD 
HETATM   53  H2  UNL     1      -9.975  19.681  68.513  1.00  0.00     0.000 HD 
ENDBRANCH  47  50
ENDBRANCH  46  47
ENDBRANCH  16  46
BRANCH  18  54
HETATM   54  O   UNL     1      -8.023  14.391  67.532  1.00  0.00    -0.164 OA 
HETATM   55  C   UNL     1      -6.893  14.792  68.302  1.00  0.00    -0.114 C  
ENDBRANCH  18  54
TORSDOF 4
ENDMDL
MODEL        8
REMARK 921   NORMALIZED FREE ENERGY PREDICTED BY IDOCK:   -4.26 KCAL/MOL
REMARK 922        TOTAL FREE ENERGY PREDICTED BY IDOCK:   -5.27 KCAL/MOL
REMARK 923 INTER-LIGAND FREE ENERGY PREDICTED BY IDOCK:   -4.93 KCAL/MOL
REMARK 924 INTRA-LIGAND FREE ENERGY PREDICTED BY IDOCK:   -0.34 KCAL/MOL
REMARK 927      BINDING AFFINITY PREDICTED BY RF-SCORE:    0.00 PKD
ROOT
HETATM    1  C   UNL     1      -8.786  16.960  68.510  1.00  0.00    -0.251 C  
HETATM    2  O   UNL     1      -8.681  15.850  69.392  1.00  0.00    -0.253 OA 
HETATM    3  C   UNL     1      -8.966  14.651  68.706  1.00  0.00    -0.173 C  
HETATM    4  C   UNL     1      -8.927  13.441  69.570  1.00  0.00     1.363 C  
HETATM    5  C   UNL     1      -9.652  12.441  68.688  1.00  0.00    -0.036 C  
HETATM    6  C   UNL     1      -9.004  12.185  67.235  1.00  0.00    -0.184 C  
HETATM    7  C   UNL     1      -8.640  10.773  66.246  1.00  0.00    -0.163 C  
HETATM    8  C   UNL     1      -8.970   9.081  66.040  1.00  0.00    -0.185 C  
HETATM    9  O   UNL     1      -9.404   8.757  64.913  1.00  0.00     0.051 OA 
HETATM   10  C   UNL     1      -8.497   7.814  66.930  1.00  0.00    -0.125 C  
HETATM   11  C   UNL     1      -9.183   6.855  68.069  1.00  0.00    -0.121 C  
HETATM   12  C   UNL     1      -9.405   7.064  69.667  1.00  0.00    -0.149 C  
HETATM   13  O   UNL     1      -9.642   5.727  70.170  1.00  0.00    -0.158 OA 
HETATM   14  C   UNL     1      -8.465   7.672  70.770  1.00  0.00    -0.125 C  
HETATM   15  C   UNL     1      -8.205   9.195  70.899  1.00  0.00    -0.177 C  
HETATM   16  C   UNL     1      -8.961   4.770  69.357  1.00  0.00    -0.094 C  
HETATM   17  O   UNL     1      -7.882  13.076  67.045  1.00  0.00    -0.103 OA 
HETATM   18  C   UNL     1      -8.498   5.476  68.060  1.00  0.00    -0.098 C  
HETATM   19  O   UNL     1      -9.214   9.932  70.175  1.00  0.00    -0.228 OA 
HETATM   20  C   UNL     1      -8.017  14.420  67.529  1.00  0.00    -0.192 C  
HETATM   21  O   UNL     1      -9.482  15.407  65.729  1.00  0.00    -0.333 OA 
HETATM   22  C   UNL     1      -9.107   9.842  68.729  1.00  0.00    -0.147 C  
HETATM   23  C   UNL     1      -8.249  15.533  66.474  1.00  0.00    -0.132 C  
HETATM   24  C   UNL     1     -10.724  10.112  67.895  1.00  0.00    -0.317 C  
HETATM   25  C   UNL     1      -7.961  16.853  67.231  1.00  0.00    -0.174 C  
HETATM   26  C   UNL     1      -7.530  10.104  68.386  1.00  0.00    -0.086 C  
HETATM   27  O   UNL     1     -10.964  16.274  67.315  1.00  0.00    -0.264 OA 
HETATM   28  C   UNL     1      -6.536   9.181  69.104  1.00  0.00    -0.050 C  
HETATM   29  C   UNL     1     -10.156  17.337  67.933  1.00  0.00    -0.317 C  
HETATM   30  O   UNL     1      -8.311  18.005  66.479  1.00  0.00    -0.256 OA 
HETATM   31  C   UNL     1     -11.397  10.495  66.334  1.00  0.00     0.500 C  
HETATM   32  C   UNL     1     -11.493  11.927  65.548  1.00  0.00    -0.252 C  
HETATM   33  C   UNL     1      -9.699  18.244  66.780  1.00  0.00    -0.322 C  
HETATM   34  C   UNL     1      -6.777   9.580  70.503  1.00  0.00    -0.101 C  
HETATM   35  C   UNL     1      -5.136   9.212  68.457  1.00  0.00    -0.034 C  
HETATM   36  C   UNL     1     -10.461  17.725  65.591  1.00  0.00    -0.132 C  
HETATM   37  O   UNL     1     -12.847  12.058  64.976  1.00  0.00    -0.321 OA 
HETATM   38  C   UNL     1      -5.869  10.270  71.213  1.00  0.00     0.052 C  
HETATM   39  C   UNL     1     -12.763  13.222  64.092  1.00  0.00    -0.035 C  
HETATM   40  C   UNL     1     -11.602  12.836  63.223  1.00  0.00    -0.378 C  
HETATM   41  C   UNL     1     -12.747  14.523  65.002  1.00  0.00    -0.153 C  
HETATM   42  C   UNL     1     -11.776  15.742  64.877  1.00  0.00     0.003 C  
HETATM   43  C   UNL     1     -10.651  12.462  64.309  1.00  0.00    -0.391 C  
HETATM   44  C   UNL     1      -9.411  12.953  64.113  1.00  0.00     0.801 C  
HETATM   45  C   UNL     1     -10.638  16.227  65.921  1.00  0.00    -0.297 C  
ENDROOT
BRANCH  16  46
HETATM   46  C   UNL     1      -7.795   4.112  70.113  1.00  0.00    -0.051 C  
BRANCH  46  47
HETATM   47  C   UNL     1      -7.760   4.273  71.633  1.00  0.00    -0.074 C  
HETATM   48  H   UNL     1      -6.400   4.643  72.998  1.00  0.00     0.000 HD 
HETATM   49  O   UNL     1      -6.422   4.543  72.053  1.00  0.00    -0.021 OA 
BRANCH  47  50
HETATM   50  C   UNL     1      -8.340   3.082  72.416  1.00  0.00    -0.074 C  
HETATM   51  N   UNL     1      -8.848   2.047  71.497  1.00  0.00    -0.063 NA 
HETATM   52  H1  UNL     1      -9.232   1.257  72.017  1.00  0.00     0.000 HD 
HETATM   53  H2  UNL     1      -8.133   1.749  70.833  1.00  0.00     0.000 HD 
ENDBRANCH  47  50
ENDBRANCH  46  47
ENDBRANCH  16  46
BRANCH  18  54
HETATM   54  O   UNL     1      -7.070   5.619  68.032  1.00  0.00    -0.067 OA 
HETATM   55  C   UNL     1      -6.411   4.950  66.961  1.00  0.00    -0.045 C  
ENDBRANCH  18  54
TORSDOF 4
ENDMDL
MODEL        9
REMARK 921   NORMALIZED FREE ENERGY PREDICTED BY IDOCK:   -3.97 KCAL/MOL
REMARK 922        TOTAL FREE ENERGY PREDICTED BY IDOCK:   -4.91 KCAL/MOL
REMARK 923 INTER-LIGAND FREE ENERGY PREDICTED BY IDOCK:   -4.58 KCAL/MOL
REMARK 924 INTRA-LIGAND FREE ENERGY PREDICTED BY IDOCK:   -0.33 KCAL/MOL
REMARK 927      BINDING AFFINITY PREDICTED BY RF-SCORE:    0.00 PKD
ROOT
HETATM    1  C   UNL     1     -12.410  14.264  67.323  1.00  0.00    -0.105 C  
HETATM    2  O   UNL     1     -12.274  12.955  66.787  1.00  0.00    -0.425 OA 
HETATM    3  C   UNL     1     -11.013  12.418  67.120  1.00  0.00    -0.262 C  
HETATM    4  C   UNL     1     -10.768  11.064  66.554  1.00  0.00    -0.298 C  
HETATM    5  C   UNL     1      -9.264  10.956  66.721  1.00  0.00    -0.174 C  
HETATM    6  C   UNL     1      -8.710  11.107  68.226  1.00  0.00    -0.151 C  
HETATM    7  C   UNL     1      -7.540  10.257  69.232  1.00  0.00    -0.125 C  
HETATM    8  C   UNL     1      -6.211   9.139  69.200  1.00  0.00    -0.042 C  
HETATM    9  O   UNL     1      -5.155   9.553  69.727  1.00  0.00    -0.034 OA 
HETATM   10  C   UNL     1      -6.202   7.545  68.916  1.00  0.00    -0.035 C  
HETATM   11  C   UNL     1      -5.829   6.580  67.645  1.00  0.00    -0.019 C  
HETATM   12  C   UNL     1      -6.683   6.148  66.329  1.00  0.00    -0.060 C  
HETATM   13  O   UNL     1      -6.006   4.967  65.839  1.00  0.00    -0.022 OA 
HETATM   14  C   UNL     1      -8.196   5.757  66.161  1.00  0.00    -0.111 C  
HETATM   15  C   UNL     1      -9.339   6.804  66.206  1.00  0.00    -0.100 C  
HETATM   16  C   UNL     1      -5.391   4.268  66.923  1.00  0.00    -0.013 C  
HETATM   17  O   UNL     1      -9.807  11.425  69.113  1.00  0.00    -0.096 OA 
HETATM   18  C   UNL     1      -5.394   5.196  68.161  1.00  0.00    -0.011 C  
HETATM   19  O   UNL     1      -8.803   8.131  66.015  1.00  0.00    -0.157 OA 
HETATM   20  C   UNL     1     -10.800  12.342  68.633  1.00  0.00    -0.236 C  
HETATM   21  O   UNL     1      -9.569  14.526  68.900  1.00  0.00    -0.210 OA 
HETATM   22  C   UNL     1      -8.035   8.640  67.138  1.00  0.00    -0.100 C  
HETATM   23  C   UNL     1     -10.770  13.782  69.206  1.00  0.00    -0.055 C  
HETATM   24  C   UNL     1      -6.799   9.900  66.621  1.00  0.00    -0.084 C  
HETATM   25  C   UNL     1     -12.144  14.384  68.820  1.00  0.00    -0.241 C  
HETATM   26  C   UNL     1      -8.937   8.329  68.466  1.00  0.00    -0.137 C  
HETATM   27  O   UNL     1     -10.072  15.157  66.706  1.00  0.00    -0.249 OA 
HETATM   28  C   UNL     1      -9.349   6.863  68.656  1.00  0.00    -0.135 C  
HETATM   29  C   UNL     1     -11.522  15.394  66.786  1.00  0.00    -0.045 C  
HETATM   30  O   UNL     1     -12.230  15.774  69.092  1.00  0.00    -0.293 OA 
HETATM   31  C   UNL     1      -5.797  11.165  67.276  1.00  0.00    -0.063 C  
HETATM   32  C   UNL     1      -6.184  12.686  67.740  1.00  0.00    -0.131 C  
HETATM   33  C   UNL     1     -11.720  16.422  67.911  1.00  0.00     0.289 C  
HETATM   34  C   UNL     1     -10.200   6.678  67.466  1.00  0.00    -0.229 C  
HETATM   35  C   UNL     1      -9.844   6.575  70.088  1.00  0.00    -0.185 C  
HETATM   36  C   UNL     1     -10.320  16.845  68.261  1.00  0.00    -0.335 C  
HETATM   37  O   UNL     1      -5.160  13.610  67.218  1.00  0.00    -0.320 OA 
HETATM   38  C   UNL     1     -11.532   6.535  67.558  1.00  0.00     0.158 C  
HETATM   39  C   UNL     1      -5.438  14.884  67.884  1.00  0.00    -0.101 C  
HETATM   40  C   UNL     1      -5.421  14.461  69.324  1.00  0.00    -0.085 C  
HETATM   41  C   UNL     1      -6.723  15.519  67.200  1.00  0.00    -0.022 C  
HETATM   42  C   UNL     1      -7.964  16.132  67.927  1.00  0.00    -0.150 C  
HETATM   43  C   UNL     1      -6.338  13.291  69.203  1.00  0.00    -0.103 C  
HETATM   44  C   UNL     1      -7.258  13.242  70.186  1.00  0.00     1.171 C  
HETATM   45  C   UNL     1      -9.487  15.585  67.941  1.00  0.00    -0.201 C  
ENDROOT
BRANCH  16  46
HETATM   46  C   UNL     1      -6.085   2.924  67.196  1.00  0.00    -0.024 C  
BRANCH  46  47
HETATM   47  C   UNL     1      -6.304   1.989  66.008  1.00  0.00    -0.024 C  
HETATM   48  H   UNL     1      -5.437   1.647  64.282  1.00  0.00     0.000 HD 
HETATM   49  O   UNL     1      -5.301   2.228  65.021  1.00  0.00    -0.008 OA 
BRANCH  47  50
HETATM   50  C   UNL     1      -7.708   2.068  65.381  1.00  0.00    -0.072 C  
HETATM   51  N   UNL     1      -7.729   3.028  64.263  1.00  0.00    -0.076 NA 
HETATM   52  H1  UNL     1      -8.659   3.081  63.847  1.00  0.00     0.000 HD 
HETATM   53  H2  UNL     1      -7.016   2.812  63.566  1.00  0.00     0.000 HD 
ENDBRANCH  47  50
ENDBRANCH  46  47
ENDBRANCH  16  46
BRANCH  18  54
HETATM   54  O   UNL     1      -6.306   4.717  69.162  1.00  0.00    -0.029 OA 
HETATM   55  C   UNL     1      -5.764   4.602  70.475  1.00  0.00    -0.016 C  
ENDBRANCH  18  54
TORSDOF 4
ENDMDL
MODEL       10
REMARK 921   NORMALIZED FREE ENERGY PREDICTED BY IDOCK:   -3.73 KCAL/MOL
REMARK 922        TOTAL FREE ENERGY PREDICTED BY IDOCK:   -4.62 KCAL/MOL
REMARK 923 INTER-LIGAND FREE ENERGY PREDICTED BY IDOCK:   -4.30 KCAL/MOL
REMARK 924 INTRA-LIGAND FREE ENERGY PREDICTED BY IDOCK:   -0.32 KCAL/MOL
REMARK 927      BINDING AFFINITY PREDICTED BY RF-SCORE:    0.00 PKD
ROOT
HETATM    1  C   UNL     1      -6.984   3.278  69.254  1.00  0.00    -0.041 C  
HETATM    2  O   UNL     1      -7.022   4.610  69.747  1.00  0.00    -0.049 OA 
HETATM    3  C   UNL     1      -7.273   5.514  68.694  1.00  0.00    -0.074 C  
HETATM    4  C   UNL     1      -7.281   6.941  69.117  1.00  0.00    -0.090 C  
HETATM    5  C   UNL     1      -7.156   7.634  67.773  1.00  0.00    -0.085 C  
HETATM    6  C   UNL     1      -8.310   7.301  66.699  1.00  0.00    -0.121 C  
HETATM    7  C   UNL     1      -9.305   8.235  65.584  1.00  0.00    -0.018 C  
HETATM    8  C   UNL     1      -9.459   9.771  64.790  1.00  0.00    -0.251 C  
HETATM    9  O   UNL     1      -9.531   9.719  63.542  1.00  0.00    -0.212 OA 
HETATM   10  C   UNL     1      -9.865  11.217  65.394  1.00  0.00    -0.289 C  
HETATM   11  C   UNL     1      -9.060  12.575  65.834  1.00  0.00     0.139 C  
HETATM   12  C   UNL     1      -8.254  12.962  67.193  1.00  0.00    -0.139 C  
HETATM   13  O   UNL     1      -8.165  14.406  67.153  1.00  0.00    -0.204 OA 
HETATM   14  C   UNL     1      -8.586  12.691  68.705  1.00  0.00     0.046 C  
HETATM   15  C   UNL     1      -8.433  11.292  69.355  1.00  0.00     0.364 C  
HETATM   16  C   UNL     1      -9.284  14.947  66.450  1.00  0.00    -0.284 C  
HETATM   17  O   UNL     1      -9.195   6.294  67.240  1.00  0.00    -0.118 OA 
HETATM   18  C   UNL     1      -9.998  13.791  65.711  1.00  0.00    -0.275 C  
HETATM   19  O   UNL     1      -7.602  10.449  68.528  1.00  0.00    -0.088 OA 
HETATM   20  C   UNL     1      -8.600   5.225  67.989  1.00  0.00    -0.103 C  
HETATM   21  O   UNL     1      -7.673   3.818  66.113  1.00  0.00    -0.087 OA 
HETATM   22  C   UNL     1      -8.224  10.016  67.288  1.00  0.00    -0.117 C  
HETATM   23  C   UNL     1      -8.505   3.842  67.295  1.00  0.00    -0.100 C  
HETATM   24  C   UNL     1      -6.984   9.630  65.986  1.00  0.00    -0.093 C  
HETATM   25  C   UNL     1      -8.204   2.849  68.446  1.00  0.00    -0.064 C  
HETATM   26  C   UNL     1      -9.719   9.498  67.703  1.00  0.00    -0.188 C  
HETATM   27  O   UNL     1      -5.575   3.709  67.139  1.00  0.00    -0.020 OA 
HETATM   28  C   UNL     1     -10.581  10.514  68.465  1.00  0.00    -0.234 C  
HETATM   29  C   UNL     1      -5.854   2.857  68.306  1.00  0.00    -0.023 C  
HETATM   30  O   UNL     1      -7.888   1.546  67.978  1.00  0.00    -0.056 OA 
HETATM   31  C   UNL     1      -6.829   8.791  64.467  1.00  0.00    -0.077 C  
HETATM   32  C   UNL     1      -6.693   7.191  64.152  1.00  0.00    -0.047 C  
HETATM   33  C   UNL     1      -6.467   1.563  67.746  1.00  0.00    -0.025 C  
HETATM   34  C   UNL     1      -9.783  10.655  69.698  1.00  0.00    -0.009 C  
HETATM   35  C   UNL     1     -12.073  10.122  68.478  1.00  0.00     0.939 C  
HETATM   36  C   UNL     1      -6.306   1.705  66.257  1.00  0.00    -0.023 C  
HETATM   37  O   UNL     1      -5.632   7.000  63.145  1.00  0.00    -0.035 OA 
HETATM   38  C   UNL     1     -10.205  10.173  70.879  1.00  0.00     0.392 C  
HETATM   39  C   UNL     1      -5.753   5.598  62.742  1.00  0.00    -0.014 C  
HETATM   40  C   UNL     1      -7.199   5.541  62.346  1.00  0.00    -0.045 C  
HETATM   41  C   UNL     1      -5.156   4.704  63.911  1.00  0.00    -0.009 C  
HETATM   42  C   UNL     1      -5.808   3.430  64.541  1.00  0.00    -0.018 C  
HETATM   43  C   UNL     1      -7.770   6.177  63.569  1.00  0.00    -0.105 C  
HETATM   44  C   UNL     1      -8.855   5.531  64.038  1.00  0.00     0.198 C  
HETATM   45  C   UNL     1      -6.368   3.234  66.047  1.00  0.00    -0.032 C  
ENDROOT
BRANCH  16  46
HETATM   46  C   UNL     1     -10.229  15.712  67.391  1.00  0.00    -0.264 C  
BRANCH  46  47
HETATM   47  C   UNL     1     -10.468  17.193  67.101  1.00  0.00    -0.291 C  
HETATM   48  H   UNL     1      -9.928  18.483  65.725  1.00  0.00     0.000 HD 
HETATM   49  O   UNL     1      -9.779  17.562  65.905  1.00  0.00    -0.513 OA 
BRANCH  47  50
HETATM   50  C   UNL     1     -10.092  18.140  68.254  1.00  0.00    -0.386 C  
HETATM   51  N   UNL     1      -8.642  18.404  68.264  1.00  0.00    -0.296 NA 
HETATM   52  H1  UNL     1      -8.393  19.033  69.028  1.00  0.00     0.000 HD 
HETATM   53  H2  UNL     1      -8.317  18.758  67.364  1.00  0.00     0.000 HD 
ENDBRANCH  47  50
ENDBRANCH  46  47
ENDBRANCH  16  46
BRANCH  18  54
HETATM   54  O   UNL     1     -11.274  13.508  66.305  1.00  0.00    -0.292 OA 
HETATM   55  C   UNL     1     -12.400  13.725  65.459  1.00  0.00    -0.475 C  
ENDBRANCH  18  54
TORSDOF 4
ENDMDL
MODEL       11
REMARK 921   NORMALIZED FREE ENERGY PREDICTED BY IDOCK:   -3.70 KCAL/MOL
REMARK 922        TOTAL FREE ENERGY PREDICTED BY IDOCK:   -4.58 KCAL/MOL
REMARK 923 INTER-LIGAND FREE ENERGY PREDICTED BY IDOCK:   -4.17 KCAL/MOL
REMARK 924 INTRA-LIGAND FREE ENERGY PREDICTED BY IDOCK:   -0.41 KCAL/MOL
REMARK 927      BINDING AFFINITY PREDICTED BY RF-SCORE:    0.00 PKD
ROOT
HETATM    1  C   UNL     1      -9.339   6.117  71.733  1.00  0.00    -0.151 C  
HETATM    2  O   UNL     1      -9.333   7.530  71.886  1.00  0.00    -0.142 OA 
HETATM    3  C   UNL     1      -9.156   8.156  70.634  1.00  0.00    -0.150 C  
HETATM    4  C   UNL     1      -9.088   9.640  70.710  1.00  0.00    -0.031 C  
HETATM    5  C   UNL     1      -8.501   9.965  69.348  1.00  0.00    -0.169 C  
HETATM    6  C   UNL     1      -9.344   9.449  68.077  1.00  0.00    -0.129 C  
HETATM    7  C   UNL     1      -9.854  10.135  66.536  1.00  0.00    -0.268 C  
HETATM    8  C   UNL     1      -9.571  11.430  65.415  1.00  0.00    -0.228 C  
HETATM    9  O   UNL     1      -9.300  11.073  64.248  1.00  0.00    -0.218 OA 
HETATM   10  C   UNL     1      -9.930  13.005  65.534  1.00  0.00    -0.226 C  
HETATM   11  C   UNL     1      -9.103  14.375  65.886  1.00  0.00     0.195 C  
HETATM   12  C   UNL     1      -8.662  15.038  67.305  1.00  0.00    -0.203 C  
HETATM   13  O   UNL     1      -8.372  16.417  66.977  1.00  0.00    -0.170 OA 
HETATM   14  C   UNL     1      -9.436  15.175  68.666  1.00  0.00    -0.206 C  
HETATM   15  C   UNL     1      -9.661  13.977  69.623  1.00  0.00     0.793 C  
HETATM   16  C   UNL     1      -9.167  16.835  65.866  1.00  0.00    -0.107 C  
HETATM   17  O   UNL     1     -10.472   8.669  68.532  1.00  0.00    -0.209 OA 
HETATM   18  C   UNL     1      -9.797  15.579  65.220  1.00  0.00    -0.166 C  
HETATM   19  O   UNL     1      -8.755  12.902  69.293  1.00  0.00     0.587 OA 
HETATM   20  C   UNL     1     -10.260   7.785  69.642  1.00  0.00    -0.206 C  
HETATM   21  O   UNL     1      -9.047   5.896  68.494  1.00  0.00    -0.113 OA 
HETATM   22  C   UNL     1      -9.059  12.214  68.051  1.00  0.00    -0.190 C  
HETATM   23  C   UNL     1     -10.164   6.269  69.332  1.00  0.00    -0.193 C  
HETATM   24  C   UNL     1      -7.570  11.435  67.305  1.00  0.00    -0.138 C  
HETATM   25  C   UNL     1     -10.332   5.578  70.709  1.00  0.00    -0.251 C  
HETATM   26  C   UNL     1     -10.666  11.913  68.097  1.00  0.00    -0.246 C  
HETATM   27  O   UNL     1      -7.352   5.914  70.104  1.00  0.00    -0.073 OA 
HETATM   28  C   UNL     1     -11.561  13.141  68.319  1.00  0.00    -0.370 C  
HETATM   29  C   UNL     1      -8.057   5.401  71.289  1.00  0.00    -0.115 C  
HETATM   30  O   UNL     1     -10.078   4.183  70.658  1.00  0.00    -0.167 OA 
HETATM   31  C   UNL     1      -7.114  10.235  66.127  1.00  0.00    -0.121 C  
HETATM   32  C   UNL     1      -7.113   8.601  66.229  1.00  0.00    -0.078 C  
HETATM   33  C   UNL     1      -8.659   4.050  70.870  1.00  0.00    -0.075 C  
HETATM   34  C   UNL     1     -11.127  13.534  69.672  1.00  0.00    -0.043 C  
HETATM   35  C   UNL     1     -13.036  12.861  67.966  1.00  0.00     2.586 C  
HETATM   36  C   UNL     1      -8.073   3.804  69.507  1.00  0.00    -0.062 C  
HETATM   37  O   UNL     1      -5.849   8.097  65.659  1.00  0.00    -0.040 OA 
HETATM   38  C   UNL     1     -11.921  13.391  70.746  1.00  0.00    -0.223 C  
HETATM   39  C   UNL     1      -6.042   6.650  65.557  1.00  0.00    -0.038 C  
HETATM   40  C   UNL     1      -7.315   6.588  64.764  1.00  0.00    -0.077 C  
HETATM   41  C   UNL     1      -5.921   6.039  67.018  1.00  0.00    -0.018 C  
HETATM   42  C   UNL     1      -6.888   5.008  67.686  1.00  0.00    -0.060 C  
HETATM   43  C   UNL     1      -8.112   7.545  65.585  1.00  0.00    -0.128 C  
HETATM   44  C   UNL     1      -9.362   7.108  65.834  1.00  0.00     0.067 C  
HETATM   45  C   UNL     1      -7.866   5.232  68.956  1.00  0.00    -0.082 C  
ENDROOT
BRANCH  16  46
HETATM   46  C   UNL     1     -10.224  17.870  66.285  1.00  0.00    -0.363 C  
BRANCH  46  47
HETATM   47  C   UNL     1      -9.795  19.336  66.335  1.00  0.00    -0.388 C  
HETATM   48  H   UNL     1      -8.235  20.387  65.777  1.00  0.00     0.000 HD 
HETATM   49  O   UNL     1      -8.502  19.475  65.745  1.00  0.00    -0.418 OA 
BRANCH  47  50
HETATM   50  C   UNL     1      -9.816  19.961  67.742  1.00  0.00    -0.402 C  
HETATM   51  N   UNL     1      -9.435  18.969  68.762  1.00  0.00    -0.381 NA 
HETATM   52  H1  UNL     1      -9.449  19.384  69.695  1.00  0.00     0.000 HD 
HETATM   53  H2  UNL     1      -8.533  18.541  68.554  1.00  0.00     0.000 HD 
ENDBRANCH  47  50
ENDBRANCH  46  47
ENDBRANCH  16  46
BRANCH  18  54
HETATM   54  O   UNL     1     -11.214  15.537  65.446  1.00  0.00    -0.307 OA 
HETATM   55  C   UNL     1     -12.002  15.191  64.311  1.00  0.00    -0.262 C  
ENDBRANCH  18  54
TORSDOF 4
ENDMDL
MODEL       12
REMARK 921   NORMALIZED FREE ENERGY PREDICTED BY IDOCK:   -3.59 KCAL/MOL
REMARK 922        TOTAL FREE ENERGY PREDICTED BY IDOCK:   -4.44 KCAL/MOL
REMARK 923 INTER-LIGAND FREE ENERGY PREDICTED BY IDOCK:   -4.01 KCAL/MOL
REMARK 924 INTRA-LIGAND FREE ENERGY PREDICTED BY IDOCK:   -0.43 KCAL/MOL
REMARK 927      BINDING AFFINITY PREDICTED BY RF-SCORE:    0.00 PKD
ROOT
HETATM    1  C   UNL     1      -9.552   6.441  71.652  1.00  0.00    -0.160 C  
HETATM    2  O   UNL     1      -9.458   7.848  71.832  1.00  0.00    -0.152 OA 
HETATM    3  C   UNL     1      -9.269   8.488  70.589  1.00  0.00    -0.163 C  
HETATM    4  C   UNL     1      -9.110   9.964  70.692  1.00  0.00     0.235 C  
HETATM    5  C   UNL     1      -8.531  10.281  69.326  1.00  0.00    -0.172 C  
HETATM    6  C   UNL     1      -9.430   9.842  68.062  1.00  0.00    -0.134 C  
HETATM    7  C   UNL     1      -9.927  10.590  66.547  1.00  0.00    -0.266 C  
HETATM    8  C   UNL     1      -9.590  11.889  65.445  1.00  0.00    -0.165 C  
HETATM    9  O   UNL     1      -9.363  11.540  64.265  1.00  0.00    -0.133 OA 
HETATM   10  C   UNL     1      -9.851  13.479  65.602  1.00  0.00    -0.187 C  
HETATM   11  C   UNL     1      -8.936  14.790  65.963  1.00  0.00     0.073 C  
HETATM   12  C   UNL     1      -8.428  15.395  67.385  1.00  0.00    -0.181 C  
HETATM   13  O   UNL     1      -8.062  16.762  67.078  1.00  0.00    -0.168 OA 
HETATM   14  C   UNL     1      -9.165  15.551  68.764  1.00  0.00    -0.210 C  
HETATM   15  C   UNL     1      -9.443  14.348  69.703  1.00  0.00     0.530 C  
HETATM   16  C   UNL     1      -8.852  17.250  65.993  1.00  0.00    -0.084 C  
HETATM   17  O   UNL     1     -10.593   9.122  68.526  1.00  0.00    -0.212 OA 
HETATM   18  C   UNL     1      -9.569  16.046  65.336  1.00  0.00     0.086 C  
HETATM   19  O   UNL     1      -8.610  13.229  69.333  1.00  0.00     0.686 OA 
HETATM   20  C   UNL     1     -10.412   8.205  69.614  1.00  0.00    -0.224 C  
HETATM   21  O   UNL     1      -9.338   6.271  68.404  1.00  0.00    -0.115 OA 
HETATM   22  C   UNL     1      -8.979  12.585  68.084  1.00  0.00    -0.199 C  
HETATM   23  C   UNL     1     -10.414   6.692  69.273  1.00  0.00    -0.214 C  
HETATM   24  C   UNL     1      -7.555  11.735  67.292  1.00  0.00    -0.150 C  
HETATM   25  C   UNL     1     -10.597   5.984  70.639  1.00  0.00    -0.260 C  
HETATM   26  C   UNL     1     -10.600  12.381  68.158  1.00  0.00    -0.232 C  
HETATM   27  O   UNL     1      -7.614   6.154  69.978  1.00  0.00    -0.090 OA 
HETATM   28  C   UNL     1     -11.415  13.654  68.423  1.00  0.00    -0.346 C  
HETATM   29  C   UNL     1      -8.325   5.659  71.167  1.00  0.00    -0.122 C  
HETATM   30  O   UNL     1     -10.428   4.578  70.555  1.00  0.00    -0.065 OA 
HETATM   31  C   UNL     1      -7.195  10.534  66.082  1.00  0.00    -0.136 C  
HETATM   32  C   UNL     1      -7.290   8.902  66.152  1.00  0.00    -0.090 C  
HETATM   33  C   UNL     1      -9.016   4.356  70.735  1.00  0.00    -0.104 C  
HETATM   34  C   UNL     1     -10.931  13.993  69.774  1.00  0.00    -0.022 C  
HETATM   35  C   UNL     1     -12.911  13.471  68.095  1.00  0.00     1.479 C  
HETATM   36  C   UNL     1      -8.472   4.104  69.355  1.00  0.00    -0.096 C  
HETATM   37  O   UNL     1      -6.071   8.334  65.546  1.00  0.00    -0.044 OA 
HETATM   38  C   UNL     1     -11.712  13.876  70.861  1.00  0.00    -0.067 C  
HETATM   39  C   UNL     1      -6.352   6.904  65.420  1.00  0.00    -0.043 C  
HETATM   40  C   UNL     1      -7.642   6.934  64.653  1.00  0.00    -0.106 C  
HETATM   41  C   UNL     1      -6.239   6.257  66.866  1.00  0.00    -0.039 C  
HETATM   42  C   UNL     1      -7.253   5.272  67.534  1.00  0.00    -0.071 C  
HETATM   43  C   UNL     1      -8.363   7.920  65.509  1.00  0.00    -0.152 C  
HETATM   44  C   UNL     1      -9.632   7.553  65.776  1.00  0.00     0.324 C  
HETATM   45  C   UNL     1      -8.191   5.528  68.828  1.00  0.00    -0.102 C  
ENDROOT
BRANCH  16  46
HETATM   46  C   UNL     1      -9.836  18.337  66.454  1.00  0.00    -0.358 C  
BRANCH  46  47
HETATM   47  C   UNL     1      -9.575  18.998  67.807  1.00  0.00    -0.311 C  
HETATM   48  H   UNL     1     -10.570  20.142  69.052  1.00  0.00     0.000 HD 
HETATM   49  O   UNL     1     -10.733  19.731  68.211  1.00  0.00    -0.304 OA 
BRANCH  47  50
HETATM   50  C   UNL     1      -8.326  19.896  67.850  1.00  0.00    -0.286 C  
HETATM   51  N   UNL     1      -7.277  19.295  68.693  1.00  0.00    -0.317 NA 
HETATM   52  H1  UNL     1      -6.449  19.890  68.721  1.00  0.00     0.000 HD 
HETATM   53  H2  UNL     1      -7.049  18.347  68.393  1.00  0.00     0.000 HD 
ENDBRANCH  47  50
ENDBRANCH  46  47
ENDBRANCH  16  46
BRANCH  18  54
HETATM   54  O   UNL     1     -10.981  16.084  65.591  1.00  0.00    -0.272 OA 
HETATM   55  C   UNL     1     -11.811  15.915  64.445  1.00  0.00    -0.101 C  
ENDBRANCH  18  54
TORSDOF 4
ENDMDL
MODEL       13
REMARK 921   NORMALIZED FREE ENERGY PREDICTED BY IDOCK:   -3.41 KCAL/MOL
REMARK 922        TOTAL FREE ENERGY PREDICTED BY IDOCK:   -4.23 KCAL/MOL
REMARK 923 INTER-LIGAND FREE ENERGY PREDICTED BY IDOCK:   -3.86 KCAL/MOL
REMARK 924 INTRA-LIGAND FREE ENERGY PREDICTED BY IDOCK:   -0.37 KCAL/MOL
REMARK 927      BINDING AFFINITY PREDICTED BY RF-SCORE:    0.00 PKD
ROOT
HETATM    1  C   UNL     1      -6.838  16.986  68.879  1.00  0.00    -0.211 C  
HETATM    2  O   UNL     1      -6.814  15.813  69.680  1.00  0.00    -0.189 OA 
HETATM    3  C   UNL     1      -7.561  14.786  69.066  1.00  0.00    -0.141 C  
HETATM    4  C   UNL     1      -7.629  13.532  69.865  1.00  0.00     1.105 C  
HETATM    5  C   UNL     1      -8.783  12.823  69.180  1.00  0.00     0.698 C  
HETATM    6  C   UNL     1      -8.600  12.543  67.603  1.00  0.00    -0.178 C  
HETATM    7  C   UNL     1      -8.870  11.176  66.525  1.00  0.00    -0.174 C  
HETATM    8  C   UNL     1      -9.671   9.643  66.375  1.00  0.00    -0.224 C  
HETATM    9  O   UNL     1     -10.436   9.536  65.391  1.00  0.00     0.202 OA 
HETATM   10  C   UNL     1      -9.342   8.226  67.086  1.00  0.00    -0.189 C  
HETATM   11  C   UNL     1      -9.955   7.371  68.342  1.00  0.00    -0.177 C  
HETATM   12  C   UNL     1      -9.717   7.487  69.948  1.00  0.00    -0.171 C  
HETATM   13  O   UNL     1     -10.164   6.212  70.466  1.00  0.00    -0.186 OA 
HETATM   14  C   UNL     1      -8.411   7.746  70.783  1.00  0.00    -0.116 C  
HETATM   15  C   UNL     1      -7.739   9.141  70.872  1.00  0.00    -0.126 C  
HETATM   16  C   UNL     1      -9.977   5.191  69.485  1.00  0.00    -0.231 C  
HETATM   17  O   UNL     1      -7.366  13.143  67.148  1.00  0.00    -0.093 OA 
HETATM   18  C   UNL     1      -9.677   5.871  68.128  1.00  0.00    -0.127 C  
HETATM   19  O   UNL     1      -8.665  10.164  70.449  1.00  0.00     0.036 OA 
HETATM   20  C   UNL     1      -7.023  14.431  67.679  1.00  0.00    -0.184 C  
HETATM   21  O   UNL     1      -8.573  15.902  66.340  1.00  0.00    -0.285 OA 
HETATM   22  C   UNL     1      -8.943  10.177  69.023  1.00  0.00    -0.167 C  
HETATM   23  C   UNL     1      -7.207  15.654  66.744  1.00  0.00     0.129 C  
HETATM   24  C   UNL     1     -10.586  10.910  68.641  1.00  0.00    -0.224 C  
HETATM   25  C   UNL     1      -6.408  16.791  67.428  1.00  0.00    -0.168 C  
HETATM   26  C   UNL     1      -7.485  10.071  68.289  1.00  0.00    -0.079 C  
HETATM   27  O   UNL     1      -9.344  16.966  68.273  1.00  0.00    -0.233 OA 
HETATM   28  C   UNL     1      -6.623   8.871  68.706  1.00  0.00    -0.054 C  
HETATM   29  C   UNL     1      -8.160  17.739  68.684  1.00  0.00    -0.276 C  
HETATM   30  O   UNL     1      -6.619  18.055  66.816  1.00  0.00    -0.172 OA 
HETATM   31  C   UNL     1     -11.496  11.582  67.317  1.00  0.00    -0.338 C  
HETATM   32  C   UNL     1     -11.404  13.056  66.612  1.00  0.00    -0.325 C  
HETATM   33  C   UNL     1      -7.779  18.603  67.471  1.00  0.00    -0.229 C  
HETATM   34  C   UNL     1      -6.401   9.194  70.128  1.00  0.00    -0.044 C  
HETATM   35  C   UNL     1      -5.465   8.612  67.720  1.00  0.00    -0.035 C  
HETATM   36  C   UNL     1      -8.916  18.393  66.509  1.00  0.00    -0.294 C  
HETATM   37  O   UNL     1     -12.774  13.567  66.413  1.00  0.00    -0.257 OA 
HETATM   38  C   UNL     1      -5.200   9.574  70.594  1.00  0.00    -0.033 C  
HETATM   39  C   UNL     1     -12.608  14.746  65.562  1.00  0.00     0.038 C  
HETATM   40  C   UNL     1     -11.837  14.163  64.414  1.00  0.00    -0.447 C  
HETATM   41  C   UNL     1     -12.030  15.919  66.465  1.00  0.00     1.069 C  
HETATM   42  C   UNL     1     -10.836  16.866  66.118  1.00  0.00     0.009 C  
HETATM   43  C   UNL     1     -10.780  13.473  65.210  1.00  0.00    -0.328 C  
HETATM   44  C   UNL     1      -9.543  13.657  64.709  1.00  0.00     0.489 C  
HETATM   45  C   UNL     1      -9.392  16.962  66.843  1.00  0.00    -0.241 C  
ENDROOT
BRANCH  16  46
HETATM   46  C   UNL     1      -8.875   4.203  69.900  1.00  0.00    -0.134 C  
BRANCH  46  47
HETATM   47  C   UNL     1      -8.579   4.061  71.392  1.00  0.00    -0.096 C  
HETATM   48  H   UNL     1      -6.993   4.122  72.546  1.00  0.00     0.000 HD 
HETATM   49  O   UNL     1      -7.177   4.211  71.617  1.00  0.00    -0.050 OA 
BRANCH  47  50
HETATM   50  C   UNL     1      -9.091   2.754  72.025  1.00  0.00    -0.088 C  
HETATM   51  N   UNL     1      -9.912   3.034  73.216  1.00  0.00    -0.106 NA 
HETATM   52  H1  UNL     1     -10.251   2.168  73.635  1.00  0.00     0.000 HD 
HETATM   53  H2  UNL     1     -10.677   3.675  73.005  1.00  0.00     0.000 HD 
ENDBRANCH  47  50
ENDBRANCH  46  47
ENDBRANCH  16  46
BRANCH  18  54
HETATM   54  O   UNL     1      -8.312   5.659  67.734  1.00  0.00    -0.101 OA 
HETATM   55  C   UNL     1      -8.134   5.045  66.461  1.00  0.00    -0.108 C  
ENDBRANCH  18  54
TORSDOF 4
ENDMDL
MODEL       14
REMARK 921   NORMALIZED FREE ENERGY PREDICTED BY IDOCK:   -3.12 KCAL/MOL
REMARK 922        TOTAL FREE ENERGY PREDICTED BY IDOCK:   -3.87 KCAL/MOL
REMARK 923 INTER-LIGAND FREE ENERGY PREDICTED BY IDOCK:   -3.59 KCAL/MOL
REMARK 924 INTRA-LIGAND FREE ENERGY PREDICTED BY IDOCK:   -0.27 KCAL/MOL
REMARK 927      BINDING AFFINITY PREDICTED BY RF-SCORE:    0.00 PKD
ROOT
HETATM    1  C   UNL     1      -9.143   5.796  71.698  1.00  0.00    -0.143 C  
HETATM    2  O   UNL     1      -9.144   7.211  71.829  1.00  0.00    -0.139 OA 
HETATM    3  C   UNL     1      -9.018   7.820  70.563  1.00  0.00    -0.150 C  
HETATM    4  C   UNL     1      -8.961   9.306  70.614  1.00  0.00    -0.296 C  
HETATM    5  C   UNL     1      -8.426   9.615  69.228  1.00  0.00    -0.150 C  
HETATM    6  C   UNL     1      -9.311   9.072  67.995  1.00  0.00    -0.141 C  
HETATM    7  C   UNL     1      -9.882   9.732  66.465  1.00  0.00    -0.286 C  
HETATM    8  C   UNL     1      -9.652  11.012  65.315  1.00  0.00    -0.227 C  
HETATM    9  O   UNL     1      -9.419  10.639  64.144  1.00  0.00    -0.232 OA 
HETATM   10  C   UNL     1     -10.020  12.585  65.423  1.00  0.00    -0.236 C  
HETATM   11  C   UNL     1      -9.194  13.968  65.725  1.00  0.00     0.246 C  
HETATM   12  C   UNL     1      -8.708  14.655  67.117  1.00  0.00    -0.222 C  
HETATM   13  O   UNL     1      -8.442  16.032  66.759  1.00  0.00    -0.207 OA 
HETATM   14  C   UNL     1      -9.433  14.806  68.503  1.00  0.00    -0.214 C  
HETATM   15  C   UNL     1      -9.613  13.620  69.486  1.00  0.00     0.986 C  
HETATM   16  C   UNL     1      -9.281  16.426  65.672  1.00  0.00     0.095 C  
HETATM   17  O   UNL     1     -10.415   8.289  68.503  1.00  0.00    -0.207 OA 
HETATM   18  C   UNL     1      -9.922  15.155  65.067  1.00  0.00    -0.143 C  
HETATM   19  O   UNL     1      -8.709  12.549  69.139  1.00  0.00     0.394 OA 
HETATM   20  C   UNL     1     -10.154   7.425  69.617  1.00  0.00    -0.186 C  
HETATM   21  O   UNL     1      -8.966   5.530  68.454  1.00  0.00    -0.111 OA 
HETATM   22  C   UNL     1      -9.052  11.839  67.919  1.00  0.00    -0.181 C  
HETATM   23  C   UNL     1     -10.056   5.905  69.326  1.00  0.00    -0.194 C  
HETATM   24  C   UNL     1      -7.584  11.062  67.131  1.00  0.00    -0.117 C  
HETATM   25  C   UNL     1     -10.168   5.234  70.718  1.00  0.00    -0.246 C  
HETATM   26  C   UNL     1     -10.653  11.526  68.027  1.00  0.00    -0.222 C  
HETATM   27  O   UNL     1      -7.214   5.586  70.001  1.00  0.00    -0.064 OA 
HETATM   28  C   UNL     1     -11.551  12.748  68.264  1.00  0.00    -0.375 C  
HETATM   29  C   UNL     1      -7.872   5.084  71.218  1.00  0.00    -0.101 C  
HETATM   30  O   UNL     1      -9.903   3.840  70.678  1.00  0.00    -0.184 OA 
HETATM   31  C   UNL     1      -7.159   9.848  65.955  1.00  0.00    -0.105 C  
HETATM   32  C   UNL     1      -7.139   8.217  66.081  1.00  0.00    -0.062 C  
HETATM   33  C   UNL     1      -8.476   3.723  70.841  1.00  0.00    -0.071 C  
HETATM   34  C   UNL     1     -11.072  13.166  69.594  1.00  0.00     0.014 C  
HETATM   35  C   UNL     1     -13.035  12.451  67.968  1.00  0.00     3.123 C  
HETATM   36  C   UNL     1      -7.937   3.461  69.461  1.00  0.00    -0.057 C  
HETATM   37  O   UNL     1      -5.893   7.715  65.473  1.00  0.00    -0.037 OA 
HETATM   38  C   UNL     1     -11.826  13.032  70.698  1.00  0.00    -0.069 C  
HETATM   39  C   UNL     1      -6.076   6.264  65.399  1.00  0.00    -0.030 C  
HETATM   40  C   UNL     1      -7.376   6.180  64.654  1.00  0.00    -0.072 C  
HETATM   41  C   UNL     1      -5.896   5.677  66.864  1.00  0.00    -0.018 C  
HETATM   42  C   UNL     1      -6.829   4.648  67.581  1.00  0.00    -0.059 C  
HETATM   43  C   UNL     1      -8.151   7.142  65.489  1.00  0.00    -0.135 C  
HETATM   44  C   UNL     1      -9.388   6.698  65.790  1.00  0.00     0.131 C  
HETATM   45  C   UNL     1      -7.764   4.882  68.882  1.00  0.00    -0.073 C  
ENDROOT
BRANCH  16  46
HETATM   46  C   UNL     1     -10.332  17.458  66.113  1.00  0.00    -0.329 C  
BRANCH  46  47
HETATM   47  C   UNL     1      -9.887  18.544  67.092  1.00  0.00    -0.319 C  
HETATM   48  H   UNL     1     -10.048  18.882  69.018  1.00  0.00     0.000 HD 
HETATM   49  O   UNL     1     -10.324  18.207  68.410  1.00  0.00    -0.374 OA 
BRANCH  47  50
HETATM   50  C   UNL     1     -10.342  19.967  66.721  1.00  0.00    -0.474 C  
HETATM   51  N   UNL     1      -9.399  20.972  67.242  1.00  0.00    -0.603 NA 
HETATM   52  H1  UNL     1      -9.701  21.915  66.996  1.00  0.00     0.000 HD 
HETATM   53  H2  UNL     1      -8.444  20.790  66.934  1.00  0.00     0.000 HD 
ENDBRANCH  47  50
ENDBRANCH  46  47
ENDBRANCH  16  46
BRANCH  18  54
HETATM   54  O   UNL     1     -11.330  15.104  65.345  1.00  0.00    -0.346 OA 
HETATM   55  C   UNL     1     -12.162  14.826  64.223  1.00  0.00    -0.379 C  
ENDBRANCH  18  54
TORSDOF 4
ENDMDL
MODEL       15
REMARK 921   NORMALIZED FREE ENERGY PREDICTED BY IDOCK:   -2.51 KCAL/MOL
REMARK 922        TOTAL FREE ENERGY PREDICTED BY IDOCK:   -3.11 KCAL/MOL
REMARK 923 INTER-LIGAND FREE ENERGY PREDICTED BY IDOCK:   -2.75 KCAL/MOL
REMARK 924 INTRA-LIGAND FREE ENERGY PREDICTED BY IDOCK:   -0.36 KCAL/MOL
REMARK 927      BINDING AFFINITY PREDICTED BY RF-SCORE:    0.00 PKD
ROOT
HETATM    1  C   UNL     1      -8.118  17.074  67.341  1.00  0.00    -0.176 C  
HETATM    2  O   UNL     1      -7.193  16.008  67.170  1.00  0.00    -0.188 OA 
HETATM    3  C   UNL     1      -7.834  14.768  67.368  1.00  0.00    -0.200 C  
HETATM    4  C   UNL     1      -6.923  13.596  67.255  1.00  0.00     0.083 C  
HETATM    5  C   UNL     1      -7.770  12.517  67.903  1.00  0.00    -0.138 C  
HETATM    6  C   UNL     1      -9.208  12.250  67.226  1.00  0.00    -0.185 C  
HETATM    7  C   UNL     1     -10.139  10.829  66.758  1.00  0.00    -0.267 C  
HETATM    8  C   UNL     1     -10.282   9.112  66.972  1.00  0.00    -0.263 C  
HETATM    9  O   UNL     1     -11.399   8.717  67.373  1.00  0.00     0.463 OA 
HETATM   10  C   UNL     1      -9.341   7.915  66.423  1.00  0.00    -0.247 C  
HETATM   11  C   UNL     1      -8.170   6.956  67.054  1.00  0.00    -0.120 C  
HETATM   12  C   UNL     1      -6.583   7.210  67.304  1.00  0.00    -0.059 C  
HETATM   13  O   UNL     1      -6.031   5.881  67.455  1.00  0.00    -0.016 OA 
HETATM   14  C   UNL     1      -5.498   7.922  66.417  1.00  0.00    -0.025 C  
HETATM   15  C   UNL     1      -5.426   9.463  66.261  1.00  0.00    -0.048 C  
HETATM   16  C   UNL     1      -6.801   4.941  66.703  1.00  0.00    -0.062 C  
HETATM   17  O   UNL     1      -9.426  13.208  66.165  1.00  0.00    -0.237 OA 
HETATM   18  C   UNL     1      -8.121   5.627  66.277  1.00  0.00    -0.107 C  
HETATM   19  O   UNL     1      -6.185  10.102  67.310  1.00  0.00    -0.057 OA 
HETATM   20  C   UNL     1      -8.995  14.556  66.394  1.00  0.00    -0.118 C  
HETATM   21  O   UNL     1     -10.841  15.373  67.905  1.00  0.00    -0.281 OA 
HETATM   22  C   UNL     1      -7.626   9.964  67.185  1.00  0.00    -0.092 C  
HETATM   23  C   UNL     1     -10.093  15.610  66.691  1.00  0.00    -0.273 C  
HETATM   24  C   UNL     1      -8.481  10.092  68.808  1.00  0.00    -0.131 C  
HETATM   25  C   UNL     1      -9.385  16.975  66.499  1.00  0.00    -0.269 C  
HETATM   26  C   UNL     1      -7.968  10.320  65.626  1.00  0.00    -0.150 C  
HETATM   27  O   UNL     1      -9.300  16.197  69.457  1.00  0.00    -0.223 OA 
HETATM   28  C   UNL     1      -7.209   9.493  64.579  1.00  0.00    -0.110 C  
HETATM   29  C   UNL     1      -8.718  17.335  68.728  1.00  0.00    -0.232 C  
HETATM   30  O   UNL     1     -10.184  18.070  66.919  1.00  0.00    -0.330 OA 
HETATM   31  C   UNL     1     -10.059  10.370  69.491  1.00  0.00    -0.246 C  
HETATM   32  C   UNL     1     -10.901  11.761  69.676  1.00  0.00     0.112 C  
HETATM   33  C   UNL     1      -9.902  18.227  68.323  1.00  0.00    -0.350 C  
HETATM   34  C   UNL     1      -5.828   9.928  64.859  1.00  0.00    -0.094 C  
HETATM   35  C   UNL     1      -7.847   9.594  63.178  1.00  0.00    -0.133 C  
HETATM   36  C   UNL     1     -11.074  17.612  69.037  1.00  0.00     0.680 C  
HETATM   37  O   UNL     1     -11.486  11.778  71.030  1.00  0.00     0.618 OA 
HETATM   38  C   UNL     1      -5.139  10.705  64.006  1.00  0.00    -0.161 C  
HETATM   39  C   UNL     1     -12.413  12.911  71.017  1.00  0.00    -0.283 C  
HETATM   40  C   UNL     1     -13.260  12.571  69.825  1.00  0.00     1.699 C  
HETATM   41  C   UNL     1     -11.554  14.244  71.097  1.00  0.00    -0.017 C  
HETATM   42  C   UNL     1     -11.720  15.520  70.209  1.00  0.00    -0.367 C  
HETATM   43  C   UNL     1     -12.153  12.304  68.861  1.00  0.00    -0.177 C  
HETATM   44  C   UNL     1     -12.361  12.870  67.655  1.00  0.00     0.188 C  
HETATM   45  C   UNL     1     -10.688  16.119  69.116  1.00  0.00    -0.292 C  
ENDROOT
BRANCH  16  46
HETATM   46  C   UNL     1      -6.013   4.393  65.503  1.00  0.00    -0.023 C  
BRANCH  46  47
HETATM   47  C   UNL     1      -6.289   2.952  65.076  1.00  0.00    -0.024 C  
HETATM   48  H   UNL     1      -5.814   1.158  65.712  1.00  0.00     0.000 HD 
HETATM   49  O   UNL     1      -5.642   2.054  65.978  1.00  0.00    -0.012 OA 
BRANCH  47  50
HETATM   50  C   UNL     1      -5.899   2.630  63.622  1.00  0.00    -0.010 C  
HETATM   51  N   UNL     1      -5.972   3.836  62.779  1.00  0.00    -0.013 NA 
HETATM   52  H1  UNL     1      -5.713   3.622  61.816  1.00  0.00     0.000 HD 
HETATM   53  H2  UNL     1      -5.410   4.597  63.160  1.00  0.00     0.000 HD 
ENDBRANCH  47  50
ENDBRANCH  46  47
ENDBRANCH  16  46
BRANCH  18  54
HETATM   54  O   UNL     1      -8.145   5.865  64.862  1.00  0.00    -0.122 OA 
HETATM   55  C   UNL     1      -9.259   5.309  64.169  1.00  0.00     0.332 C  
ENDBRANCH  18  54
TORSDOF 4
ENDMDL
MODEL       16
REMARK 921   NORMALIZED FREE ENERGY PREDICTED BY IDOCK:   -1.68 KCAL/MOL
REMARK 922        TOTAL FREE ENERGY PREDICTED BY IDOCK:   -2.09 KCAL/MOL
REMARK 923 INTER-LIGAND FREE ENERGY PREDICTED BY IDOCK:   -2.12 KCAL/MOL
REMARK 924 INTRA-LIGAND FREE ENERGY PREDICTED BY IDOCK:    0.03 KCAL/MOL
REMARK 927      BINDING AFFINITY PREDICTED BY RF-SCORE:    0.00 PKD
ROOT
HETATM    1  C   UNL     1      -8.652   5.743  74.469  1.00  0.00    -0.118 C  
HETATM    2  O   UNL     1      -8.755   7.101  74.061  1.00  0.00    -0.155 OA 
HETATM    3  C   UNL     1      -8.747   7.190  72.653  1.00  0.00    -0.118 C  
HETATM    4  C   UNL     1      -8.803   8.586  72.140  1.00  0.00    -0.286 C  
HETATM    5  C   UNL     1      -8.372   8.374  70.700  1.00  0.00    -0.129 C  
HETATM    6  C   UNL     1      -9.279   7.361  69.836  1.00  0.00    -0.144 C  
HETATM    7  C   UNL     1      -9.984   7.361  68.222  1.00  0.00    -0.182 C  
HETATM    8  C   UNL     1      -9.918   8.121  66.662  1.00  0.00    -0.269 C  
HETATM    9  O   UNL     1      -9.724   7.345  65.701  1.00  0.00     0.385 OA 
HETATM   10  C   UNL     1     -10.401   9.597  66.204  1.00  0.00    -0.202 C  
HETATM   11  C   UNL     1      -9.669  11.031  65.898  1.00  0.00    -0.267 C  
HETATM   12  C   UNL     1      -9.161  12.218  66.888  1.00  0.00    -0.208 C  
HETATM   13  O   UNL     1      -9.023  13.368  66.020  1.00  0.00     0.119 OA 
HETATM   14  C   UNL     1      -9.817  12.846  68.170  1.00  0.00    -0.227 C  
HETATM   15  C   UNL     1      -9.849  12.113  69.536  1.00  0.00     1.054 C  
HETATM   16  C   UNL     1      -9.948  13.279  64.936  1.00  0.00    -0.132 C  
HETATM   17  O   UNL     1     -10.289   6.773  70.688  1.00  0.00    -0.198 OA 
HETATM   18  C   UNL     1     -10.522  11.842  64.905  1.00  0.00    -0.287 C  
HETATM   19  O   UNL     1      -8.886  11.037  69.544  1.00  0.00     0.105 OA 
HETATM   20  C   UNL     1      -9.900   6.410  72.019  1.00  0.00    -0.156 C  
HETATM   21  O   UNL     1      -8.636   4.277  71.557  1.00  0.00    -0.106 OA 
HETATM   22  C   UNL     1      -9.240   9.902  68.710  1.00  0.00    -0.147 C  
HETATM   23  C   UNL     1      -9.701   4.900  72.311  1.00  0.00    -0.160 C  
HETATM   24  C   UNL     1      -7.762   8.959  68.153  1.00  0.00    -0.100 C  
HETATM   25  C   UNL     1      -9.683   4.801  73.857  1.00  0.00    -0.136 C  
HETATM   26  C   UNL     1     -10.804   9.572  69.057  1.00  0.00    -0.184 C  
HETATM   27  O   UNL     1      -6.810   5.004  72.824  1.00  0.00    -0.066 OA 
HETATM   28  C   UNL     1     -11.778  10.746  68.890  1.00  0.00    -0.338 C  
HETATM   29  C   UNL     1      -7.358   4.968  74.189  1.00  0.00    -0.083 C  
HETATM   30  O   UNL     1      -9.313   3.511  74.320  1.00  0.00    -0.092 OA 
HETATM   31  C   UNL     1      -7.311   7.414  67.487  1.00  0.00    -0.102 C  
HETATM   32  C   UNL     1      -7.158   5.955  68.212  1.00  0.00    -0.078 C  
HETATM   33  C   UNL     1      -7.875   3.536  74.399  1.00  0.00    -0.066 C  
HETATM   34  C   UNL     1     -11.259  11.660  69.925  1.00  0.00    -0.140 C  
HETATM   35  C   UNL     1     -13.250  10.284  68.849  1.00  0.00     3.759 C  
HETATM   36  C   UNL     1      -7.396   2.800  73.178  1.00  0.00    -0.045 C  
HETATM   37  O   UNL     1      -5.913   5.324  67.737  1.00  0.00    -0.020 OA 
HETATM   38  C   UNL     1     -11.938  11.916  71.055  1.00  0.00     0.083 C  
HETATM   39  C   UNL     1      -5.987   3.946  68.227  1.00  0.00    -0.027 C  
HETATM   40  C   UNL     1      -7.316   3.520  67.675  1.00  0.00    -0.059 C  
HETATM   41  C   UNL     1      -5.681   3.967  69.785  1.00  0.00    -0.017 C  
HETATM   42  C   UNL     1      -6.490   3.241  70.908  1.00  0.00    -0.027 C  
HETATM   43  C   UNL     1      -8.116   4.686  68.149  1.00  0.00    -0.088 C  
HETATM   44  C   UNL     1      -9.295   4.327  68.693  1.00  0.00    -0.213 C  
HETATM   45  C   UNL     1      -7.365   3.902  72.098  1.00  0.00    -0.056 C  
ENDROOT
BRANCH  16  46
HETATM   46  C   UNL     1     -11.050  14.346  65.043  1.00  0.00    -0.385 C  
BRANCH  46  47
HETATM   47  C   UNL     1     -10.835  15.484  66.040  1.00  0.00    -0.300 C  
HETATM   48  H   UNL     1     -11.461  15.939  67.843  1.00  0.00     0.000 HD 
HETATM   49  O   UNL     1     -11.594  15.231  67.223  1.00  0.00    -0.286 OA 
BRANCH  47  50
HETATM   50  C   UNL     1     -11.148  16.886  65.488  1.00  0.00     0.134 C  
HETATM   51  N   UNL     1     -11.784  16.798  64.162  1.00  0.00    -1.136 NA 
HETATM   52  H1  UNL     1     -11.991  17.728  63.796  1.00  0.00     0.000 HD 
HETATM   53  H2  UNL     1     -12.614  16.207  64.180  1.00  0.00     0.000 HD 
ENDBRANCH  47  50
ENDBRANCH  46  47
ENDBRANCH  16  46
BRANCH  18  54
HETATM   54  O   UNL     1     -11.904  11.829  65.295  1.00  0.00    -0.235 OA 
HETATM   55  C   UNL     1     -12.839  11.844  64.221  1.00  0.00     0.011 C  
ENDBRANCH  18  54
TORSDOF 4
ENDMDL
MODEL       17
REMARK 921   NORMALIZED FREE ENERGY PREDICTED BY IDOCK:   -1.47 KCAL/MOL
REMARK 922        TOTAL FREE ENERGY PREDICTED BY IDOCK:   -1.83 KCAL/MOL
REMARK 923 INTER-LIGAND FREE ENERGY PREDICTED BY IDOCK:   -1.55 KCAL/MOL
REMARK 924 INTRA-LIGAND FREE ENERGY PREDICTED BY IDOCK:   -0.28 KCAL/MOL
REMARK 927      BINDING AFFINITY PREDICTED BY RF-SCORE:    0.00 PKD
ROOT
HETATM    1  C   UNL     1      -5.640   7.219  71.868  1.00  0.00    -0.037 C  
HETATM    2  O   UNL     1      -5.139   8.531  71.653  1.00  0.00    -0.033 OA 
HETATM    3  C   UNL     1      -5.860   9.167  70.621  1.00  0.00    -0.041 C  
HETATM    4  C   UNL     1      -5.366  10.533  70.296  1.00  0.00    -0.054 C  
HETATM    5  C   UNL     1      -6.028  10.759  68.949  1.00  0.00    -0.040 C  
HETATM    6  C   UNL     1      -7.636  10.662  68.930  1.00  0.00    -0.113 C  
HETATM    7  C   UNL     1      -8.949  11.608  68.234  1.00  0.00    -0.185 C  
HETATM    8  C   UNL     1      -9.331  12.826  67.057  1.00  0.00    -0.229 C  
HETATM    9  O   UNL     1     -10.197  12.499  66.215  1.00  0.00    -0.239 OA 
HETATM   10  C   UNL     1      -9.016  14.414  67.065  1.00  0.00    -0.257 C  
HETATM   11  C   UNL     1      -7.914  15.397  66.354  1.00  0.00     0.265 C  
HETATM   12  C   UNL     1      -6.374  15.752  66.740  1.00  0.00     0.620 C  
HETATM   13  O   UNL     1      -6.103  16.980  66.023  1.00  0.00    -0.181 OA 
HETATM   14  C   UNL     1      -5.692  16.022  68.130  1.00  0.00    -0.118 C  
HETATM   15  C   UNL     1      -5.382  14.890  69.143  1.00  0.00    -0.093 C  
HETATM   16  C   UNL     1      -7.307  17.731  65.863  1.00  0.00    -0.199 C  
HETATM   17  O   UNL     1      -8.110  10.265  70.236  1.00  0.00    -0.090 OA 
HETATM   18  C   UNL     1      -8.501  16.814  66.220  1.00  0.00    -0.307 C  
HETATM   19  O   UNL     1      -5.427  13.607  68.480  1.00  0.00    -0.080 OA 
HETATM   20  C   UNL     1      -7.353   9.270  70.939  1.00  0.00    -0.103 C  
HETATM   21  O   UNL     1      -8.091   7.190  69.719  1.00  0.00    -0.124 OA 
HETATM   22  C   UNL     1      -6.759  13.167  68.103  1.00  0.00    -0.111 C  
HETATM   23  C   UNL     1      -7.949   7.840  71.003  1.00  0.00    -0.090 C  
HETATM   24  C   UNL     1      -6.731  12.005  66.679  1.00  0.00     0.160 C  
HETATM   25  C   UNL     1      -7.141   7.130  72.118  1.00  0.00    -0.068 C  
HETATM   26  C   UNL     1      -7.694  13.415  69.423  1.00  0.00     0.527 C  
HETATM   27  O   UNL     1      -5.878   6.508  69.402  1.00  0.00    -0.019 OA 
HETATM   28  C   UNL     1      -7.686  14.845  69.978  1.00  0.00     0.250 C  
HETATM   29  C   UNL     1      -5.471   6.159  70.772  1.00  0.00    -0.018 C  
HETATM   30  O   UNL     1      -7.414   5.739  72.192  1.00  0.00    -0.092 OA 
HETATM   31  C   UNL     1      -7.727  10.826  65.871  1.00  0.00    -0.118 C  
HETATM   32  C   UNL     1      -8.083   9.283  66.282  1.00  0.00    -0.107 C  
HETATM   33  C   UNL     1      -6.496   5.125  71.266  1.00  0.00    -0.031 C  
HETATM   34  C   UNL     1      -6.273  14.956  70.386  1.00  0.00    -0.127 C  
HETATM   35  C   UNL     1      -8.857  15.103  70.949  1.00  0.00     2.340 C  
HETATM   36  C   UNL     1      -7.312   4.816  70.041  1.00  0.00    -0.054 C  
HETATM   37  O   UNL     1      -7.967   8.438  65.079  1.00  0.00    -0.122 OA 
HETATM   38  C   UNL     1      -5.905  14.994  71.678  1.00  0.00     0.343 C  
HETATM   39  C   UNL     1      -8.541   7.151  65.474  1.00  0.00    -0.080 C  
HETATM   40  C   UNL     1      -9.888   7.582  65.976  1.00  0.00     0.229 C  
HETATM   41  C   UNL     1      -7.485   6.413  66.403  1.00  0.00    -0.086 C  
HETATM   42  C   UNL     1      -7.769   5.708  67.769  1.00  0.00    -0.096 C  
HETATM   43  C   UNL     1      -9.426   8.676  66.880  1.00  0.00    -0.235 C  
HETATM   44  C   UNL     1     -10.039   8.659  68.080  1.00  0.00    -0.241 C  
HETATM   45  C   UNL     1      -7.251   6.135  69.242  1.00  0.00    -0.082 C  
ENDROOT
BRANCH  16  46
HETATM   46  C   UNL     1      -7.286  19.018  66.703  1.00  0.00    -0.235 C  
BRANCH  46  47
HETATM   47  C   UNL     1      -5.978  19.807  66.754  1.00  0.00    -0.171 C  
HETATM   48  H   UNL     1      -4.861  20.632  68.140  1.00  0.00     0.000 HD 
HETATM   49  O   UNL     1      -5.675  20.141  68.109  1.00  0.00    -0.211 OA 
BRANCH  47  50
HETATM   50  C   UNL     1      -5.956  21.067  65.870  1.00  0.00    -0.259 C  
HETATM   51  N   UNL     1      -6.851  20.910  64.710  1.00  0.00    -0.532 NA 
HETATM   52  H1  UNL     1      -6.836  21.745  64.124  1.00  0.00     0.000 HD 
HETATM   53  H2  UNL     1      -7.799  20.666  64.995  1.00  0.00     0.000 HD 
ENDBRANCH  47  50
ENDBRANCH  46  47
ENDBRANCH  16  46
BRANCH  18  54
HETATM   54  O   UNL     1      -9.119  17.226  67.449  1.00  0.00    -0.224 OA 
HETATM   55  C   UNL     1     -10.469  17.667  67.334  1.00  0.00    -0.356 C  
ENDBRANCH  18  54
TORSDOF 4
ENDMDL
MODEL       18
REMARK 921   NORMALIZED FREE ENERGY PREDICTED BY IDOCK:   -1.44 KCAL/MOL
REMARK 922        TOTAL FREE ENERGY PREDICTED BY IDOCK:   -1.79 KCAL/MOL
REMARK 923 INTER-LIGAND FREE ENERGY PREDICTED BY IDOCK:   -2.74 KCAL/MOL
REMARK 924 INTRA-LIGAND FREE ENERGY PREDICTED BY IDOCK:    0.96 KCAL/MOL
REMARK 927      BINDING AFFINITY PREDICTED BY RF-SCORE:    0.00 PKD
ROOT
HETATM    1  C   UNL     1      -5.372   7.581  71.557  1.00  0.00    -0.035 C  
HETATM    2  O   UNL     1      -5.133   8.900  71.084  1.00  0.00    -0.028 OA 
HETATM    3  C   UNL     1      -6.213   9.338  70.290  1.00  0.00    -0.048 C  
HETATM    4  C   UNL     1      -6.021  10.696  69.712  1.00  0.00    -0.062 C  
HETATM    5  C   UNL     1      -7.090  10.698  68.635  1.00  0.00    -0.075 C  
HETATM    6  C   UNL     1      -8.600  10.449  69.142  1.00  0.00    -0.164 C  
HETATM    7  C   UNL     1     -10.173  11.178  68.829  1.00  0.00    -0.219 C  
HETATM    8  C   UNL     1     -11.051  12.207  67.741  1.00  0.00    -0.250 C  
HETATM    9  O   UNL     1     -12.087  11.703  67.253  1.00  0.00    -0.595 OA 
HETATM   10  C   UNL     1     -10.952  13.807  67.516  1.00  0.00    -0.285 C  
HETATM   11  C   UNL     1     -10.259  14.798  66.409  1.00  0.00    -0.299 C  
HETATM   12  C   UNL     1      -8.733  15.338  66.248  1.00  0.00    -0.153 C  
HETATM   13  O   UNL     1      -8.855  16.492  65.382  1.00  0.00    -0.143 OA 
HETATM   14  C   UNL     1      -7.693  15.834  67.318  1.00  0.00    -0.232 C  
HETATM   15  C   UNL     1      -6.944  14.864  68.267  1.00  0.00    -0.117 C  
HETATM   16  C   UNL     1     -10.134  17.103  65.557  1.00  0.00     0.034 C  
HETATM   17  O   UNL     1      -8.591  10.167  70.560  1.00  0.00     0.048 OA 
HETATM   18  C   UNL     1     -11.033  16.128  66.354  1.00  0.00    -0.036 C  
HETATM   19  O   UNL     1      -7.030  13.513  67.763  1.00  0.00    -0.127 OA 
HETATM   20  C   UNL     1      -7.534   9.338  71.062  1.00  0.00    -0.064 C  
HETATM   21  O   UNL     1      -8.345   7.069  70.321  1.00  0.00    -0.130 OA 
HETATM   22  C   UNL     1      -8.347  12.909  67.873  1.00  0.00    -0.170 C  
HETATM   23  C   UNL     1      -7.895   7.877  71.433  1.00  0.00    -0.089 C  
HETATM   24  C   UNL     1      -8.615  11.593  66.616  1.00  0.00    -0.179 C  
HETATM   25  C   UNL     1      -6.699   7.383  72.284  1.00  0.00    -0.058 C  
HETATM   26  C   UNL     1      -8.849  13.223  69.397  1.00  0.00     1.124 C  
HETATM   27  O   UNL     1      -6.272   6.563  69.367  1.00  0.00    -0.031 OA 
HETATM   28  C   UNL     1      -8.850  14.704  69.800  1.00  0.00     0.458 C  
HETATM   29  C   UNL     1      -5.420   6.419  70.558  1.00  0.00    -0.018 C  
HETATM   30  O   UNL     1      -6.757   5.991  72.556  1.00  0.00    -0.066 OA 
HETATM   31  C   UNL     1      -9.655  10.239  66.273  1.00  0.00    -0.238 C  
HETATM   32  C   UNL     1      -9.667   8.729  66.903  1.00  0.00    -0.210 C  
HETATM   33  C   UNL     1      -6.101   5.360  71.439  1.00  0.00    -0.033 C  
HETATM   34  C   UNL     1      -7.407  14.994  69.721  1.00  0.00    -0.132 C  
HETATM   35  C   UNL     1      -9.685  14.965  71.071  1.00  0.00     1.868 C  
HETATM   36  C   UNL     1      -7.211   4.832  70.572  1.00  0.00    -0.049 C  
HETATM   37  O   UNL     1      -9.825   7.762  65.801  1.00  0.00     0.243 OA 
HETATM   38  C   UNL     1      -6.664  15.220  70.818  1.00  0.00     0.532 C  
HETATM   39  C   UNL     1     -10.081   6.483  66.466  1.00  0.00    -0.079 C  
HETATM   40  C   UNL     1     -11.249   6.844  67.337  1.00  0.00    -0.217 C  
HETATM   41  C   UNL     1      -8.704   5.962  67.063  1.00  0.00    -0.109 C  
HETATM   42  C   UNL     1      -8.460   5.402  68.502  1.00  0.00    -0.096 C  
HETATM   43  C   UNL     1     -10.672   8.075  67.949  1.00  0.00    -0.139 C  
HETATM   44  C   UNL     1     -10.875   8.144  69.280  1.00  0.00    -0.064 C  
HETATM   45  C   UNL     1      -7.568   6.047  69.688  1.00  0.00    -0.089 C  
ENDROOT
BRANCH  16  46
HETATM   46  C   UNL     1     -10.016  18.477  66.236  1.00  0.00    -0.384 C  
BRANCH  46  47
HETATM   47  C   UNL     1      -8.727  18.780  66.999  1.00  0.00    -0.283 C  
HETATM   48  H   UNL     1      -8.241  19.622  68.703  1.00  0.00     0.000 HD 
HETATM   49  O   UNL     1      -9.043  19.434  68.228  1.00  0.00    -0.323 OA 
BRANCH  47  50
HETATM   50  C   UNL     1      -7.690  19.594  66.205  1.00  0.00    -0.315 C  
HETATM   51  N   UNL     1      -6.991  18.742  65.227  1.00  0.00    -0.508 NA 
HETATM   52  H1  UNL     1      -6.303  19.282  64.701  1.00  0.00     0.000 HD 
HETATM   53  H2  UNL     1      -7.645  18.262  64.609  1.00  0.00     0.000 HD 
ENDBRANCH  47  50
ENDBRANCH  46  47
ENDBRANCH  16  46
BRANCH  18  54
HETATM   54  O   UNL     1     -11.286  16.623  67.677  1.00  0.00    -0.177 OA 
HETATM   55  C   UNL     1     -12.121  15.799  68.486  1.00  0.00     0.064 C  
ENDBRANCH  18  54
TORSDOF 4
ENDMDL
MODEL       19
REMARK 921   NORMALIZED FREE ENERGY PREDICTED BY IDOCK:   -0.40 KCAL/MOL
REMARK 922        TOTAL FREE ENERGY PREDICTED BY IDOCK:   -0.51 KCAL/MOL
REMARK 923 INTER-LIGAND FREE ENERGY PREDICTED BY IDOCK:   -0.96 KCAL/MOL
REMARK 924 INTRA-LIGAND FREE ENERGY PREDICTED BY IDOCK:    0.45 KCAL/MOL
REMARK 927      BINDING AFFINITY PREDICTED BY RF-SCORE:    0.00 PKD
ROOT
HETATM    1  C   UNL     1      -6.111   7.349  72.110  1.00  0.00    -0.040 C  
HETATM    2  O   UNL     1      -6.174   8.751  71.886  1.00  0.00    -0.067 OA 
HETATM    3  C   UNL     1      -6.755   9.020  70.630  1.00  0.00    -0.064 C  
HETATM    4  C   UNL     1      -6.814  10.468  70.293  1.00  0.00    -0.097 C  
HETATM    5  C   UNL     1      -7.077  10.400  68.800  1.00  0.00    -0.074 C  
HETATM    6  C   UNL     1      -8.406   9.607  68.355  1.00  0.00    -0.117 C  
HETATM    7  C   UNL     1      -9.725   9.889  67.221  1.00  0.00    -0.213 C  
HETATM    8  C   UNL     1     -10.218  10.832  65.849  1.00  0.00    -0.259 C  
HETATM    9  O   UNL     1     -10.571  10.171  64.848  1.00  0.00    -0.014 OA 
HETATM   10  C   UNL     1     -10.623  12.397  65.756  1.00  0.00    -0.288 C  
HETATM   11  C   UNL     1      -9.886  13.775  65.261  1.00  0.00    -0.155 C  
HETATM   12  C   UNL     1      -8.832  14.764  66.007  1.00  0.00     0.271 C  
HETATM   13  O   UNL     1      -8.907  15.996  65.251  1.00  0.00     0.223 OA 
HETATM   14  C   UNL     1      -8.775  15.287  67.488  1.00  0.00    -0.189 C  
HETATM   15  C   UNL     1      -8.330  14.391  68.673  1.00  0.00    -0.147 C  
HETATM   16  C   UNL     1     -10.209  16.144  64.682  1.00  0.00     0.886 C  
HETATM   17  O   UNL     1      -9.031   9.023  69.520  1.00  0.00    -0.139 OA 
HETATM   18  C   UNL     1     -10.949  14.791  64.806  1.00  0.00    -0.379 C  
HETATM   19  O   UNL     1      -7.629  13.229  68.179  1.00  0.00    -0.116 OA 
HETATM   20  C   UNL     1      -8.170   8.452  70.515  1.00  0.00    -0.113 C  
HETATM   21  O   UNL     1      -7.560   6.277  69.394  1.00  0.00    -0.094 OA 
HETATM   22  C   UNL     1      -8.472  12.254  67.509  1.00  0.00    -0.172 C  
HETATM   23  C   UNL     1      -8.094   6.905  70.582  1.00  0.00    -0.118 C  
HETATM   24  C   UNL     1      -7.533  11.243  66.293  1.00  0.00    -0.010 C  
HETATM   25  C   UNL     1      -7.433   6.606  71.951  1.00  0.00    -0.091 C  
HETATM   26  C   UNL     1      -9.767  12.047  68.485  1.00  0.00    -0.165 C  
HETATM   27  O   UNL     1      -5.282   6.641  69.775  1.00  0.00    -0.013 OA 
HETATM   28  C   UNL     1     -10.531  13.327  68.848  1.00  0.00    -0.123 C  
HETATM   29  C   UNL     1      -5.193   6.486  71.235  1.00  0.00    -0.026 C  
HETATM   30  O   UNL     1      -7.099   5.235  72.111  1.00  0.00    -0.079 OA 
HETATM   31  C   UNL     1      -7.647   9.758  65.389  1.00  0.00    -0.121 C  
HETATM   32  C   UNL     1      -7.420   8.209  65.868  1.00  0.00    -0.080 C  
HETATM   33  C   UNL     1      -5.779   5.101  71.550  1.00  0.00    -0.016 C  
HETATM   34  C   UNL     1      -9.490  14.041  69.610  1.00  0.00     0.893 C  
HETATM   35  C   UNL     1     -11.930  13.030  69.426  1.00  0.00    -0.338 C  
HETATM   36  C   UNL     1      -5.983   4.482  70.194  1.00  0.00    -0.017 C  
HETATM   37  O   UNL     1      -6.607   7.518  64.849  1.00  0.00    -0.046 OA 
HETATM   38  C   UNL     1      -9.574  14.219  70.939  1.00  0.00     3.415 C  
HETATM   39  C   UNL     1      -6.670   6.105  65.223  1.00  0.00    -0.047 C  
HETATM   40  C   UNL     1      -8.155   5.893  65.284  1.00  0.00    -0.133 C  
HETATM   41  C   UNL     1      -5.729   5.892  66.484  1.00  0.00    -0.017 C  
HETATM   42  C   UNL     1      -6.079   5.115  67.794  1.00  0.00    -0.023 C  
HETATM   43  C   UNL     1      -8.490   7.066  66.144  1.00  0.00    -0.136 C  
HETATM   44  C   UNL     1      -9.364   6.764  67.125  1.00  0.00    -0.154 C  
HETATM   45  C   UNL     1      -6.252   5.705  69.292  1.00  0.00    -0.029 C  
ENDROOT
BRANCH  16  46
HETATM   46  C   UNL     1     -10.985  17.298  65.338  1.00  0.00     0.078 C  
BRANCH  46  47
HETATM   47  C   UNL     1     -10.197  18.271  66.214  1.00  0.00    -0.401 C  
HETATM   48  H   UNL     1      -9.734  18.426  68.115  1.00  0.00     0.000 HD 
HETATM   49  O   UNL     1     -10.224  17.821  67.570  1.00  0.00    -0.325 OA 
BRANCH  47  50
HETATM   50  C   UNL     1     -10.661  19.735  66.123  1.00  0.00    -0.464 C  
HETATM   51  N   UNL     1      -9.545  20.657  66.401  1.00  0.00    -0.631 NA 
HETATM   52  H1  UNL     1      -9.853  21.628  66.340  1.00  0.00     0.000 HD 
HETATM   53  H2  UNL     1      -8.746  20.477  65.794  1.00  0.00     0.000 HD 
ENDBRANCH  47  50
ENDBRANCH  46  47
ENDBRANCH  16  46
BRANCH  18  54
HETATM   54  O   UNL     1     -12.016  14.872  65.762  1.00  0.00    -0.211 OA 
HETATM   55  C   UNL     1     -13.123  14.009  65.514  1.00  0.00    -0.178 C  
ENDBRANCH  18  54
TORSDOF 4
ENDMDL
MODEL       20
REMARK 921   NORMALIZED FREE ENERGY PREDICTED BY IDOCK:    0.04 KCAL/MOL
REMARK 922        TOTAL FREE ENERGY PREDICTED BY IDOCK:    0.04 KCAL/MOL
REMARK 923 INTER-LIGAND FREE ENERGY PREDICTED BY IDOCK:   -0.91 KCAL/MOL
REMARK 924 INTRA-LIGAND FREE ENERGY PREDICTED BY IDOCK:    0.95 KCAL/MOL
REMARK 927      BINDING AFFINITY PREDICTED BY RF-SCORE:    0.00 PKD
ROOT
HETATM    1  C   UNL     1      -5.700  17.531  70.140  1.00  0.00    -0.230 C  
HETATM    2  O   UNL     1      -5.839  16.185  70.576  1.00  0.00    -0.118 OA 
HETATM    3  C   UNL     1      -6.737  15.490  69.738  1.00  0.00    -0.157 C  
HETATM    4  C   UNL     1      -6.978  14.082  70.154  1.00  0.00     0.284 C  
HETATM    5  C   UNL     1      -8.232  13.764  69.360  1.00  0.00     0.623 C  
HETATM    6  C   UNL     1      -8.112  13.925  67.762  1.00  0.00    -0.172 C  
HETATM    7  C   UNL     1      -8.594  12.976  66.357  1.00  0.00     0.257 C  
HETATM    8  C   UNL     1      -9.613  11.676  65.825  1.00  0.00    -0.232 C  
HETATM    9  O   UNL     1     -10.398  11.961  64.894  1.00  0.00    -0.265 OA 
HETATM   10  C   UNL     1      -9.487  10.083  66.089  1.00  0.00    -0.242 C  
HETATM   11  C   UNL     1     -10.203   8.996  67.085  1.00  0.00    -0.334 C  
HETATM   12  C   UNL     1      -9.930   8.614  68.642  1.00  0.00    -0.183 C  
HETATM   13  O   UNL     1     -10.553   7.317  68.803  1.00  0.00    -0.204 OA 
HETATM   14  C   UNL     1      -8.590   8.440  69.444  1.00  0.00    -0.129 C  
HETATM   15  C   UNL     1      -7.719   9.644  69.887  1.00  0.00    -0.144 C  
HETATM   16  C   UNL     1     -10.531   6.605  67.566  1.00  0.00    -0.239 C  
HETATM   17  O   UNL     1      -6.809  14.456  67.428  1.00  0.00    -0.222 OA 
HETATM   18  C   UNL     1     -10.151   7.598  66.441  1.00  0.00    -0.027 C  
HETATM   19  O   UNL     1      -8.490  10.864  69.820  1.00  0.00     0.202 OA 
HETATM   20  C   UNL     1      -6.274  15.477  68.281  1.00  0.00    -0.119 C  
HETATM   21  O   UNL     1      -7.607  17.469  67.497  1.00  0.00    -0.191 OA 
HETATM   22  C   UNL     1      -8.781  11.323  68.473  1.00  0.00    -0.156 C  
HETATM   23  C   UNL     1      -6.287  16.931  67.740  1.00  0.00    -0.144 C  
HETATM   24  C   UNL     1     -10.303  12.352  68.403  1.00  0.00    -0.236 C  
HETATM   25  C   UNL     1      -5.322  17.703  68.673  1.00  0.00    -0.151 C  
HETATM   26  C   UNL     1      -7.364  11.232  67.661  1.00  0.00    -0.100 C  
HETATM   27  O   UNL     1      -8.189  18.029  69.691  1.00  0.00     0.521 OA 
HETATM   28  C   UNL     1      -6.682   9.857  67.676  1.00  0.00    -0.073 C  
HETATM   29  C   UNL     1      -6.900  18.482  70.238  1.00  0.00     0.802 C  
HETATM   30  O   UNL     1      -5.352  19.105  68.454  1.00  0.00    -0.186 OA 
HETATM   31  C   UNL     1     -11.121  13.494  67.373  1.00  0.00    -0.300 C  
HETATM   32  C   UNL     1     -10.822  15.082  67.109  1.00  0.00    -0.314 C  
HETATM   33  C   UNL     1      -6.410  19.596  69.299  1.00  0.00    -0.313 C  
HETATM   34  C   UNL     1      -6.398   9.725  69.117  1.00  0.00    -0.040 C  
HETATM   35  C   UNL     1      -5.588   9.735  66.595  1.00  0.00    -0.046 C  
HETATM   36  C   UNL     1      -7.579  19.829  68.380  1.00  0.00    -0.336 C  
HETATM   37  O   UNL     1     -12.104  15.811  67.136  1.00  0.00     0.495 OA 
HETATM   38  C   UNL     1      -5.148   9.787  69.605  1.00  0.00    -0.034 C  
HETATM   39  C   UNL     1     -11.778  17.150  66.645  1.00  0.00     1.841 C  
HETATM   40  C   UNL     1     -11.116  16.821  65.339  1.00  0.00     0.054 C  
HETATM   41  C   UNL     1     -11.023  17.924  67.808  1.00  0.00    -0.097 C  
HETATM   42  C   UNL     1      -9.707  18.758  67.679  1.00  0.00    -0.347 C  
HETATM   43  C   UNL     1     -10.162  15.793  65.849  1.00  0.00    -0.377 C  
HETATM   44  C   UNL     1      -8.917  15.942  65.355  1.00  0.00     0.801 C  
HETATM   45  C   UNL     1      -8.255  18.442  68.322  1.00  0.00    -0.299 C  
ENDROOT
BRANCH  16  46
HETATM   46  C   UNL     1      -9.581   5.397  67.625  1.00  0.00    -0.142 C  
BRANCH  46  47
HETATM   47  C   UNL     1      -9.626   4.525  68.879  1.00  0.00    -0.166 C  
HETATM   48  H   UNL     1     -10.935   4.102  70.277  1.00  0.00     0.000 HD 
HETATM   49  O   UNL     1     -10.908   4.644  69.497  1.00  0.00     0.580 OA 
BRANCH  47  50
HETATM   50  C   UNL     1      -8.508   4.811  69.897  1.00  0.00    -0.074 C  
HETATM   51  N   UNL     1      -7.806   3.569  70.268  1.00  0.00    -0.047 NA 
HETATM   52  H1  UNL     1      -7.065   3.758  70.943  1.00  0.00     0.000 HD 
HETATM   53  H2  UNL     1      -7.452   3.077  69.448  1.00  0.00     0.000 HD 
ENDBRANCH  47  50
ENDBRANCH  46  47
ENDBRANCH  16  46
BRANCH  18  54
HETATM   54  O   UNL     1      -8.838   7.322  65.931  1.00  0.00    -0.158 OA 
HETATM   55  C   UNL     1      -8.708   6.098  65.214  1.00  0.00    -0.024 C  
ENDBRANCH  18  54
TORSDOF 4
ENDMDL
MODEL       21
REMARK 921   NORMALIZED FREE ENERGY PREDICTED BY IDOCK:    0.36 KCAL/MOL
REMARK 922        TOTAL FREE ENERGY PREDICTED BY IDOCK:    0.43 KCAL/MOL
REMARK 923 INTER-LIGAND FREE ENERGY PREDICTED BY IDOCK:   -0.73 KCAL/MOL
REMARK 924 INTRA-LIGAND FREE ENERGY PREDICTED BY IDOCK:    1.16 KCAL/MOL
REMARK 927      BINDING AFFINITY PREDICTED BY RF-SCORE:    0.00 PKD
ROOT
HETATM    1  C   UNL     1     -12.211  14.029  71.221  1.00  0.00    -0.310 C  
HETATM    2  O   UNL     1     -12.199  12.621  71.410  1.00  0.00    -0.081 OA 
HETATM    3  C   UNL     1     -11.603  11.984  70.301  1.00  0.00    -0.046 C  
HETATM    4  C   UNL     1     -11.595  10.499  70.395  1.00  0.00    -0.430 C  
HETATM    5  C   UNL     1     -11.298  10.127  68.954  1.00  0.00    -0.176 C  
HETATM    6  C   UNL     1      -9.928  10.716  68.343  1.00  0.00    -0.163 C  
HETATM    7  C   UNL     1      -8.598  10.078  67.379  1.00  0.00    -0.125 C  
HETATM    8  C   UNL     1      -8.113   8.766  66.351  1.00  0.00    -0.103 C  
HETATM    9  O   UNL     1      -7.713   9.101  65.215  1.00  0.00    -0.096 OA 
HETATM   10  C   UNL     1      -7.770   7.228  66.722  1.00  0.00    -0.109 C  
HETATM   11  C   UNL     1      -8.552   5.791  66.618  1.00  0.00    -0.118 C  
HETATM   12  C   UNL     1      -9.660   5.091  67.581  1.00  0.00    -0.146 C  
HETATM   13  O   UNL     1      -9.619   3.692  67.211  1.00  0.00    -0.209 OA 
HETATM   14  C   UNL     1      -9.770   5.017  69.147  1.00  0.00    -0.243 C  
HETATM   15  C   UNL     1     -10.203   6.229  70.012  1.00  0.00    -0.188 C  
HETATM   16  C   UNL     1      -8.312   3.345  66.751  1.00  0.00    -0.101 C  
HETATM   17  O   UNL     1      -9.305  11.589  69.312  1.00  0.00     0.135 OA 
HETATM   18  C   UNL     1      -7.521   4.652  66.506  1.00  0.00    -0.082 C  
HETATM   19  O   UNL     1     -10.846   7.223  69.185  1.00  0.00    -0.208 OA 
HETATM   20  C   UNL     1     -10.163  12.449  70.075  1.00  0.00     2.078 C  
HETATM   21  O   UNL     1     -10.662  14.230  68.360  1.00  0.00    -0.238 OA 
HETATM   22  C   UNL     1      -9.951   7.937  68.291  1.00  0.00    -0.180 C  
HETATM   23  C   UNL     1     -10.178  13.952  69.694  1.00  0.00     0.538 C  
HETATM   24  C   UNL     1     -10.822   8.587  66.808  1.00  0.00     0.132 C  
HETATM   25  C   UNL     1     -10.856  14.652  70.899  1.00  0.00     0.356 C  
HETATM   26  C   UNL     1      -8.669   8.373  69.208  1.00  0.00    -0.138 C  
HETATM   27  O   UNL     1     -12.959  14.065  68.756  1.00  0.00     0.834 OA 
HETATM   28  C   UNL     1      -7.965   7.227  69.947  1.00  0.00    -0.122 C  
HETATM   29  C   UNL     1     -13.074  14.634  70.107  1.00  0.00     0.105 C  
HETATM   30  O   UNL     1     -11.138  16.021  70.650  1.00  0.00    -0.348 OA 
HETATM   31  C   UNL     1     -10.629   9.746  65.522  1.00  0.00     0.475 C  
HETATM   32  C   UNL     1     -10.804  11.373  65.530  1.00  0.00    -0.220 C  
HETATM   33  C   UNL     1     -12.439  16.032  70.032  1.00  0.00     0.178 C  
HETATM   34  C   UNL     1      -9.051   6.795  70.847  1.00  0.00    -0.153 C  
HETATM   35  C   UNL     1      -6.568   7.632  70.460  1.00  0.00    -0.038 C  
HETATM   36  C   UNL     1     -12.181  16.229  68.563  1.00  0.00     0.699 C  
HETATM   37  O   UNL     1     -11.567  11.769  64.331  1.00  0.00    -0.313 OA 
HETATM   38  C   UNL     1      -9.002   7.003  72.173  1.00  0.00    -0.140 C  
HETATM   39  C   UNL     1     -11.454  13.228  64.287  1.00  0.00    -0.396 C  
HETATM   40  C   UNL     1      -9.964  13.400  64.333  1.00  0.00     0.038 C  
HETATM   41  C   UNL     1     -12.413  13.823  65.404  1.00  0.00    -0.532 C  
HETATM   42  C   UNL     1     -12.060  14.932  66.449  1.00  0.00     0.002 C  
HETATM   43  C   UNL     1      -9.694  12.512  65.502  1.00  0.00    -0.133 C  
HETATM   44  C   UNL     1      -8.831  13.054  66.383  1.00  0.00     0.083 C  
HETATM   45  C   UNL     1     -11.943  14.790  68.057  1.00  0.00    -0.227 C  
ENDROOT
BRANCH  16  46
HETATM   46  C   UNL     1      -7.597   2.404  67.733  1.00  0.00    -0.056 C  
BRANCH  46  47
HETATM   47  C   UNL     1      -8.468   1.555  68.658  1.00  0.00    -0.054 C  
HETATM   48  H   UNL     1     -10.356   1.503  69.191  1.00  0.00     0.000 HD 
HETATM   49  O   UNL     1      -9.814   2.031  68.616  1.00  0.00    -0.033 OA 
BRANCH  47  50
HETATM   50  C   UNL     1      -7.970   1.475  70.112  1.00  0.00    -0.041 C  
HETATM   51  N   UNL     1      -7.500   2.791  70.579  1.00  0.00    -0.040 NA 
HETATM   52  H1  UNL     1      -7.170   2.738  71.543  1.00  0.00     0.000 HD 
HETATM   53  H2  UNL     1      -8.215   3.509  70.465  1.00  0.00     0.000 HD 
ENDBRANCH  47  50
ENDBRANCH  46  47
ENDBRANCH  16  46
BRANCH  18  54
HETATM   54  O   UNL     1      -6.478   4.815  67.480  1.00  0.00    -0.043 OA 
HETATM   55  C   UNL     1      -5.165   4.959  66.947  1.00  0.00    -0.008 C  
ENDBRANCH  18  54
TORSDOF 4
ENDMDL
MODEL       22
REMARK 921   NORMALIZED FREE ENERGY PREDICTED BY IDOCK:    0.46 KCAL/MOL
REMARK 922        TOTAL FREE ENERGY PREDICTED BY IDOCK:    0.56 KCAL/MOL
REMARK 923 INTER-LIGAND FREE ENERGY PREDICTED BY IDOCK:    0.84 KCAL/MOL
REMARK 924 INTRA-LIGAND FREE ENERGY PREDICTED BY IDOCK:   -0.28 KCAL/MOL
REMARK 927      BINDING AFFINITY PREDICTED BY RF-SCORE:    0.00 PKD
ROOT
HETATM    1  C   UNL     1     -10.972  19.201  65.832  1.00  0.00    -0.054 C  
HETATM    2  O   UNL     1     -11.055  17.973  65.121  1.00  0.00    -0.543 OA 
HETATM    3  C   UNL     1     -10.340  16.965  65.800  1.00  0.00    -0.283 C  
HETATM    4  C   UNL     1     -10.335  15.654  65.096  1.00  0.00    -0.366 C  
HETATM    5  C   UNL     1      -9.201  14.951  65.817  1.00  0.00     0.006 C  
HETATM    6  C   UNL     1      -9.370  14.795  67.412  1.00  0.00    -0.197 C  
HETATM    7  C   UNL     1      -9.137  13.503  68.587  1.00  0.00    -0.008 C  
HETATM    8  C   UNL     1      -8.397  11.953  68.840  1.00  0.00     0.116 C  
HETATM    9  O   UNL     1      -7.621  11.888  69.819  1.00  0.00     0.493 OA 
HETATM   10  C   UNL     1      -8.793  10.502  68.241  1.00  0.00    -0.139 C  
HETATM   11  C   UNL     1      -8.235   9.532  67.044  1.00  0.00    -0.113 C  
HETATM   12  C   UNL     1      -8.493   9.539  65.438  1.00  0.00    -0.148 C  
HETATM   13  O   UNL     1      -8.106   8.212  65.010  1.00  0.00    -0.140 OA 
HETATM   14  C   UNL     1      -9.801   9.789  64.602  1.00  0.00    -0.061 C  
HETATM   15  C   UNL     1     -10.418  11.199  64.418  1.00  0.00    -0.353 C  
HETATM   16  C   UNL     1      -8.319   7.274  66.067  1.00  0.00    -0.140 C  
HETATM   17  O   UNL     1     -10.571  15.478  67.837  1.00  0.00    -0.260 OA 
HETATM   18  C   UNL     1      -8.569   8.065  67.373  1.00  0.00    -0.125 C  
HETATM   19  O   UNL     1      -9.445  12.213  64.752  1.00  0.00    -0.023 OA 
HETATM   20  C   UNL     1     -10.871  16.736  67.217  1.00  0.00    -0.137 C  
HETATM   21  O   UNL     1      -9.242  18.237  68.422  1.00  0.00    -0.301 OA 
HETATM   22  C   UNL     1      -9.144  12.320  66.169  1.00  0.00    -0.074 C  
HETATM   23  C   UNL     1     -10.623  18.017  68.055  1.00  0.00    -0.347 C  
HETATM   24  C   UNL     1      -7.467  13.010  66.474  1.00  0.00     1.118 C  
HETATM   25  C   UNL     1     -11.386  19.132  67.298  1.00  0.00     0.383 C  
HETATM   26  C   UNL     1     -10.593  12.328  66.927  1.00  0.00    -0.249 C  
HETATM   27  O   UNL     1      -8.460  19.123  66.405  1.00  0.00    -0.303 OA 
HETATM   28  C   UNL     1     -11.509  11.137  66.612  1.00  0.00     0.058 C  
HETATM   29  C   UNL     1      -9.618  19.911  65.953  1.00  0.00    -0.257 C  
HETATM   30  O   UNL     1     -11.116  20.427  67.811  1.00  0.00     0.310 OA 
HETATM   31  C   UNL     1      -6.510  13.740  67.733  1.00  0.00    -0.178 C  
HETATM   32  C   UNL     1      -6.532  15.265  68.326  1.00  0.00    -0.112 C  
HETATM   33  C   UNL     1      -9.945  20.877  67.103  1.00  0.00    -0.008 C  
HETATM   34  C   UNL     1     -11.740  11.363  65.173  1.00  0.00     0.223 C  
HETATM   35  C   UNL     1     -12.661  10.999  67.629  1.00  0.00     2.997 C  
HETATM   36  C   UNL     1      -8.802  20.692  68.063  1.00  0.00     0.086 C  
HETATM   37  O   UNL     1      -5.140  15.732  68.470  1.00  0.00    -0.086 OA 
HETATM   38  C   UNL     1     -12.933  11.756  64.695  1.00  0.00     0.848 C  
HETATM   39  C   UNL     1      -5.245  16.977  69.232  1.00  0.00    -0.135 C  
HETATM   40  C   UNL     1      -6.020  16.513  70.430  1.00  0.00     0.044 C  
HETATM   41  C   UNL     1      -5.789  18.103  68.252  1.00  0.00    -0.170 C  
HETATM   42  C   UNL     1      -6.939  19.122  68.542  1.00  0.00    -0.318 C  
HETATM   43  C   UNL     1      -7.116  15.810  69.702  1.00  0.00    -0.150 C  
HETATM   44  C   UNL     1      -8.337  16.081  70.203  1.00  0.00     1.141 C  
HETATM   45  C   UNL     1      -8.389  19.223  67.831  1.00  0.00    -0.303 C  
ENDROOT
BRANCH  16  46
HETATM   46  C   UNL     1      -9.466   6.304  65.741  1.00  0.00     0.135 C  
BRANCH  46  47
HETATM   47  C   UNL     1      -9.090   4.885  65.316  1.00  0.00    -0.153 C  
HETATM   48  H   UNL     1      -7.736   3.556  65.816  1.00  0.00     0.000 HD 
HETATM   49  O   UNL     1      -7.969   4.439  66.081  1.00  0.00    -0.098 OA 
BRANCH  47  50
HETATM   50  C   UNL     1      -8.815   4.719  63.811  1.00  0.00    -0.106 C  
HETATM   51  N   UNL     1     -10.035   4.298  63.098  1.00  0.00    -0.338 NA 
HETATM   52  H1  UNL     1      -9.853   4.188  62.100  1.00  0.00     0.000 HD 
HETATM   53  H2  UNL     1     -10.812   4.935  63.271  1.00  0.00     0.000 HD 
ENDBRANCH  47  50
ENDBRANCH  46  47
ENDBRANCH  16  46
BRANCH  18  54
HETATM   54  O   UNL     1      -9.935   7.939  67.799  1.00  0.00    -0.155 OA 
HETATM   55  C   UNL     1     -10.128   7.245  69.028  1.00  0.00    -0.186 C  
ENDBRANCH  18  54
TORSDOF 4
ENDMDL
MODEL       23
REMARK 921   NORMALIZED FREE ENERGY PREDICTED BY IDOCK:    0.56 KCAL/MOL
REMARK 922        TOTAL FREE ENERGY PREDICTED BY IDOCK:    0.68 KCAL/MOL
REMARK 923 INTER-LIGAND FREE ENERGY PREDICTED BY IDOCK:    1.01 KCAL/MOL
REMARK 924 INTRA-LIGAND FREE ENERGY PREDICTED BY IDOCK:   -0.33 KCAL/MOL
REMARK 927      BINDING AFFINITY PREDICTED BY RF-SCORE:    0.00 PKD
ROOT
HETATM    1  C   UNL     1     -13.577  13.225  71.535  1.00  0.00    -0.078 C  
HETATM    2  O   UNL     1     -13.621  11.875  71.094  1.00  0.00     0.363 OA 
HETATM    3  C   UNL     1     -12.600  11.634  70.152  1.00  0.00    -0.033 C  
HETATM    4  C   UNL     1     -12.606  10.252  69.599  1.00  0.00     0.238 C  
HETATM    5  C   UNL     1     -11.718  10.432  68.381  1.00  0.00     0.001 C  
HETATM    6  C   UNL     1     -10.230  10.976  68.669  1.00  0.00    -0.199 C  
HETATM    7  C   UNL     1      -8.605  10.556  68.132  1.00  0.00    -0.123 C  
HETATM    8  C   UNL     1      -7.707   9.691  66.924  1.00  0.00    -0.098 C  
HETATM    9  O   UNL     1      -6.867  10.373  66.296  1.00  0.00    -0.102 OA 
HETATM   10  C   UNL     1      -7.526   8.097  66.706  1.00  0.00    -0.090 C  
HETATM   11  C   UNL     1      -8.164   6.967  65.704  1.00  0.00    -0.134 C  
HETATM   12  C   UNL     1      -9.564   6.141  65.759  1.00  0.00     0.220 C  
HETATM   13  O   UNL     1      -9.345   5.013  64.878  1.00  0.00    -0.103 OA 
HETATM   14  C   UNL     1     -10.327   5.478  66.963  1.00  0.00    -0.306 C  
HETATM   15  C   UNL     1     -11.108   6.308  68.014  1.00  0.00    -0.265 C  
HETATM   16  C   UNL     1      -7.960   4.663  64.866  1.00  0.00    -0.099 C  
HETATM   17  O   UNL     1     -10.093  11.282  70.075  1.00  0.00     0.569 OA 
HETATM   18  C   UNL     1      -7.163   5.809  65.531  1.00  0.00    -0.074 C  
HETATM   19  O   UNL     1     -11.356   7.638  67.511  1.00  0.00     0.231 OA 
HETATM   20  C   UNL     1     -11.209  11.904  70.727  1.00  0.00     1.530 C  
HETATM   21  O   UNL     1     -10.963  14.270  69.891  1.00  0.00    -0.148 OA 
HETATM   22  C   UNL     1     -10.179   8.486  67.435  1.00  0.00    -0.261 C  
HETATM   23  C   UNL     1     -11.087  13.416  71.051  1.00  0.00     2.280 C  
HETATM   24  C   UNL     1     -10.349   9.800  66.161  1.00  0.00    -0.215 C  
HETATM   25  C   UNL     1     -12.225  13.690  72.066  1.00  0.00     0.345 C  
HETATM   26  C   UNL     1      -9.416   8.308  68.871  1.00  0.00    -0.151 C  
HETATM   27  O   UNL     1     -13.208  14.348  69.245  1.00  0.00     0.941 OA 
HETATM   28  C   UNL     1      -9.072   6.864  69.261  1.00  0.00    -0.140 C  
HETATM   29  C   UNL     1     -13.896  14.352  70.546  1.00  0.00     0.626 C  
HETATM   30  O   UNL     1     -12.399  15.072  72.336  1.00  0.00    -0.326 OA 
HETATM   31  C   UNL     1      -9.649  11.321  65.680  1.00  0.00    -0.260 C  
HETATM   32  C   UNL     1      -9.840  12.819  66.311  1.00  0.00    -0.267 C  
HETATM   33  C   UNL     1     -13.314  15.541  71.327  1.00  0.00    -0.511 C  
HETATM   34  C   UNL     1     -10.429   6.301  69.387  1.00  0.00    -0.298 C  
HETATM   35  C   UNL     1      -8.033   6.797  70.398  1.00  0.00    -0.115 C  
HETATM   36  C   UNL     1     -12.460  16.253  70.313  1.00  0.00     0.645 C  
HETATM   37  O   UNL     1     -10.028  13.774  65.202  1.00  0.00    -0.297 OA 
HETATM   38  C   UNL     1     -10.952   5.961  70.577  1.00  0.00    -0.362 C  
HETATM   39  C   UNL     1      -9.934  15.093  65.831  1.00  0.00    -0.328 C  
HETATM   40  C   UNL     1      -8.607  14.982  66.525  1.00  0.00    -0.179 C  
HETATM   41  C   UNL     1     -11.286  15.353  66.621  1.00  0.00    -0.103 C  
HETATM   42  C   UNL     1     -11.430  15.887  68.083  1.00  0.00    -0.281 C  
HETATM   43  C   UNL     1      -8.844  13.676  67.206  1.00  0.00    -0.227 C  
HETATM   44  C   UNL     1      -8.446  13.677  68.494  1.00  0.00    -0.106 C  
HETATM   45  C   UNL     1     -12.004  15.109  69.381  1.00  0.00    -0.307 C  
ENDROOT
BRANCH  16  46
HETATM   46  C   UNL     1      -7.714   3.307  65.547  1.00  0.00    -0.081 C  
BRANCH  46  47
HETATM   47  C   UNL     1      -7.213   2.158  64.671  1.00  0.00    -0.054 C  
HETATM   48  H   UNL     1      -5.594   1.750  63.641  1.00  0.00     0.000 HD 
HETATM   49  O   UNL     1      -5.905   2.464  64.185  1.00  0.00    -0.012 OA 
BRANCH  47  50
HETATM   50  C   UNL     1      -8.147   1.786  63.507  1.00  0.00    -0.061 C  
HETATM   51  N   UNL     1      -9.545   1.691  63.965  1.00  0.00    -0.129 NA 
HETATM   52  H1  UNL     1     -10.164   1.444  63.193  1.00  0.00     0.000 HD 
HETATM   53  H2  UNL     1      -9.847   2.545  64.433  1.00  0.00     0.000 HD 
ENDBRANCH  47  50
ENDBRANCH  46  47
ENDBRANCH  16  46
BRANCH  18  54
HETATM   54  O   UNL     1      -6.636   5.401  66.803  1.00  0.00    -0.052 OA 
HETATM   55  C   UNL     1      -5.236   5.604  66.974  1.00  0.00    -0.005 C  
ENDBRANCH  18  54
TORSDOF 4
ENDMDL
MODEL       24
REMARK 921   NORMALIZED FREE ENERGY PREDICTED BY IDOCK:    0.65 KCAL/MOL
REMARK 922        TOTAL FREE ENERGY PREDICTED BY IDOCK:    0.78 KCAL/MOL
REMARK 923 INTER-LIGAND FREE ENERGY PREDICTED BY IDOCK:    0.27 KCAL/MOL
REMARK 924 INTRA-LIGAND FREE ENERGY PREDICTED BY IDOCK:    0.51 KCAL/MOL
REMARK 927      BINDING AFFINITY PREDICTED BY RF-SCORE:    0.00 PKD
ROOT
HETATM    1  C   UNL     1      -5.458   5.689  70.061  1.00  0.00    -0.005 C  
HETATM    2  O   UNL     1      -5.434   6.737  69.102  1.00  0.00    -0.013 OA 
HETATM    3  C   UNL     1      -6.606   7.516  69.199  1.00  0.00    -0.040 C  
HETATM    4  C   UNL     1      -6.686   8.610  68.194  1.00  0.00    -0.065 C  
HETATM    5  C   UNL     1      -8.159   8.964  68.278  1.00  0.00    -0.109 C  
HETATM    6  C   UNL     1      -8.691   9.419  69.730  1.00  0.00    -0.181 C  
HETATM    7  C   UNL     1      -9.716  10.710  70.351  1.00  0.00     1.035 C  
HETATM    8  C   UNL     1     -10.887  11.911  69.903  1.00  0.00     0.461 C  
HETATM    9  O   UNL     1     -11.975  11.847  70.517  1.00  0.00    -0.354 OA 
HETATM   10  C   UNL     1     -10.695  13.294  69.085  1.00  0.00    -0.086 C  
HETATM   11  C   UNL     1     -10.969  13.799  67.549  1.00  0.00    -0.285 C  
HETATM   12  C   UNL     1     -10.098  13.632  66.185  1.00  0.00    -0.306 C  
HETATM   13  O   UNL     1     -10.627  14.648  65.301  1.00  0.00    -0.336 OA 
HETATM   14  C   UNL     1      -8.552  13.740  65.927  1.00  0.00     1.228 C  
HETATM   15  C   UNL     1      -7.554  12.633  66.357  1.00  0.00     0.939 C  
HETATM   16  C   UNL     1     -11.119  15.753  66.061  1.00  0.00    -0.085 C  
HETATM   17  O   UNL     1      -7.624   9.287  70.696  1.00  0.00    -0.120 OA 
HETATM   18  C   UNL     1     -11.207  15.321  67.544  1.00  0.00    -0.317 C  
HETATM   19  O   UNL     1      -8.263  11.404  66.626  1.00  0.00    -0.159 OA 
HETATM   20  C   UNL     1      -6.771   8.139  70.586  1.00  0.00    -0.037 C  
HETATM   21  O   UNL     1      -8.270   6.364  71.566  1.00  0.00    -0.115 OA 
HETATM   22  C   UNL     1      -9.065  11.421  67.838  1.00  0.00    -0.164 C  
HETATM   23  C   UNL     1      -6.975   7.004  71.623  1.00  0.00    -0.069 C  
HETATM   24  C   UNL     1     -10.466  10.233  67.762  1.00  0.00    -0.269 C  
HETATM   25  C   UNL     1      -5.700   6.131  71.500  1.00  0.00    -0.027 C  
HETATM   26  C   UNL     1      -8.097  12.052  68.996  1.00  0.00     0.206 C  
HETATM   27  O   UNL     1      -7.907   4.951  69.739  1.00  0.00    -0.065 OA 
HETATM   28  C   UNL     1      -7.494  13.426  68.676  1.00  0.00    -0.104 C  
HETATM   29  C   UNL     1      -6.498   4.570  69.929  1.00  0.00    -0.032 C  
HETATM   30  O   UNL     1      -5.790   4.923  72.240  1.00  0.00    -0.011 OA 
HETATM   31  C   UNL     1     -11.609   9.416  68.792  1.00  0.00     0.590 C  
HETATM   32  C   UNL     1     -11.412   8.114  69.763  1.00  0.00     0.260 C  
HETATM   33  C   UNL     1      -6.409   3.978  71.345  1.00  0.00    -0.015 C  
HETATM   34  C   UNL     1      -6.654  13.075  67.515  1.00  0.00    -0.160 C  
HETATM   35  C   UNL     1      -6.930  14.125  69.931  1.00  0.00     0.097 C  
HETATM   36  C   UNL     1      -7.844   3.890  71.788  1.00  0.00    -0.070 C  
HETATM   37  O   UNL     1     -12.561   7.208  69.571  1.00  0.00     1.142 OA 
HETATM   38  C   UNL     1      -5.313  13.064  67.583  1.00  0.00    -0.081 C  
HETATM   39  C   UNL     1     -12.435   6.220  70.643  1.00  0.00     0.638 C  
HETATM   40  C   UNL     1     -12.363   7.113  71.846  1.00  0.00    -0.352 C  
HETATM   41  C   UNL     1     -11.261   5.225  70.251  1.00  0.00     0.617 C  
HETATM   42  C   UNL     1     -10.093   4.744  71.174  1.00  0.00    -0.261 C  
HETATM   43  C   UNL     1     -11.303   8.038  71.348  1.00  0.00    -0.292 C  
HETATM   44  C   UNL     1     -10.361   8.304  72.274  1.00  0.00    -0.386 C  
HETATM   45  C   UNL     1      -8.512   5.059  71.032  1.00  0.00    -0.118 C  
ENDROOT
BRANCH  16  46
HETATM   46  C   UNL     1     -10.249  17.006  65.867  1.00  0.00    -0.311 C  
BRANCH  46  47
HETATM   47  C   UNL     1     -10.910  18.365  66.091  1.00  0.00     0.010 C  
HETATM   48  H   UNL     1     -10.718  20.181  65.372  1.00  0.00     0.000 HD 
HETATM   49  O   UNL     1     -10.307  19.335  65.233  1.00  0.00    -0.264 OA 
BRANCH  47  50
HETATM   50  C   UNL     1     -10.893  18.853  67.550  1.00  0.00    -0.364 C  
HETATM   51  N   UNL     1      -9.759  19.764  67.786  1.00  0.00    -0.358 NA 
HETATM   52  H1  UNL     1      -9.749  20.088  68.754  1.00  0.00     0.000 HD 
HETATM   53  H2  UNL     1      -9.759  20.544  67.129  1.00  0.00     0.000 HD 
ENDBRANCH  47  50
ENDBRANCH  46  47
ENDBRANCH  16  46
BRANCH  18  54
HETATM   54  O   UNL     1     -10.217  15.992  68.337  1.00  0.00    -0.226 OA 
HETATM   55  C   UNL     1     -10.669  16.466  69.602  1.00  0.00    -0.337 C  
ENDBRANCH  18  54
TORSDOF 4
ENDMDL
MODEL       25
REMARK 921   NORMALIZED FREE ENERGY PREDICTED BY IDOCK:    0.80 KCAL/MOL
REMARK 922        TOTAL FREE ENERGY PREDICTED BY IDOCK:    0.97 KCAL/MOL
REMARK 923 INTER-LIGAND FREE ENERGY PREDICTED BY IDOCK:   -1.22 KCAL/MOL
REMARK 924 INTRA-LIGAND FREE ENERGY PREDICTED BY IDOCK:    2.19 KCAL/MOL
REMARK 927      BINDING AFFINITY PREDICTED BY RF-SCORE:    0.00 PKD
ROOT
HETATM    1  C   UNL     1     -12.339   7.579  70.465  1.00  0.00     0.125 C  
HETATM    2  O   UNL     1     -12.582   8.974  70.350  1.00  0.00     0.232 OA 
HETATM    3  C   UNL     1     -11.383   9.657  70.056  1.00  0.00    -0.195 C  
HETATM    4  C   UNL     1     -11.539  11.134  69.968  1.00  0.00    -0.421 C  
HETATM    5  C   UNL     1     -10.091  11.577  70.063  1.00  0.00     1.369 C  
HETATM    6  C   UNL     1      -9.100  10.991  68.936  1.00  0.00    -0.123 C  
HETATM    7  C   UNL     1      -7.838  11.650  67.898  1.00  0.00    -0.129 C  
HETATM    8  C   UNL     1      -6.778  13.006  67.665  1.00  0.00    -0.157 C  
HETATM    9  O   UNL     1      -5.561  12.724  67.603  1.00  0.00    -0.116 OA 
HETATM   10  C   UNL     1      -7.111  14.513  67.176  1.00  0.00     0.203 C  
HETATM   11  C   UNL     1      -7.293  15.971  67.903  1.00  0.00    -0.145 C  
HETATM   12  C   UNL     1      -8.555  16.642  68.679  1.00  0.00    -0.253 C  
HETATM   13  O   UNL     1      -8.254  18.058  68.689  1.00  0.00    -0.304 OA 
HETATM   14  C   UNL     1     -10.093  16.633  68.353  1.00  0.00    -0.268 C  
HETATM   15  C   UNL     1     -10.986  15.385  68.578  1.00  0.00    -0.278 C  
HETATM   16  C   UNL     1      -7.468  18.399  67.546  1.00  0.00    -0.219 C  
HETATM   17  O   UNL     1      -9.819  10.053  68.104  1.00  0.00    -0.139 OA 
HETATM   18  C   UNL     1      -6.955  17.090  66.901  1.00  0.00    -0.216 C  
HETATM   19  O   UNL     1     -10.323  14.453  69.459  1.00  0.00    -0.105 OA 
HETATM   20  C   UNL     1     -10.747   9.172  68.752  1.00  0.00    -0.131 C  
HETATM   21  O   UNL     1      -9.155   7.500  69.766  1.00  0.00    -0.141 OA 
HETATM   22  C   UNL     1      -9.185  13.769  68.869  1.00  0.00     0.128 C  
HETATM   23  C   UNL     1     -10.317   7.693  68.926  1.00  0.00    -0.212 C  
HETATM   24  C   UNL     1      -7.970  13.221  70.137  1.00  0.00     2.637 C  
HETATM   25  C   UNL     1     -11.627   6.944  69.274  1.00  0.00     0.080 C  
HETATM   26  C   UNL     1      -9.693  13.254  67.403  1.00  0.00    -0.221 C  
HETATM   27  O   UNL     1     -10.175   7.695  71.860  1.00  0.00    -0.188 OA 
HETATM   28  C   UNL     1     -10.261  14.342  66.482  1.00  0.00    -0.276 C  
HETATM   29  C   UNL     1     -11.479   7.056  71.621  1.00  0.00    -0.266 C  
HETATM   30  O   UNL     1     -11.403   5.597  69.664  1.00  0.00    -0.143 OA 
HETATM   31  C   UNL     1      -6.629  12.130  70.346  1.00  0.00     0.673 C  
HETATM   32  C   UNL     1      -6.609  10.509  70.572  1.00  0.00    -0.032 C  
HETATM   33  C   UNL     1     -11.167   5.650  71.084  1.00  0.00    -0.056 C  
HETATM   34  C   UNL     1     -11.444  14.749  67.263  1.00  0.00    -0.378 C  
HETATM   35  C   UNL     1     -10.351  13.878  65.013  1.00  0.00    -0.418 C  
HETATM   36  C   UNL     1      -9.676   5.527  71.245  1.00  0.00    -0.215 C  
HETATM   37  O   UNL     1      -5.650  10.197  71.648  1.00  0.00    -0.228 OA 
HETATM   38  C   UNL     1     -12.695  14.467  66.861  1.00  0.00     0.621 C  
HETATM   39  C   UNL     1      -5.509   8.741  71.606  1.00  0.00    -0.044 C  
HETATM   40  C   UNL     1      -5.135   8.533  70.167  1.00  0.00    -0.022 C  
HETATM   41  C   UNL     1      -6.818   8.107  72.244  1.00  0.00    -0.089 C  
HETATM   42  C   UNL     1      -7.672   6.935  71.659  1.00  0.00    -0.095 C  
HETATM   43  C   UNL     1      -6.224   9.348  69.555  1.00  0.00    -0.040 C  
HETATM   44  C   UNL     1      -6.808   8.739  68.504  1.00  0.00    -0.064 C  
HETATM   45  C   UNL     1      -9.191   6.986  71.101  1.00  0.00    -0.157 C  
ENDROOT
BRANCH  16  46
HETATM   46  C   UNL     1      -8.258  19.269  66.555  1.00  0.00    -0.319 C  
BRANCH  46  47
HETATM   47  C   UNL     1      -8.625  20.686  66.996  1.00  0.00    -0.166 C  
HETATM   48  H   UNL     1      -7.812  22.095  68.093  1.00  0.00     0.000 HD 
HETATM   49  O   UNL     1      -7.583  21.214  67.818  1.00  0.00    -0.177 OA 
BRANCH  47  50
HETATM   50  C   UNL     1      -9.985  20.802  67.708  1.00  0.00    -0.088 C  
HETATM   51  N   UNL     1     -10.835  19.636  67.409  1.00  0.00    -0.439 NA 
HETATM   52  H1  UNL     1     -11.737  19.713  67.881  1.00  0.00     0.000 HD 
HETATM   53  H2  UNL     1     -10.366  18.759  67.634  1.00  0.00     0.000 HD 
ENDBRANCH  47  50
ENDBRANCH  46  47
ENDBRANCH  16  46
BRANCH  18  54
HETATM   54  O   UNL     1      -7.595  16.851  65.638  1.00  0.00    -0.057 OA 
HETATM   55  C   UNL     1      -8.977  17.191  65.582  1.00  0.00     0.449 C  
ENDBRANCH  18  54
TORSDOF 4
ENDMDL
MODEL       26
REMARK 921   NORMALIZED FREE ENERGY PREDICTED BY IDOCK:    1.15 KCAL/MOL
REMARK 922        TOTAL FREE ENERGY PREDICTED BY IDOCK:    1.41 KCAL/MOL
REMARK 923 INTER-LIGAND FREE ENERGY PREDICTED BY IDOCK:    0.36 KCAL/MOL
REMARK 924 INTRA-LIGAND FREE ENERGY PREDICTED BY IDOCK:    1.05 KCAL/MOL
REMARK 927      BINDING AFFINITY PREDICTED BY RF-SCORE:    0.00 PKD
ROOT
HETATM    1  C   UNL     1      -8.781   4.095  72.167  1.00  0.00    -0.107 C  
HETATM    2  O   UNL     1      -8.783   5.514  72.253  1.00  0.00    -0.128 OA 
HETATM    3  C   UNL     1      -8.684   6.082  70.965  1.00  0.00    -0.132 C  
HETATM    4  C   UNL     1      -8.630   7.568  70.968  1.00  0.00    -0.132 C  
HETATM    5  C   UNL     1      -8.124   7.834  69.562  1.00  0.00    -0.126 C  
HETATM    6  C   UNL     1      -9.031   7.250  68.365  1.00  0.00    -0.126 C  
HETATM    7  C   UNL     1      -9.635   7.858  66.826  1.00  0.00    -0.278 C  
HETATM    8  C   UNL     1      -9.431   9.101  65.631  1.00  0.00    -0.240 C  
HETATM    9  O   UNL     1      -9.221   8.691  64.468  1.00  0.00     0.218 OA 
HETATM   10  C   UNL     1      -9.802  10.676  65.696  1.00  0.00    -0.307 C  
HETATM   11  C   UNL     1      -8.973  12.070  65.936  1.00  0.00     0.035 C  
HETATM   12  C   UNL     1      -8.461  12.802  67.296  1.00  0.00    -0.194 C  
HETATM   13  O   UNL     1      -8.206  14.167  66.888  1.00  0.00    -0.127 OA 
HETATM   14  C   UNL     1      -9.159  12.997  68.690  1.00  0.00     0.047 C  
HETATM   15  C   UNL     1      -9.316  11.843  69.714  1.00  0.00     1.941 C  
HETATM   16  C   UNL     1      -9.067  14.525  65.806  1.00  0.00     0.357 C  
HETATM   17  O   UNL     1     -10.123   6.482  68.920  1.00  0.00    -0.153 OA 
HETATM   18  C   UNL     1      -9.717  13.233  65.255  1.00  0.00     0.033 C  
HETATM   19  O   UNL     1      -8.417  10.763  69.384  1.00  0.00    -0.105 OA 
HETATM   20  C   UNL     1      -9.838   5.654  70.056  1.00  0.00    -0.186 C  
HETATM   21  O   UNL     1      -8.668   3.724  68.930  1.00  0.00    -0.081 OA 
HETATM   22  C   UNL     1      -8.782  10.013  68.194  1.00  0.00    -0.122 C  
HETATM   23  C   UNL     1      -9.741   4.126  69.812  1.00  0.00    -0.208 C  
HETATM   24  C   UNL     1      -7.327   9.214  67.402  1.00  0.00    -0.084 C  
HETATM   25  C   UNL     1      -9.824   3.499  71.227  1.00  0.00    -0.135 C  
HETATM   26  C   UNL     1     -10.380   9.700  68.345  1.00  0.00    -0.233 C  
HETATM   27  O   UNL     1      -6.886   3.834  70.440  1.00  0.00    -0.033 OA 
HETATM   28  C   UNL     1     -11.275  10.928  68.560  1.00  0.00    -0.335 C  
HETATM   29  C   UNL     1      -7.518   3.371  71.685  1.00  0.00    -0.051 C  
HETATM   30  O   UNL     1      -9.556   2.106  71.226  1.00  0.00    -0.132 OA 
HETATM   31  C   UNL     1      -6.923   7.964  66.259  1.00  0.00    -0.063 C  
HETATM   32  C   UNL     1      -6.896   6.337  66.436  1.00  0.00    -0.062 C  
HETATM   33  C   UNL     1      -8.126   1.997  71.364  1.00  0.00    -0.047 C  
HETATM   34  C   UNL     1     -10.771  11.389  69.866  1.00  0.00     0.222 C  
HETATM   35  C   UNL     1     -12.765  10.618  68.303  1.00  0.00     2.882 C  
HETATM   36  C   UNL     1      -7.614   1.692  69.983  1.00  0.00    -0.039 C  
HETATM   37  O   UNL     1      -5.661   5.818  65.820  1.00  0.00    -0.013 OA 
HETATM   38  C   UNL     1     -11.503  11.290  70.989  1.00  0.00     0.648 C  
HETATM   39  C   UNL     1      -5.842   4.366  65.797  1.00  0.00    -0.022 C  
HETATM   40  C   UNL     1      -7.156   4.255  65.081  1.00  0.00    -0.063 C  
HETATM   41  C   UNL     1      -5.631   3.827  67.275  1.00  0.00    -0.021 C  
HETATM   42  C   UNL     1      -6.547   2.819  68.044  1.00  0.00    -0.036 C  
HETATM   43  C   UNL     1      -7.917   5.242  65.900  1.00  0.00    -0.105 C  
HETATM   44  C   UNL     1      -9.146   4.805  66.239  1.00  0.00    -0.122 C  
HETATM   45  C   UNL     1      -7.456   3.094  69.355  1.00  0.00    -0.048 C  
ENDROOT
BRANCH  16  46
HETATM   46  C   UNL     1     -10.112  15.569  66.235  1.00  0.00    -0.312 C  
BRANCH  46  47
HETATM   47  C   UNL     1     -10.927  16.245  65.133  1.00  0.00    -0.274 C  
HETATM   48  H   UNL     1     -11.411  18.082  64.639  1.00  0.00     0.000 HD 
HETATM   49  O   UNL     1     -10.904  17.661  65.324  1.00  0.00    -0.600 OA 
BRANCH  47  50
HETATM   50  C   UNL     1     -12.375  15.741  65.007  1.00  0.00     0.760 C  
HETATM   51  N   UNL     1     -12.705  15.438  63.603  1.00  0.00    -0.524 NA 
HETATM   52  H1  UNL     1     -13.665  15.104  63.519  1.00  0.00     0.000 HD 
HETATM   53  H2  UNL     1     -12.041  14.782  63.193  1.00  0.00     0.000 HD 
ENDBRANCH  47  50
ENDBRANCH  46  47
ENDBRANCH  16  46
BRANCH  18  54
HETATM   54  O   UNL     1     -11.119  13.189  65.563  1.00  0.00    -0.277 OA 
HETATM   55  C   UNL     1     -11.942  12.590  64.566  1.00  0.00    -0.404 C  
ENDBRANCH  18  54
TORSDOF 4
ENDMDL
MODEL       27
REMARK 921   NORMALIZED FREE ENERGY PREDICTED BY IDOCK:    1.34 KCAL/MOL
REMARK 922        TOTAL FREE ENERGY PREDICTED BY IDOCK:    1.64 KCAL/MOL
REMARK 923 INTER-LIGAND FREE ENERGY PREDICTED BY IDOCK:   -0.20 KCAL/MOL
REMARK 924 INTRA-LIGAND FREE ENERGY PREDICTED BY IDOCK:    1.84 KCAL/MOL
REMARK 927      BINDING AFFINITY PREDICTED BY RF-SCORE:    0.00 PKD
ROOT
HETATM    1  C   UNL     1     -12.575  14.774  68.584  1.00  0.00     0.395 C  
HETATM    2  O   UNL     1     -12.571  13.444  68.085  1.00  0.00     0.180 OA 
HETATM    3  C   UNL     1     -11.284  12.879  68.207  1.00  0.00    -0.270 C  
HETATM    4  C   UNL     1     -11.179  11.499  67.661  1.00  0.00    -0.343 C  
HETATM    5  C   UNL     1      -9.673  11.349  67.559  1.00  0.00    -0.191 C  
HETATM    6  C   UNL     1      -8.853  11.534  68.935  1.00  0.00     0.040 C  
HETATM    7  C   UNL     1      -7.543  10.682  69.747  1.00  0.00    -0.054 C  
HETATM    8  C   UNL     1      -6.270   9.522  69.522  1.00  0.00    -0.040 C  
HETATM    9  O   UNL     1      -5.127   9.921  69.834  1.00  0.00    -0.036 OA 
HETATM   10  C   UNL     1      -6.352   7.920  69.304  1.00  0.00    -0.035 C  
HETATM   11  C   UNL     1      -6.239   6.901  68.026  1.00  0.00    -0.034 C  
HETATM   12  C   UNL     1      -7.326   6.451  66.902  1.00  0.00    -0.079 C  
HETATM   13  O   UNL     1      -6.777   5.233  66.345  1.00  0.00    -0.054 OA 
HETATM   14  C   UNL     1      -8.854   6.103  67.023  1.00  0.00    -0.110 C  
HETATM   15  C   UNL     1      -9.944   7.186  67.230  1.00  0.00    -0.186 C  
HETATM   16  C   UNL     1      -5.995   4.553  67.328  1.00  0.00    -0.023 C  
HETATM   17  O   UNL     1      -9.764  11.917  69.990  1.00  0.00     1.710 OA 
HETATM   18  C   UNL     1      -5.752   5.522  68.509  1.00  0.00    -0.015 C  
HETATM   19  O   UNL     1      -9.417   8.488  66.894  1.00  0.00    -0.158 OA 
HETATM   20  C   UNL     1     -10.804  12.847  69.659  1.00  0.00     0.339 C  
HETATM   21  O   UNL     1      -9.491  15.000  69.616  1.00  0.00    -0.138 OA 
HETATM   22  C   UNL     1      -8.447   9.011  67.840  1.00  0.00    -0.121 C  
HETATM   23  C   UNL     1     -10.636  14.305  70.161  1.00  0.00     0.457 C  
HETATM   24  C   UNL     1      -7.293  10.213  67.061  1.00  0.00    -0.091 C  
HETATM   25  C   UNL     1     -12.042  14.936  70.004  1.00  0.00    -0.338 C  
HETATM   26  C   UNL     1      -9.103   8.775  69.320  1.00  0.00    -0.145 C  
HETATM   27  O   UNL     1     -10.365  15.571  67.525  1.00  0.00    -0.260 OA 
HETATM   28  C   UNL     1      -9.510   7.330  69.638  1.00  0.00    -0.155 C  
HETATM   29  C   UNL     1     -11.771  15.856  67.853  1.00  0.00     0.009 C  
HETATM   30  O   UNL     1     -12.043  16.337  70.232  1.00  0.00    -0.102 OA 
HETATM   31  C   UNL     1      -6.158  11.467  67.477  1.00  0.00    -0.071 C  
HETATM   32  C   UNL     1      -6.417  13.015  67.942  1.00  0.00    -0.130 C  
HETATM   33  C   UNL     1     -11.737  16.928  68.954  1.00  0.00     0.664 C  
HETATM   34  C   UNL     1     -10.566   7.131  68.628  1.00  0.00    -0.217 C  
HETATM   35  C   UNL     1      -9.747   7.107  71.146  1.00  0.00    -0.168 C  
HETATM   36  C   UNL     1     -10.287  17.318  69.031  1.00  0.00    -0.330 C  
HETATM   37  O   UNL     1      -5.481  13.888  67.210  1.00  0.00    -0.310 OA 
HETATM   38  C   UNL     1     -11.863   7.034  68.962  1.00  0.00     0.682 C  
HETATM   39  C   UNL     1      -5.603  15.192  67.864  1.00  0.00    -0.127 C  
HETATM   40  C   UNL     1      -5.337  14.818  69.293  1.00  0.00    -0.089 C  
HETATM   41  C   UNL     1      -6.974  15.843  67.397  1.00  0.00    -0.233 C  
HETATM   42  C   UNL     1      -8.048  16.520  68.309  1.00  0.00    -0.179 C  
HETATM   43  C   UNL     1      -6.291  13.674  69.384  1.00  0.00    -0.108 C  
HETATM   44  C   UNL     1      -7.020  13.688  70.517  1.00  0.00     0.992 C  
HETATM   45  C   UNL     1      -9.557  16.022  68.617  1.00  0.00    -0.222 C  
ENDROOT
BRANCH  16  46
HETATM   46  C   UNL     1      -6.662   3.242  67.774  1.00  0.00    -0.042 C  
BRANCH  46  47
HETATM   47  C   UNL     1      -8.113   3.010  67.354  1.00  0.00    -0.077 C  
HETATM   48  H   UNL     1      -9.161   3.152  65.701  1.00  0.00     0.000 HD 
HETATM   49  O   UNL     1      -8.259   3.296  65.962  1.00  0.00    -0.092 OA 
BRANCH  47  50
HETATM   50  C   UNL     1      -9.151   3.794  68.177  1.00  0.00    -0.144 C  
HETATM   51  N   UNL     1      -8.927   3.605  69.621  1.00  0.00    -0.098 NA 
HETATM   52  H1  UNL     1      -9.615   4.124  70.166  1.00  0.00     0.000 HD 
HETATM   53  H2  UNL     1      -7.973   3.846  69.889  1.00  0.00     0.000 HD 
ENDBRANCH  47  50
ENDBRANCH  46  47
ENDBRANCH  16  46
BRANCH  18  54
HETATM   54  O   UNL     1      -6.481   5.107  69.675  1.00  0.00    -0.035 OA 
HETATM   55  C   UNL     1      -5.685   4.597  70.741  1.00  0.00    -0.016 C  
ENDBRANCH  18  54
TORSDOF 4
ENDMDL
MODEL       28
REMARK 921   NORMALIZED FREE ENERGY PREDICTED BY IDOCK:    2.52 KCAL/MOL
REMARK 922        TOTAL FREE ENERGY PREDICTED BY IDOCK:    3.09 KCAL/MOL
REMARK 923 INTER-LIGAND FREE ENERGY PREDICTED BY IDOCK:    3.46 KCAL/MOL
REMARK 924 INTRA-LIGAND FREE ENERGY PREDICTED BY IDOCK:   -0.37 KCAL/MOL
REMARK 927      BINDING AFFINITY PREDICTED BY RF-SCORE:    0.00 PKD
ROOT
HETATM    1  C   UNL     1      -5.128   6.038  66.478  1.00  0.00    -0.005 C  
HETATM    2  O   UNL     1      -5.234   7.398  66.079  1.00  0.00    -0.023 OA 
HETATM    3  C   UNL     1      -6.384   7.986  66.645  1.00  0.00    -0.054 C  
HETATM    4  C   UNL     1      -6.599   9.400  66.236  1.00  0.00    -0.070 C  
HETATM    5  C   UNL     1      -8.048   9.594  66.642  1.00  0.00    -0.119 C  
HETATM    6  C   UNL     1      -8.384   9.342  68.198  1.00  0.00    -0.119 C  
HETATM    7  C   UNL     1      -9.319  10.173  69.438  1.00  0.00    -0.235 C  
HETATM    8  C   UNL     1     -10.542  11.377  69.703  1.00  0.00     0.120 C  
HETATM    9  O   UNL     1     -11.539  10.988  70.351  1.00  0.00    -0.308 OA 
HETATM   10  C   UNL     1     -10.464  12.987  69.555  1.00  0.00     0.497 C  
HETATM   11  C   UNL     1     -10.940  14.090  68.440  1.00  0.00    -0.269 C  
HETATM   12  C   UNL     1     -10.258  14.583  67.047  1.00  0.00    -0.262 C  
HETATM   13  O   UNL     1     -10.902  15.848  66.766  1.00  0.00    -0.309 OA 
HETATM   14  C   UNL     1      -8.760  14.884  66.680  1.00  0.00    -0.262 C  
HETATM   15  C   UNL     1      -7.712  13.762  66.462  1.00  0.00     1.267 C  
HETATM   16  C   UNL     1     -11.291  16.482  67.985  1.00  0.00    -0.107 C  
HETATM   17  O   UNL     1      -7.198   8.869  68.875  1.00  0.00    -0.071 OA 
HETATM   18  C   UNL     1     -11.180  15.446  69.128  1.00  0.00    -0.287 C  
HETATM   19  O   UNL     1      -8.377  12.498  66.249  1.00  0.00     0.160 OA 
HETATM   20  C   UNL     1      -6.365   7.936  68.174  1.00  0.00    -0.050 C  
HETATM   21  O   UNL     1      -7.716   5.825  68.449  1.00  0.00    -0.093 OA 
HETATM   22  C   UNL     1      -9.010  11.940  67.431  1.00  0.00    -0.173 C  
HETATM   23  C   UNL     1      -6.426   6.453  68.626  1.00  0.00    -0.049 C  
HETATM   24  C   UNL     1     -10.407  10.821  67.010  1.00  0.00    -0.275 C  
HETATM   25  C   UNL     1      -5.178   5.798  67.984  1.00  0.00    -0.004 C  
HETATM   26  C   UNL     1      -7.898  12.063  68.625  1.00  0.00    -0.091 C  
HETATM   27  O   UNL     1      -7.596   5.367  66.160  1.00  0.00    -0.085 OA 
HETATM   28  C   UNL     1      -7.345  13.474  68.868  1.00  0.00    -0.045 C  
HETATM   29  C   UNL     1      -6.174   5.026  65.995  1.00  0.00    -0.031 C  
HETATM   30  O   UNL     1      -5.166   4.386  68.125  1.00  0.00    -0.007 OA 
HETATM   31  C   UNL     1     -11.400   9.571  67.707  1.00  0.00     0.400 C  
HETATM   32  C   UNL     1     -11.074   7.991  67.980  1.00  0.00     0.366 C  
HETATM   33  C   UNL     1      -5.896   3.887  66.988  1.00  0.00    -0.023 C  
HETATM   34  C   UNL     1      -6.667  13.711  67.580  1.00  0.00    -0.185 C  
HETATM   35  C   UNL     1      -6.622  13.593  70.225  1.00  0.00     0.187 C  
HETATM   36  C   UNL     1      -7.259   3.529  67.515  1.00  0.00    -0.059 C  
HETATM   37  O   UNL     1     -12.236   7.191  67.549  1.00  0.00     2.277 OA 
HETATM   38  C   UNL     1      -5.328  13.753  67.476  1.00  0.00     0.151 C  
HETATM   39  C   UNL     1     -11.967   5.845  68.058  1.00  0.00     3.179 C  
HETATM   40  C   UNL     1     -11.737   6.132  69.513  1.00  0.00     0.169 C  
HETATM   41  C   UNL     1     -10.853   5.191  67.134  1.00  0.00     0.102 C  
HETATM   42  C   UNL     1      -9.572   4.429  67.608  1.00  0.00    -0.212 C  
HETATM   43  C   UNL     1     -10.755   7.243  69.347  1.00  0.00    -0.236 C  
HETATM   44  C   UNL     1      -9.699   7.138  70.177  1.00  0.00    -0.171 C  
HETATM   45  C   UNL     1      -8.025   4.868  67.431  1.00  0.00    -0.095 C  
ENDROOT
BRANCH  16  46
HETATM   46  C   UNL     1     -10.457  17.745  68.256  1.00  0.00    -0.368 C  
BRANCH  46  47
HETATM   47  C   UNL     1      -9.483  18.195  67.168  1.00  0.00    -0.264 C  
HETATM   48  H   UNL     1      -7.757  19.125  67.092  1.00  0.00     0.000 HD 
HETATM   49  O   UNL     1      -8.362  18.845  67.769  1.00  0.00    -0.271 OA 
BRANCH  47  50
HETATM   50  C   UNL     1     -10.107  19.091  66.082  1.00  0.00    -0.406 C  
HETATM   51  N   UNL     1     -10.917  18.293  65.145  1.00  0.00    -0.493 NA 
HETATM   52  H1  UNL     1     -11.330  18.887  64.426  1.00  0.00     0.000 HD 
HETATM   53  H2  UNL     1     -11.625  17.743  65.632  1.00  0.00     0.000 HD 
ENDBRANCH  47  50
ENDBRANCH  46  47
ENDBRANCH  16  46
BRANCH  18  54
HETATM   54  O   UNL     1     -10.094  15.766  70.011  1.00  0.00    -0.278 OA 
HETATM   55  C   UNL     1     -10.436  15.845  71.392  1.00  0.00     1.049 C  
ENDBRANCH  18  54
TORSDOF 4
ENDMDL
MODEL       29
REMARK 921   NORMALIZED FREE ENERGY PREDICTED BY IDOCK:    2.98 KCAL/MOL
REMARK 922        TOTAL FREE ENERGY PREDICTED BY IDOCK:    3.67 KCAL/MOL
REMARK 923 INTER-LIGAND FREE ENERGY PREDICTED BY IDOCK:    2.75 KCAL/MOL
REMARK 924 INTRA-LIGAND FREE ENERGY PREDICTED BY IDOCK:    0.91 KCAL/MOL
REMARK 927      BINDING AFFINITY PREDICTED BY RF-SCORE:    0.00 PKD
ROOT
HETATM    1  C   UNL     1      -9.274   7.326  70.425  1.00  0.00    -0.158 C  
HETATM    2  O   UNL     1      -8.801   8.622  70.765  1.00  0.00    -0.145 OA 
HETATM    3  C   UNL     1      -8.802   9.458  69.628  1.00  0.00    -0.172 C  
HETATM    4  C   UNL     1      -8.273  10.824  69.887  1.00  0.00     0.473 C  
HETATM    5  C   UNL     1      -8.022  11.302  68.468  1.00  0.00    -0.145 C  
HETATM    6  C   UNL     1      -9.303  11.309  67.491  1.00  0.00    -0.162 C  
HETATM    7  C   UNL     1      -9.993  12.432  66.322  1.00  0.00    -0.259 C  
HETATM    8  C   UNL     1      -9.660  13.843  65.366  1.00  0.00     0.079 C  
HETATM    9  O   UNL     1      -9.847  13.708  64.137  1.00  0.00     0.004 OA 
HETATM   10  C   UNL     1      -9.481  15.387  65.819  1.00  0.00    -0.325 C  
HETATM   11  C   UNL     1      -8.217  16.400  66.066  1.00  0.00    -0.075 C  
HETATM   12  C   UNL     1      -7.219  16.594  67.336  1.00  0.00    -0.155 C  
HETATM   13  O   UNL     1      -6.631  17.900  67.129  1.00  0.00    -0.165 OA 
HETATM   14  C   UNL     1      -7.501  16.597  68.882  1.00  0.00    -0.232 C  
HETATM   15  C   UNL     1      -7.798  15.301  69.680  1.00  0.00    -0.144 C  
HETATM   16  C   UNL     1      -7.542  18.740  66.418  1.00  0.00    -0.259 C  
HETATM   17  O   UNL     1     -10.438  10.739  68.181  1.00  0.00    -0.169 OA 
HETATM   18  C   UNL     1      -8.674  17.854  65.847  1.00  0.00     0.171 C  
HETATM   19  O   UNL     1      -7.387  14.146  68.918  1.00  0.00    -0.121 OA 
HETATM   20  C   UNL     1     -10.198   9.601  69.019  1.00  0.00    -0.199 C  
HETATM   21  O   UNL     1      -9.981   7.791  67.277  1.00  0.00    -0.171 OA 
HETATM   22  C   UNL     1      -8.219  13.854  67.764  1.00  0.00    -0.173 C  
HETATM   23  C   UNL     1     -10.653   8.218  68.484  1.00  0.00    -0.100 C  
HETATM   24  C   UNL     1      -7.305  12.933  66.461  1.00  0.00     1.112 C  
HETATM   25  C   UNL     1     -10.628   7.292  69.725  1.00  0.00    -0.235 C  
HETATM   26  C   UNL     1      -9.762  13.946  68.299  1.00  0.00    -0.223 C  
HETATM   27  O   UNL     1      -7.980   7.031  68.216  1.00  0.00    -0.119 OA 
HETATM   28  C   UNL     1     -10.147  15.268  68.978  1.00  0.00    -0.239 C  
HETATM   29  C   UNL     1      -8.445   6.445  69.483  1.00  0.00    -0.133 C  
HETATM   30  O   UNL     1     -10.830   5.926  69.394  1.00  0.00    -0.306 OA 
HETATM   31  C   UNL     1      -7.579  11.961  65.042  1.00  0.00     2.407 C  
HETATM   32  C   UNL     1      -8.040  10.397  64.905  1.00  0.00    -0.130 C  
HETATM   33  C   UNL     1      -9.517   5.412  69.101  1.00  0.00    -0.133 C  
HETATM   34  C   UNL     1      -9.254  15.225  70.151  1.00  0.00     0.405 C  
HETATM   35  C   UNL     1     -11.675  15.440  69.101  1.00  0.00    -0.364 C  
HETATM   36  C   UNL     1      -9.438   5.351  67.600  1.00  0.00    -0.132 C  
HETATM   37  O   UNL     1      -7.199   9.748  63.881  1.00  0.00    -0.112 OA 
HETATM   38  C   UNL     1      -9.720  15.035  71.396  1.00  0.00     2.480 C  
HETATM   39  C   UNL     1      -7.838   8.453  63.645  1.00  0.00    -0.152 C  
HETATM   40  C   UNL     1      -9.240   8.882  63.321  1.00  0.00     0.683 C  
HETATM   41  C   UNL     1      -7.502   7.513  64.880  1.00  0.00    -0.089 C  
HETATM   42  C   UNL     1      -8.506   6.620  65.679  1.00  0.00    -0.147 C  
HETATM   43  C   UNL     1      -9.449   9.788  64.488  1.00  0.00    -0.269 C  
HETATM   44  C   UNL     1     -10.650   9.619  65.074  1.00  0.00     1.428 C  
HETATM   45  C   UNL     1      -8.975   6.775  67.220  1.00  0.00    -0.117 C  
ENDROOT
BRANCH  16  46
HETATM   46  C   UNL     1      -8.078  19.874  67.307  1.00  0.00    -0.341 C  
BRANCH  46  47
HETATM   47  C   UNL     1      -8.201  19.598  68.805  1.00  0.00    -0.254 C  
HETATM   48  H   UNL     1      -9.174  20.371  70.324  1.00  0.00     0.000 HD 
HETATM   49  O   UNL     1      -9.098  20.542  69.392  1.00  0.00     0.786 OA 
BRANCH  47  50
HETATM   50  C   UNL     1      -6.863  19.582  69.565  1.00  0.00    -0.296 C  
HETATM   51  N   UNL     1      -6.356  20.952  69.765  1.00  0.00     0.023 NA 
HETATM   52  H1  UNL     1      -5.469  20.941  70.270  1.00  0.00     0.000 HD 
HETATM   53  H2  UNL     1      -7.045  21.545  70.228  1.00  0.00     0.000 HD 
ENDBRANCH  47  50
ENDBRANCH  46  47
ENDBRANCH  16  46
BRANCH  18  54
HETATM   54  O   UNL     1      -9.916  18.103  66.524  1.00  0.00    -0.336 OA 
HETATM   55  C   UNL     1     -10.945  18.672  65.720  1.00  0.00     0.159 C  
ENDBRANCH  18  54
TORSDOF 4
ENDMDL
MODEL       30
REMARK 921   NORMALIZED FREE ENERGY PREDICTED BY IDOCK:    2.98 KCAL/MOL
REMARK 922        TOTAL FREE ENERGY PREDICTED BY IDOCK:    3.67 KCAL/MOL
REMARK 923 INTER-LIGAND FREE ENERGY PREDICTED BY IDOCK:    2.56 KCAL/MOL
REMARK 924 INTRA-LIGAND FREE ENERGY PREDICTED BY IDOCK:    1.11 KCAL/MOL
REMARK 927      BINDING AFFINITY PREDICTED BY RF-SCORE:    0.00 PKD
ROOT
HETATM    1  C   UNL     1      -5.225   8.533  66.771  1.00  0.00    -0.032 C  
HETATM    2  O   UNL     1      -5.340   9.839  66.223  1.00  0.00    -0.042 OA 
HETATM    3  C   UNL     1      -6.422  10.524  66.815  1.00  0.00    -0.081 C  
HETATM    4  C   UNL     1      -6.644  11.887  66.261  1.00  0.00     0.567 C  
HETATM    5  C   UNL     1      -8.046  12.172  66.767  1.00  0.00    -0.055 C  
HETATM    6  C   UNL     1      -8.242  12.114  68.365  1.00  0.00    -0.145 C  
HETATM    7  C   UNL     1      -9.044  13.112  69.576  1.00  0.00     1.512 C  
HETATM    8  C   UNL     1     -10.213  14.376  69.803  1.00  0.00     0.308 C  
HETATM    9  O   UNL     1     -11.153  14.097  70.578  1.00  0.00     0.066 OA 
HETATM   10  C   UNL     1     -10.116  15.955  69.458  1.00  0.00    -0.277 C  
HETATM   11  C   UNL     1     -10.670  16.934  68.266  1.00  0.00    -0.377 C  
HETATM   12  C   UNL     1     -10.108  17.239  66.769  1.00  0.00    -0.302 C  
HETATM   13  O   UNL     1     -10.750  18.482  66.397  1.00  0.00    -0.351 OA 
HETATM   14  C   UNL     1      -8.644  17.449  66.238  1.00  0.00    -0.246 C  
HETATM   15  C   UNL     1      -7.643  16.278  66.063  1.00  0.00     0.593 C  
HETATM   16  C   UNL     1     -11.012  19.267  67.562  1.00  0.00    -0.316 C  
HETATM   17  O   UNL     1      -7.009  11.687  68.987  1.00  0.00    -0.099 OA 
HETATM   18  C   UNL     1     -10.818  18.368  68.806  1.00  0.00     0.570 C  
HETATM   19  O   UNL     1      -8.350  15.019  66.061  1.00  0.00     0.357 OA 
HETATM   20  C   UNL     1      -6.263  10.653  68.331  1.00  0.00    -0.050 C  
HETATM   21  O   UNL     1      -7.626   8.631  68.974  1.00  0.00    -0.087 OA 
HETATM   22  C   UNL     1      -8.883  14.623  67.354  1.00  0.00    -0.195 C  
HETATM   23  C   UNL     1      -6.313   9.236  68.960  1.00  0.00    -0.043 C  
HETATM   24  C   UNL     1     -10.335  13.506  67.194  1.00  0.00    -0.250 C  
HETATM   25  C   UNL     1      -5.142   8.472  68.292  1.00  0.00    -0.034 C  
HETATM   26  C   UNL     1      -7.665  14.850  68.421  1.00  0.00    -0.115 C  
HETATM   27  O   UNL     1      -7.725   7.906  66.754  1.00  0.00    -0.095 OA 
HETATM   28  C   UNL     1      -7.064  16.262  68.444  1.00  0.00    -0.136 C  
HETATM   29  C   UNL     1      -6.332   7.504  66.506  1.00  0.00    -0.045 C  
HETATM   30  O   UNL     1      -5.146   7.086  68.599  1.00  0.00    -0.015 OA 
HETATM   31  C   UNL     1     -11.286  12.377  68.120  1.00  0.00    -0.313 C  
HETATM   32  C   UNL     1     -10.968  10.830  68.550  1.00  0.00    -0.243 C  
HETATM   33  C   UNL     1      -5.987   6.480  67.599  1.00  0.00    -0.020 C  
HETATM   34  C   UNL     1      -6.502  16.326  67.082  1.00  0.00    -0.214 C  
HETATM   35  C   UNL     1      -6.216  16.516  69.708  1.00  0.00    -0.205 C  
HETATM   36  C   UNL     1      -7.303   6.229  68.283  1.00  0.00    -0.086 C  
HETATM   37  O   UNL     1     -12.181  10.022  68.321  1.00  0.00     0.629 OA 
HETATM   38  C   UNL     1      -5.178  16.314  66.856  1.00  0.00     0.185 C  
HETATM   39  C   UNL     1     -11.893   8.737  68.961  1.00  0.00     1.557 C  
HETATM   40  C   UNL     1     -11.525   9.185  70.345  1.00  0.00    -0.228 C  
HETATM   41  C   UNL     1     -10.882   7.945  68.027  1.00  0.00    -0.026 C  
HETATM   42  C   UNL     1      -9.579   7.204  68.473  1.00  0.00    -0.139 C  
HETATM   43  C   UNL     1     -10.540  10.238  69.962  1.00  0.00    -0.321 C  
HETATM   44  C   UNL     1      -9.415  10.197  70.702  1.00  0.00     0.569 C  
HETATM   45  C   UNL     1      -8.046   7.572  68.109  1.00  0.00    -0.124 C  
ENDROOT
BRANCH  16  46
HETATM   46  C   UNL     1     -10.131  20.526  67.606  1.00  0.00    -0.412 C  
BRANCH  46  47
HETATM   47  C   UNL     1      -9.366  20.897  66.336  1.00  0.00     0.491 C  
HETATM   48  H   UNL     1      -9.492  20.485  64.422  1.00  0.00     0.000 HD 
HETATM   49  O   UNL     1      -9.968  20.255  65.211  1.00  0.00    -0.105 OA 
BRANCH  47  50
HETATM   50  C   UNL     1      -7.858  20.593  66.386  1.00  0.00     0.048 C  
HETATM   51  N   UNL     1      -7.473  20.061  67.706  1.00  0.00    -0.288 NA 
HETATM   52  H1  UNL     1      -6.474  19.859  67.739  1.00  0.00     0.000 HD 
HETATM   53  H2  UNL     1      -8.030  19.246  67.961  1.00  0.00     0.000 HD 
ENDBRANCH  47  50
ENDBRANCH  46  47
ENDBRANCH  16  46
BRANCH  18  54
HETATM   54  O   UNL     1      -9.650  18.755  69.545  1.00  0.00     0.034 OA 
HETATM   55  C   UNL     1      -9.868  19.726  70.565  1.00  0.00     1.181 C  
ENDBRANCH  18  54
TORSDOF 4
ENDMDL
MODEL       31
REMARK 921   NORMALIZED FREE ENERGY PREDICTED BY IDOCK:    5.01 KCAL/MOL
REMARK 922        TOTAL FREE ENERGY PREDICTED BY IDOCK:    6.16 KCAL/MOL
REMARK 923 INTER-LIGAND FREE ENERGY PREDICTED BY IDOCK:    6.46 KCAL/MOL
REMARK 924 INTRA-LIGAND FREE ENERGY PREDICTED BY IDOCK:   -0.30 KCAL/MOL
REMARK 927      BINDING AFFINITY PREDICTED BY RF-SCORE:    0.00 PKD
ROOT
HETATM    1  C   UNL     1     -10.700  17.086  65.269  1.00  0.00    -0.096 C  
HETATM    2  O   UNL     1     -10.300  15.871  64.650  1.00  0.00    -0.401 OA 
HETATM    3  C   UNL     1      -9.580  15.071  65.562  1.00  0.00    -0.174 C  
HETATM    4  C   UNL     1      -9.080  13.797  64.978  1.00  0.00     1.653 C  
HETATM    5  C   UNL     1      -8.050  13.395  66.019  1.00  0.00     1.895 C  
HETATM    6  C   UNL     1      -8.603  13.212  67.521  1.00  0.00    -0.196 C  
HETATM    7  C   UNL     1      -8.402  12.022  68.804  1.00  0.00     0.048 C  
HETATM    8  C   UNL     1      -7.416  10.701  69.351  1.00  0.00    -0.135 C  
HETATM    9  O   UNL     1      -6.941  10.832  70.501  1.00  0.00    -0.231 OA 
HETATM   10  C   UNL     1      -7.287   9.194  68.774  1.00  0.00    -0.075 C  
HETATM   11  C   UNL     1      -6.215   8.382  67.836  1.00  0.00    -0.052 C  
HETATM   12  C   UNL     1      -6.024   8.318  66.222  1.00  0.00    -0.041 C  
HETATM   13  O   UNL     1      -5.237   7.123  66.005  1.00  0.00    -0.022 OA 
HETATM   14  C   UNL     1      -7.078   8.236  65.059  1.00  0.00    -0.075 C  
HETATM   15  C   UNL     1      -7.934   9.453  64.620  1.00  0.00    -0.124 C  
HETATM   16  C   UNL     1      -5.502   6.168  67.034  1.00  0.00    -0.009 C  
HETATM   17  O   UNL     1      -9.999  13.584  67.569  1.00  0.00    -0.225 OA 
HETATM   18  C   UNL     1      -6.274   6.880  68.170  1.00  0.00    -0.034 C  
HETATM   19  O   UNL     1      -7.352  10.675  65.123  1.00  0.00    -0.073 OA 
HETATM   20  C   UNL     1     -10.405  14.727  66.804  1.00  0.00    -0.268 C  
HETATM   21  O   UNL     1      -9.560  16.587  68.282  1.00  0.00    -0.214 OA 
HETATM   22  C   UNL     1      -7.479  10.860  66.559  1.00  0.00    -0.142 C  
HETATM   23  C   UNL     1     -10.699  16.034  67.585  1.00  0.00    -0.320 C  
HETATM   24  C   UNL     1      -6.156  11.939  67.241  1.00  0.00    -0.141 C  
HETATM   25  C   UNL     1     -11.468  16.926  66.578  1.00  0.00     1.043 C  
HETATM   26  C   UNL     1      -9.039  10.518  66.910  1.00  0.00    -0.161 C  
HETATM   27  O   UNL     1      -8.491  17.626  66.482  1.00  0.00    -0.247 OA 
HETATM   28  C   UNL     1      -9.532   9.138  66.452  1.00  0.00    -0.288 C  
HETATM   29  C   UNL     1      -9.634  18.105  65.689  1.00  0.00     0.538 C  
HETATM   30  O   UNL     1     -11.656  18.250  67.051  1.00  0.00     0.854 OA 
HETATM   31  C   UNL     1      -5.773  12.888  68.651  1.00  0.00    -0.068 C  
HETATM   32  C   UNL     1      -6.309  14.365  69.108  1.00  0.00    -0.102 C  
HETATM   33  C   UNL     1     -10.476  18.968  66.642  1.00  0.00    -0.437 C  
HETATM   34  C   UNL     1      -9.411   9.293  64.991  1.00  0.00    -0.119 C  
HETATM   35  C   UNL     1     -10.850   8.730  67.141  1.00  0.00    -0.062 C  
HETATM   36  C   UNL     1      -9.625  19.073  67.877  1.00  0.00    -0.373 C  
HETATM   37  O   UNL     1      -5.156  15.158  69.576  1.00  0.00    -0.090 OA 
HETATM   38  C   UNL     1     -10.488   9.381  64.192  1.00  0.00     3.327 C  
HETATM   39  C   UNL     1      -5.751  16.344  70.194  1.00  0.00    -0.187 C  
HETATM   40  C   UNL     1      -6.690  15.711  71.179  1.00  0.00     1.545 C  
HETATM   41  C   UNL     1      -6.257  17.297  69.029  1.00  0.00    -0.209 C  
HETATM   42  C   UNL     1      -7.647  18.007  68.936  1.00  0.00    -0.227 C  
HETATM   43  C   UNL     1      -7.353  14.758  70.242  1.00  0.00     0.365 C  
HETATM   44  C   UNL     1      -8.693  14.726  70.386  1.00  0.00     1.383 C  
HETATM   45  C   UNL     1      -8.833  17.747  67.866  1.00  0.00    -0.251 C  
ENDROOT
BRANCH  16  46
HETATM   46  C   UNL     1      -6.259   4.945  66.490  1.00  0.00    -0.032 C  
BRANCH  46  47
HETATM   47  C   UNL     1      -5.427   3.767  65.985  1.00  0.00    -0.013 C  
HETATM   48  H   UNL     1      -4.850   3.068  64.245  1.00  0.00     0.000 HD 
HETATM   49  O   UNL     1      -5.367   3.801  64.558  1.00  0.00    -0.009 OA 
BRANCH  47  50
HETATM   50  C   UNL     1      -5.908   2.388  66.472  1.00  0.00    -0.022 C  
HETATM   51  N   UNL     1      -6.889   2.530  67.562  1.00  0.00    -0.040 NA 
HETATM   52  H1  UNL     1      -7.208   1.616  67.885  1.00  0.00     0.000 HD 
HETATM   53  H2  UNL     1      -7.670   3.127  67.292  1.00  0.00     0.000 HD 
ENDBRANCH  47  50
ENDBRANCH  46  47
ENDBRANCH  16  46
BRANCH  18  54
HETATM   54  O   UNL     1      -7.635   6.427  68.233  1.00  0.00    -0.099 OA 
HETATM   55  C   UNL     1      -7.958   5.625  69.365  1.00  0.00    -0.099 C  
ENDBRANCH  18  54
TORSDOF 4
ENDMDL
MODEL       32
REMARK 921   NORMALIZED FREE ENERGY PREDICTED BY IDOCK:    6.67 KCAL/MOL
REMARK 922        TOTAL FREE ENERGY PREDICTED BY IDOCK:    8.22 KCAL/MOL
REMARK 923 INTER-LIGAND FREE ENERGY PREDICTED BY IDOCK:    7.49 KCAL/MOL
REMARK 924 INTRA-LIGAND FREE ENERGY PREDICTED BY IDOCK:    0.73 KCAL/MOL
REMARK 927      BINDING AFFINITY PREDICTED BY RF-SCORE:    0.00 PKD
ROOT
HETATM    1  C   UNL     1      -6.638   7.707  68.286  1.00  0.00    -0.054 C  
HETATM    2  O   UNL     1      -5.955   8.933  68.511  1.00  0.00    -0.044 OA 
HETATM    3  C   UNL     1      -6.711  10.014  68.011  1.00  0.00    -0.064 C  
HETATM    4  C   UNL     1      -6.043  11.335  68.162  1.00  0.00    -0.045 C  
HETATM    5  C   UNL     1      -6.865  12.177  67.203  1.00  0.00    -0.119 C  
HETATM    6  C   UNL     1      -8.446  12.245  67.504  1.00  0.00    -0.172 C  
HETATM    7  C   UNL     1      -9.668  13.514  67.558  1.00  0.00    -0.228 C  
HETATM    8  C   UNL     1     -10.015  15.148  67.087  1.00  0.00    -0.237 C  
HETATM    9  O   UNL     1     -11.050  15.295  66.400  1.00  0.00    -0.329 OA 
HETATM   10  C   UNL     1      -9.427  16.542  67.663  1.00  0.00    -0.225 C  
HETATM   11  C   UNL     1      -8.300  17.631  67.181  1.00  0.00    -0.233 C  
HETATM   12  C   UNL     1      -6.679  17.643  67.324  1.00  0.00    -0.161 C  
HETATM   13  O   UNL     1      -6.316  19.029  67.120  1.00  0.00    -0.186 OA 
HETATM   14  C   UNL     1      -5.743  17.227  68.516  1.00  0.00    -0.150 C  
HETATM   15  C   UNL     1      -5.477  15.746  68.891  1.00  0.00    -0.103 C  
HETATM   16  C   UNL     1      -7.378  19.883  67.548  1.00  0.00    -0.270 C  
HETATM   17  O   UNL     1      -8.764  11.370  68.610  1.00  0.00    -0.158 OA 
HETATM   18  C   UNL     1      -8.641  19.015  67.762  1.00  0.00    -0.298 C  
HETATM   19  O   UNL     1      -5.855  14.883  67.797  1.00  0.00    -0.198 OA 
HETATM   20  C   UNL     1      -8.090  10.106  68.667  1.00  0.00    -0.109 C  
HETATM   21  O   UNL     1      -9.373   8.829  66.911  1.00  0.00    -0.150 OA 
HETATM   22  C   UNL     1      -7.288  14.771  67.582  1.00  0.00    -0.186 C  
HETATM   23  C   UNL     1      -8.911   8.848  68.281  1.00  0.00    -0.134 C  
HETATM   24  C   UNL     1      -7.698  14.335  65.843  1.00  0.00     3.757 C  
HETATM   25  C   UNL     1      -8.070   7.657  68.807  1.00  0.00    -0.127 C  
HETATM   26  C   UNL     1      -7.936  14.512  69.061  1.00  0.00    -0.090 C  
HETATM   27  O   UNL     1      -7.397   8.149  65.863  1.00  0.00    -0.074 OA 
HETATM   28  C   UNL     1      -7.585  15.558  70.128  1.00  0.00     0.401 C  
HETATM   29  C   UNL     1      -6.840   7.210  66.850  1.00  0.00    -0.072 C  
HETATM   30  O   UNL     1      -8.569   6.401  68.374  1.00  0.00    -0.115 OA 
HETATM   31  C   UNL     1      -9.005  13.714  64.873  1.00  0.00     2.300 C  
HETATM   32  C   UNL     1      -9.555  12.183  64.698  1.00  0.00     0.066 C  
HETATM   33  C   UNL     1      -7.937   6.163  67.101  1.00  0.00    -0.102 C  
HETATM   34  C   UNL     1      -6.128  15.353  70.221  1.00  0.00    -0.098 C  
HETATM   35  C   UNL     1      -8.518  15.480  71.354  1.00  0.00     4.374 C  
HETATM   36  C   UNL     1      -8.984   6.485  66.070  1.00  0.00    -0.139 C  
HETATM   37  O   UNL     1      -9.789  11.930  63.263  1.00  0.00    -0.407 OA 
HETATM   38  C   UNL     1      -5.553  14.800  71.301  1.00  0.00    -0.064 C  
HETATM   39  C   UNL     1     -10.509  10.657  63.225  1.00  0.00     0.207 C  
HETATM   40  C   UNL     1     -11.658  10.952  64.144  1.00  0.00     0.995 C  
HETATM   41  C   UNL     1      -9.462   9.498  63.518  1.00  0.00     0.310 C  
HETATM   42  C   UNL     1      -9.640   8.305  64.512  1.00  0.00     1.853 C  
HETATM   43  C   UNL     1     -10.869  11.505  65.283  1.00  0.00    -0.319 C  
HETATM   44  C   UNL     1     -11.271  11.030  66.479  1.00  0.00    -0.079 C  
HETATM   45  C   UNL     1      -8.821   8.009  65.876  1.00  0.00    -0.153 C  
ENDROOT
BRANCH  16  46
HETATM   46  C   UNL     1      -6.994  20.677  68.807  1.00  0.00     0.084 C  
BRANCH  46  47
HETATM   47  C   UNL     1      -5.900  20.095  69.701  1.00  0.00    -0.330 C  
HETATM   48  H   UNL     1      -5.773  18.706  71.081  1.00  0.00     0.000 HD 
HETATM   49  O   UNL     1      -6.453  19.068  70.525  1.00  0.00     0.103 OA 
BRANCH  47  50
HETATM   50  C   UNL     1      -5.157  21.133  70.561  1.00  0.00    -0.155 C  
HETATM   51  N   UNL     1      -5.467  20.949  71.990  1.00  0.00    -0.576 NA 
HETATM   52  H1  UNL     1      -4.974  21.638  72.560  1.00  0.00     0.000 HD 
HETATM   53  H2  UNL     1      -5.274  19.997  72.299  1.00  0.00     0.000 HD 
ENDBRANCH  47  50
ENDBRANCH  46  47
ENDBRANCH  16  46
BRANCH  18  54
HETATM   54  O   UNL     1      -8.968  18.914  69.157  1.00  0.00    -0.192 OA 
HETATM   55  C   UNL     1     -10.141  19.615  69.559  1.00  0.00    -0.009 C  
ENDBRANCH  18  54
TORSDOF 4
ENDMDL
MODEL       33
REMARK 921   NORMALIZED FREE ENERGY PREDICTED BY IDOCK:    6.94 KCAL/MOL
REMARK 922        TOTAL FREE ENERGY PREDICTED BY IDOCK:    8.55 KCAL/MOL
REMARK 923 INTER-LIGAND FREE ENERGY PREDICTED BY IDOCK:    7.33 KCAL/MOL
REMARK 924 INTRA-LIGAND FREE ENERGY PREDICTED BY IDOCK:    1.22 KCAL/MOL
REMARK 927      BINDING AFFINITY PREDICTED BY RF-SCORE:    0.00 PKD
ROOT
HETATM    1  C   UNL     1      -7.772   6.859  63.658  1.00  0.00    -0.111 C  
HETATM    2  O   UNL     1      -8.748   7.886  63.761  1.00  0.00     0.247 OA 
HETATM    3  C   UNL     1      -8.548   8.636  64.939  1.00  0.00    -0.135 C  
HETATM    4  C   UNL     1      -9.561   9.705  65.150  1.00  0.00    -0.324 C  
HETATM    5  C   UNL     1      -9.336  10.022  66.617  1.00  0.00    -0.202 C  
HETATM    6  C   UNL     1      -7.847  10.493  67.014  1.00  0.00    -0.114 C  
HETATM    7  C   UNL     1      -7.150  11.770  68.008  1.00  0.00    -0.082 C  
HETATM    8  C   UNL     1      -7.500  12.929  69.253  1.00  0.00     0.314 C  
HETATM    9  O   UNL     1      -6.779  12.849  70.272  1.00  0.00     0.261 OA 
HETATM   10  C   UNL     1      -8.360  14.299  69.184  1.00  0.00     0.124 C  
HETATM   11  C   UNL     1      -9.869  14.763  69.624  1.00  0.00     0.076 C  
HETATM   12  C   UNL     1     -11.310  14.590  68.890  1.00  0.00    -0.274 C  
HETATM   13  O   UNL     1     -12.157  15.572  69.533  1.00  0.00    -0.344 OA 
HETATM   14  C   UNL     1     -11.725  14.733  67.380  1.00  0.00    -0.371 C  
HETATM   15  C   UNL     1     -11.376  13.663  66.313  1.00  0.00    -0.312 C  
HETATM   16  C   UNL     1     -11.372  16.679  69.979  1.00  0.00     0.105 C  
HETATM   17  O   UNL     1      -6.990  10.411  65.853  1.00  0.00    -0.119 OA 
HETATM   18  C   UNL     1      -9.880  16.277  69.905  1.00  0.00     0.154 C  
HETATM   19  O   UNL     1     -11.014  12.422  66.957  1.00  0.00    -0.242 OA 
HETATM   20  C   UNL     1      -7.164   9.284  64.982  1.00  0.00    -0.098 C  
HETATM   21  O   UNL     1      -6.005   7.491  66.324  1.00  0.00    -0.036 OA 
HETATM   22  C   UNL     1      -9.728  12.443  67.633  1.00  0.00    -0.195 C  
HETATM   23  C   UNL     1      -6.091   8.167  65.048  1.00  0.00    -0.045 C  
HETATM   24  C   UNL     1      -9.641  11.217  69.000  1.00  0.00    -0.048 C  
HETATM   25  C   UNL     1      -6.324   7.326  63.768  1.00  0.00    -0.045 C  
HETATM   26  C   UNL     1      -8.686  13.125  66.573  1.00  0.00     0.077 C  
HETATM   27  O   UNL     1      -7.832   6.050  66.104  1.00  0.00    -0.100 OA 
HETATM   28  C   UNL     1      -9.091  14.507  66.044  1.00  0.00     0.026 C  
HETATM   29  C   UNL     1      -7.777   5.710  64.674  1.00  0.00    -0.099 C  
HETATM   30  O   UNL     1      -5.557   6.132  63.748  1.00  0.00    -0.017 OA 
HETATM   31  C   UNL     1      -8.486  10.393  70.010  1.00  0.00     0.234 C  
HETATM   32  C   UNL     1      -7.515   9.117  69.680  1.00  0.00    -0.078 C  
HETATM   33  C   UNL     1      -6.366   5.152  64.426  1.00  0.00    -0.033 C  
HETATM   34  C   UNL     1     -10.323  14.153  65.315  1.00  0.00    -0.409 C  
HETATM   35  C   UNL     1      -7.913  15.248  65.378  1.00  0.00     4.490 C  
HETATM   36  C   UNL     1      -5.780   5.035  65.806  1.00  0.00    -0.018 C  
HETATM   37  O   UNL     1      -7.573   8.177  70.815  1.00  0.00    -0.066 OA 
HETATM   38  C   UNL     1     -10.391  14.180  63.974  1.00  0.00     1.148 C  
HETATM   39  C   UNL     1      -6.501   7.216  70.554  1.00  0.00    -0.047 C  
HETATM   40  C   UNL     1      -5.328   8.137  70.388  1.00  0.00    -0.022 C  
HETATM   41  C   UNL     1      -6.990   6.244  69.397  1.00  0.00    -0.067 C  
HETATM   42  C   UNL     1      -6.181   5.815  68.130  1.00  0.00    -0.039 C  
HETATM   43  C   UNL     1      -5.948   9.079  69.411  1.00  0.00    -0.037 C  
HETATM   44  C   UNL     1      -5.126   9.390  68.389  1.00  0.00    -0.034 C  
HETATM   45  C   UNL     1      -6.487   6.169  66.580  1.00  0.00    -0.046 C  
ENDROOT
BRANCH  16  46
HETATM   46  C   UNL     1     -11.676  17.950  69.168  1.00  0.00     3.177 C  
BRANCH  46  47
HETATM   47  C   UNL     1     -10.592  19.026  69.111  1.00  0.00     0.574 C  
HETATM   48  H   UNL     1      -9.776  20.298  70.363  1.00  0.00     0.000 HD 
HETATM   49  O   UNL     1     -10.450  19.629  70.398  1.00  0.00     0.605 OA 
BRANCH  47  50
HETATM   50  C   UNL     1     -10.815  20.103  68.034  1.00  0.00     0.167 C  
HETATM   51  N   UNL     1     -11.261  19.493  66.768  1.00  0.00    -0.117 NA 
HETATM   52  H1  UNL     1     -11.409  20.207  66.054  1.00  0.00     0.000 HD 
HETATM   53  H2  UNL     1     -12.090  18.914  66.900  1.00  0.00     0.000 HD 
ENDBRANCH  47  50
ENDBRANCH  46  47
ENDBRANCH  16  46
BRANCH  18  54
HETATM   54  O   UNL     1      -9.203  16.992  68.860  1.00  0.00    -0.264 OA 
HETATM   55  C   UNL     1      -7.920  17.507  69.207  1.00  0.00     0.145 C  
ENDBRANCH  18  54
TORSDOF 4
ENDMDL
MODEL       34
REMARK 921   NORMALIZED FREE ENERGY PREDICTED BY IDOCK:    9.47 KCAL/MOL
REMARK 922        TOTAL FREE ENERGY PREDICTED BY IDOCK:   11.67 KCAL/MOL
REMARK 923 INTER-LIGAND FREE ENERGY PREDICTED BY IDOCK:   12.01 KCAL/MOL
REMARK 924 INTRA-LIGAND FREE ENERGY PREDICTED BY IDOCK:   -0.33 KCAL/MOL
REMARK 927      BINDING AFFINITY PREDICTED BY RF-SCORE:    0.00 PKD
ROOT
HETATM    1  C   UNL     1     -11.534   5.341  65.182  1.00  0.00     1.742 C  
HETATM    2  O   UNL     1     -12.112   6.572  65.592  1.00  0.00     4.152 OA 
HETATM    3  C   UNL     1     -11.122   7.424  66.125  1.00  0.00     2.294 C  
HETATM    4  C   UNL     1     -11.651   8.721  66.626  1.00  0.00     3.372 C  
HETATM    5  C   UNL     1     -10.482   9.196  67.469  1.00  0.00    -0.335 C  
HETATM    6  C   UNL     1      -9.077   9.358  66.697  1.00  0.00    -0.149 C  
HETATM    7  C   UNL     1      -7.801  10.571  66.641  1.00  0.00    -0.125 C  
HETATM    8  C   UNL     1      -7.143  11.956  67.456  1.00  0.00    -0.123 C  
HETATM    9  O   UNL     1      -5.936  11.865  67.768  1.00  0.00    -0.049 OA 
HETATM   10  C   UNL     1      -7.723  13.463  67.576  1.00  0.00    -0.182 C  
HETATM   11  C   UNL     1      -8.514  14.330  68.720  1.00  0.00    -0.094 C  
HETATM   12  C   UNL     1     -10.085  14.392  69.135  1.00  0.00    -0.098 C  
HETATM   13  O   UNL     1     -10.209  15.631  69.872  1.00  0.00    -0.281 OA 
HETATM   14  C   UNL     1     -11.388  14.396  68.256  1.00  0.00    -0.311 C  
HETATM   15  C   UNL     1     -11.921  13.125  67.547  1.00  0.00    -0.317 C  
HETATM   16  C   UNL     1      -9.246  16.578  69.405  1.00  0.00    -0.013 C  
HETATM   17  O   UNL     1      -9.222   8.901  65.334  1.00  0.00    -0.205 OA 
HETATM   18  C   UNL     1      -8.219  15.829  68.523  1.00  0.00    -0.166 C  
HETATM   19  O   UNL     1     -11.318  11.946  68.124  1.00  0.00    -0.243 OA 
HETATM   20  C   UNL     1     -10.016   7.727  65.111  1.00  0.00     2.354 C  
HETATM   21  O   UNL     1      -8.399   5.938  65.847  1.00  0.00    -0.123 OA 
HETATM   22  C   UNL     1      -9.913  11.767  67.804  1.00  0.00    -0.190 C  
HETATM   23  C   UNL     1      -9.261   6.412  64.787  1.00  0.00     0.884 C  
HETATM   24  C   UNL     1      -9.030  10.778  69.078  1.00  0.00    -0.141 C  
HETATM   25  C   UNL     1     -10.352   5.465  64.226  1.00  0.00     1.958 C  
HETATM   26  C   UNL     1      -9.793  12.014  66.192  1.00  0.00    -0.255 C  
HETATM   27  O   UNL     1     -10.010   4.951  67.223  1.00  0.00    -0.176 OA 
HETATM   28  C   UNL     1     -10.341  13.356  65.687  1.00  0.00    -0.295 C  
HETATM   29  C   UNL     1     -10.949   4.394  66.236  1.00  0.00     1.016 C  
HETATM   30  O   UNL     1      -9.886   4.135  64.053  1.00  0.00    -0.159 OA 
HETATM   31  C   UNL     1      -7.563   9.869  69.312  1.00  0.00    -0.101 C  
HETATM   32  C   UNL     1      -7.159   8.366  68.806  1.00  0.00    -0.068 C  
HETATM   33  C   UNL     1     -10.110   3.489  65.320  1.00  0.00     0.081 C  
HETATM   34  C   UNL     1     -11.768  13.195  66.025  1.00  0.00    -0.424 C  
HETATM   35  C   UNL     1      -9.855  13.688  64.261  1.00  0.00     0.762 C  
HETATM   36  C   UNL     1      -8.764   3.449  65.991  1.00  0.00    -0.125 C  
HETATM   37  O   UNL     1      -6.518   7.650  69.925  1.00  0.00    -0.033 OA 
HETATM   38  C   UNL     1     -12.710  13.033  65.081  1.00  0.00    -0.461 C  
HETATM   39  C   UNL     1      -5.969   6.435  69.321  1.00  0.00    -0.021 C  
HETATM   40  C   UNL     1      -5.140   7.018  68.214  1.00  0.00    -0.015 C  
HETATM   41  C   UNL     1      -7.177   5.442  69.045  1.00  0.00    -0.062 C  
HETATM   42  C   UNL     1      -7.454   4.646  67.728  1.00  0.00    -0.077 C  
HETATM   43  C   UNL     1      -6.179   7.919  67.635  1.00  0.00    -0.051 C  
HETATM   44  C   UNL     1      -6.227   7.868  66.290  1.00  0.00    -0.046 C  
HETATM   45  C   UNL     1      -8.686   4.821  66.694  1.00  0.00    -0.111 C  
ENDROOT
BRANCH  16  46
HETATM   46  C   UNL     1      -9.915  17.746  68.661  1.00  0.00    -0.379 C  
BRANCH  46  47
HETATM   47  C   UNL     1      -9.666  19.156  69.194  1.00  0.00    -0.294 C  
HETATM   48  H   UNL     1     -10.207  20.207  70.760  1.00  0.00     0.000 HD 
HETATM   49  O   UNL     1     -10.362  19.330  70.429  1.00  0.00     0.739 OA 
BRANCH  47  50
HETATM   50  C   UNL     1     -10.024  20.284  68.210  1.00  0.00    -0.234 C  
HETATM   51  N   UNL     1      -9.769  19.868  66.820  1.00  0.00    -0.386 NA 
HETATM   52  H1  UNL     1     -10.006  20.616  66.167  1.00  0.00     0.000 HD 
HETATM   53  H2  UNL     1     -10.253  19.001  66.590  1.00  0.00     0.000 HD 
ENDBRANCH  47  50
ENDBRANCH  46  47
ENDBRANCH  16  46
BRANCH  18  54
HETATM   54  O   UNL     1      -8.359  16.197  67.142  1.00  0.00    -0.171 OA 
HETATM   55  C   UNL     1      -7.257  16.909  66.587  1.00  0.00    -0.259 C  
ENDBRANCH  18  54
TORSDOF 4
ENDMDL
MODEL       35
REMARK 921   NORMALIZED FREE ENERGY PREDICTED BY IDOCK:   11.27 KCAL/MOL
REMARK 922        TOTAL FREE ENERGY PREDICTED BY IDOCK:   13.89 KCAL/MOL
REMARK 923 INTER-LIGAND FREE ENERGY PREDICTED BY IDOCK:   13.82 KCAL/MOL
REMARK 924 INTRA-LIGAND FREE ENERGY PREDICTED BY IDOCK:    0.07 KCAL/MOL
REMARK 927      BINDING AFFINITY PREDICTED BY RF-SCORE:    0.00 PKD
ROOT
HETATM    1  C   UNL     1     -12.062  17.411  69.169  1.00  0.00     3.276 C  
HETATM    2  O   UNL     1     -12.532  16.116  68.819  1.00  0.00     0.296 OA 
HETATM    3  C   UNL     1     -11.448  15.225  68.676  1.00  0.00    -0.337 C  
HETATM    4  C   UNL     1     -11.848  13.854  68.261  1.00  0.00    -0.412 C  
HETATM    5  C   UNL     1     -10.513  13.295  67.806  1.00  0.00    -0.242 C  
HETATM    6  C   UNL     1      -9.340  13.289  68.911  1.00  0.00     0.252 C  
HETATM    7  C   UNL     1      -8.125  12.135  69.456  1.00  0.00     1.043 C  
HETATM    8  C   UNL     1      -7.298  10.666  69.041  1.00  0.00    -0.108 C  
HETATM    9  O   UNL     1      -6.050  10.745  69.020  1.00  0.00    -0.041 OA 
HETATM   10  C   UNL     1      -7.842   9.141  69.010  1.00  0.00    -0.090 C  
HETATM   11  C   UNL     1      -8.337   8.092  67.851  1.00  0.00    -0.129 C  
HETATM   12  C   UNL     1      -9.759   7.925  67.081  1.00  0.00    -0.191 C  
HETATM   13  O   UNL     1      -9.709   6.587  66.530  1.00  0.00    -0.167 OA 
HETATM   14  C   UNL     1     -11.237   8.011  67.609  1.00  0.00     0.543 C  
HETATM   15  C   UNL     1     -11.918   9.356  67.970  1.00  0.00     2.811 C  
HETATM   16  C   UNL     1      -8.896   5.749  67.352  1.00  0.00    -0.106 C  
HETATM   17  O   UNL     1      -9.810  13.937  70.115  1.00  0.00     1.325 OA 
HETATM   18  C   UNL     1      -8.110   6.648  68.335  1.00  0.00    -0.115 C  
HETATM   19  O   UNL     1     -11.184  10.455  67.387  1.00  0.00    -0.301 OA 
HETATM   20  C   UNL     1     -10.626  15.106  69.960  1.00  0.00    -0.216 C  
HETATM   21  O   UNL     1      -8.864  16.815  69.380  1.00  0.00    -0.067 OA 
HETATM   22  C   UNL     1      -9.898  10.720  68.007  1.00  0.00    -0.165 C  
HETATM   23  C   UNL     1      -9.963  16.476  70.258  1.00  0.00     0.832 C  
HETATM   24  C   UNL     1      -8.723  11.537  66.852  1.00  0.00    -0.181 C  
HETATM   25  C   UNL     1     -11.150  17.463  70.390  1.00  0.00     1.292 C  
HETATM   26  C   UNL     1     -10.177  10.716  69.619  1.00  0.00    -0.156 C  
HETATM   27  O   UNL     1     -10.083  17.542  67.523  1.00  0.00    -0.301 OA 
HETATM   28  C   UNL     1     -10.842   9.447  70.170  1.00  0.00    -0.287 C  
HETATM   29  C   UNL     1     -11.230  18.210  68.159  1.00  0.00     0.534 C  
HETATM   30  O   UNL     1     -10.731  18.817  70.471  1.00  0.00     1.492 OA 
HETATM   31  C   UNL     1      -7.237  12.445  66.848  1.00  0.00     0.087 C  
HETATM   32  C   UNL     1      -6.958  14.017  67.207  1.00  0.00     0.140 C  
HETATM   33  C   UNL     1     -10.634  19.264  69.105  1.00  0.00     0.534 C  
HETATM   34  C   UNL     1     -12.142   9.514  69.476  1.00  0.00     0.689 C  
HETATM   35  C   UNL     1     -10.720   9.341  71.704  1.00  0.00    -0.393 C  
HETATM   36  C   UNL     1      -9.165  19.245  68.782  1.00  0.00    -0.421 C  
HETATM   37  O   UNL     1      -6.057  14.580  66.182  1.00  0.00     3.639 OA 
HETATM   38  C   UNL     1     -13.284   9.785  70.129  1.00  0.00     0.579 C  
HETATM   39  C   UNL     1      -5.664  15.886  66.713  1.00  0.00     0.752 C  
HETATM   40  C   UNL     1      -5.135  15.496  68.063  1.00  0.00    -0.131 C  
HETATM   41  C   UNL     1      -6.895  16.873  66.536  1.00  0.00    -0.249 C  
HETATM   42  C   UNL     1      -7.479  17.844  67.613  1.00  0.00    -0.208 C  
HETATM   43  C   UNL     1      -6.290  14.659  68.500  1.00  0.00    -0.087 C  
HETATM   44  C   UNL     1      -6.665  14.905  69.770  1.00  0.00    -0.179 C  
HETATM   45  C   UNL     1      -8.928  17.787  68.332  1.00  0.00    -0.281 C  
ENDROOT
BRANCH  16  46
HETATM   46  C   UNL     1      -9.735   4.683  68.077  1.00  0.00    -0.197 C  
BRANCH  46  47
HETATM   47  C   UNL     1      -8.996   3.475  68.653  1.00  0.00    -0.130 C  
HETATM   48  H   UNL     1      -8.684   2.708  70.431  1.00  0.00     0.000 HD 
HETATM   49  O   UNL     1      -9.144   3.459  70.073  1.00  0.00    -0.099 OA 
BRANCH  47  50
HETATM   50  C   UNL     1      -7.509   3.390  68.264  1.00  0.00    -0.053 C  
HETATM   51  N   UNL     1      -6.681   3.046  69.434  1.00  0.00    -0.033 NA 
HETATM   52  H1  UNL     1      -5.695   2.989  69.176  1.00  0.00     0.000 HD 
HETATM   53  H2  UNL     1      -7.002   2.190  69.885  1.00  0.00     0.000 HD 
ENDBRANCH  47  50
ENDBRANCH  46  47
ENDBRANCH  16  46
BRANCH  18  54
HETATM   54  O   UNL     1      -8.585   6.483  69.680  1.00  0.00    -0.129 OA 
HETATM   55  C   UNL     1      -7.575   6.255  70.659  1.00  0.00    -0.096 C  
ENDBRANCH  18  54
TORSDOF 4
ENDMDL
MODEL       36
REMARK 921   NORMALIZED FREE ENERGY PREDICTED BY IDOCK:   12.15 KCAL/MOL
REMARK 922        TOTAL FREE ENERGY PREDICTED BY IDOCK:   14.97 KCAL/MOL
REMARK 923 INTER-LIGAND FREE ENERGY PREDICTED BY IDOCK:   14.93 KCAL/MOL
REMARK 924 INTRA-LIGAND FREE ENERGY PREDICTED BY IDOCK:    0.04 KCAL/MOL
REMARK 927      BINDING AFFINITY PREDICTED BY RF-SCORE:    0.00 PKD
ROOT
HETATM    1  C   UNL     1      -9.065  18.120  65.154  1.00  0.00     2.538 C  
HETATM    2  O   UNL     1      -8.346  16.911  64.950  1.00  0.00     2.331 OA 
HETATM    3  C   UNL     1      -8.834  15.901  65.807  1.00  0.00     0.068 C  
HETATM    4  C   UNL     1      -8.101  14.612  65.692  1.00  0.00     3.475 C  
HETATM    5  C   UNL     1      -8.555  13.916  66.962  1.00  0.00    -0.190 C  
HETATM    6  C   UNL     1     -10.145  13.712  67.123  1.00  0.00    -0.245 C  
HETATM    7  C   UNL     1     -11.205  12.393  67.612  1.00  0.00    -0.340 C  
HETATM    8  C   UNL     1     -11.253  10.855  68.417  1.00  0.00    -0.285 C  
HETATM    9  O   UNL     1     -12.052  10.782  69.376  1.00  0.00    -0.308 OA 
HETATM   10  C   UNL     1     -10.700   9.412  67.934  1.00  0.00    -0.269 C  
HETATM   11  C   UNL     1      -9.384   8.490  68.255  1.00  0.00    -0.143 C  
HETATM   12  C   UNL     1      -7.865   8.536  67.676  1.00  0.00    -0.103 C  
HETATM   13  O   UNL     1      -7.325   7.231  67.992  1.00  0.00    -0.091 OA 
HETATM   14  C   UNL     1      -7.320   8.777  66.221  1.00  0.00    -0.087 C  
HETATM   15  C   UNL     1      -7.310  10.177  65.554  1.00  0.00    -0.143 C  
HETATM   16  C   UNL     1      -8.372   6.259  68.016  1.00  0.00    -0.114 C  
HETATM   17  O   UNL     1     -10.826  14.353  66.021  1.00  0.00    -0.299 OA 
HETATM   18  C   UNL     1      -9.727   7.007  68.021  1.00  0.00    -0.129 C  
HETATM   19  O   UNL     1      -7.472  11.204  66.557  1.00  0.00    -0.143 OA 
HETATM   20  C   UNL     1     -10.320  15.620  65.579  1.00  0.00    -0.396 C  
HETATM   21  O   UNL     1     -11.219  17.126  67.391  1.00  0.00    -0.026 OA 
HETATM   22  C   UNL     1      -8.802  11.278  67.137  1.00  0.00    -0.153 C  
HETATM   23  C   UNL     1     -11.132  16.882  65.968  1.00  0.00     0.319 C  
HETATM   24  C   UNL     1      -8.784  12.000  68.828  1.00  0.00     0.083 C  
HETATM   25  C   UNL     1     -10.581  18.000  65.047  1.00  0.00     0.986 C  
HETATM   26  C   UNL     1      -9.837  11.230  65.871  1.00  0.00    -0.272 C  
HETATM   27  O   UNL     1      -9.115  18.087  67.731  1.00  0.00    -0.256 OA 
HETATM   28  C   UNL     1      -9.676  10.027  64.932  1.00  0.00    -0.377 C  
HETATM   29  C   UNL     1      -8.933  18.859  66.492  1.00  0.00    -0.323 C  
HETATM   30  O   UNL     1     -11.071  19.286  65.393  1.00  0.00    -0.384 OA 
HETATM   31  C   UNL     1      -9.846  12.718  70.007  1.00  0.00     2.768 C  
HETATM   32  C   UNL     1     -10.481  14.225  70.079  1.00  0.00     0.454 C  
HETATM   33  C   UNL     1     -10.155  19.784  66.387  1.00  0.00    -0.491 C  
HETATM   34  C   UNL     1      -8.321  10.287  64.410  1.00  0.00    -0.166 C  
HETATM   35  C   UNL     1     -10.900   9.832  64.014  1.00  0.00     3.634 C  
HETATM   36  C   UNL     1     -10.858  19.600  67.704  1.00  0.00    -0.413 C  
HETATM   37  O   UNL     1     -10.355  14.722  71.462  1.00  0.00     0.948 OA 
HETATM   38  C   UNL     1      -8.108  10.664  63.139  1.00  0.00    -0.045 C  
HETATM   39  C   UNL     1     -11.162  15.942  71.491  1.00  0.00    -0.180 C  
HETATM   40  C   UNL     1     -12.477  15.425  70.984  1.00  0.00    -0.469 C  
HETATM   41  C   UNL     1     -10.350  17.080  70.739  1.00  0.00     1.614 C  
HETATM   42  C   UNL     1     -10.900  18.063  69.654  1.00  0.00     1.189 C  
HETATM   43  C   UNL     1     -11.963  14.716  69.776  1.00  0.00    -0.378 C  
HETATM   44  C   UNL     1     -12.709  14.944  68.677  1.00  0.00     0.660 C  
HETATM   45  C   UNL     1     -10.500  18.148  68.088  1.00  0.00    -0.349 C  
ENDROOT
BRANCH  16  46
HETATM   46  C   UNL     1      -8.253   5.271  66.844  1.00  0.00    -0.108 C  
BRANCH  46  47
HETATM   47  C   UNL     1      -6.878   4.663  66.570  1.00  0.00    -0.058 C  
HETATM   48  H   UNL     1      -5.824   4.171  64.990  1.00  0.00     0.000 HD 
HETATM   49  O   UNL     1      -6.679   4.549  65.161  1.00  0.00    -0.046 OA 
BRANCH  47  50
HETATM   50  C   UNL     1      -6.627   3.311  67.261  1.00  0.00    -0.038 C  
HETATM   51  N   UNL     1      -7.611   2.306  66.822  1.00  0.00    -0.065 NA 
HETATM   52  H1  UNL     1      -7.445   1.410  67.280  1.00  0.00     0.000 HD 
HETATM   53  H2  UNL     1      -7.628   2.213  65.806  1.00  0.00     0.000 HD 
ENDBRANCH  47  50
ENDBRANCH  46  47
ENDBRANCH  16  46
BRANCH  18  54
HETATM   54  O   UNL     1     -10.415   6.836  66.773  1.00  0.00    -0.248 OA 
HETATM   55  C   UNL     1     -11.837   6.803  66.862  1.00  0.00     1.991 C  
ENDBRANCH  18  54
TORSDOF 4
ENDMDL
MODEL       37
REMARK 921   NORMALIZED FREE ENERGY PREDICTED BY IDOCK:   13.72 KCAL/MOL
REMARK 922        TOTAL FREE ENERGY PREDICTED BY IDOCK:   16.91 KCAL/MOL
REMARK 923 INTER-LIGAND FREE ENERGY PREDICTED BY IDOCK:   13.92 KCAL/MOL
REMARK 924 INTRA-LIGAND FREE ENERGY PREDICTED BY IDOCK:    2.99 KCAL/MOL
REMARK 927      BINDING AFFINITY PREDICTED BY RF-SCORE:    0.00 PKD
ROOT
HETATM    1  C   UNL     1     -11.729  12.493  63.080  1.00  0.00    -0.241 C  
HETATM    2  O   UNL     1     -11.075  11.346  63.606  1.00  0.00    -0.399 OA 
HETATM    3  C   UNL     1     -10.960  11.448  65.008  1.00  0.00    -0.204 C  
HETATM    4  C   UNL     1     -10.241  10.307  65.636  1.00  0.00    -0.301 C  
HETATM    5  C   UNL     1      -9.927  10.888  67.002  1.00  0.00    -0.227 C  
HETATM    6  C   UNL     1     -11.197  11.372  67.869  1.00  0.00    -0.288 C  
HETATM    7  C   UNL     1     -11.723  11.200  69.542  1.00  0.00    -0.405 C  
HETATM    8  C   UNL     1     -11.195  10.787  71.144  1.00  0.00     0.704 C  
HETATM    9  O   UNL     1     -11.402  11.662  72.013  1.00  0.00     3.414 OA 
HETATM   10  C   UNL     1     -10.796   9.347  71.767  1.00  0.00    -0.244 C  
HETATM   11  C   UNL     1      -9.400   8.562  72.112  1.00  0.00    -0.353 C  
HETATM   12  C   UNL     1      -8.380   7.707  71.176  1.00  0.00    -0.111 C  
HETATM   13  O   UNL     1      -7.613   6.918  72.115  1.00  0.00    -0.091 OA 
HETATM   14  C   UNL     1      -8.655   6.676  70.022  1.00  0.00    -0.140 C  
HETATM   15  C   UNL     1      -9.132   7.108  68.611  1.00  0.00    -0.133 C  
HETATM   16  C   UNL     1      -8.396   6.640  73.277  1.00  0.00    -0.119 C  
HETATM   17  O   UNL     1     -12.400  11.231  67.080  1.00  0.00     0.369 OA 
HETATM   18  C   UNL     1      -9.645   7.553  73.250  1.00  0.00    -0.254 C  
HETATM   19  O   UNL     1      -8.892   8.519  68.418  1.00  0.00    -0.138 OA 
HETATM   20  C   UNL     1     -12.323  11.578  65.691  1.00  0.00     1.620 C  
HETATM   21  O   UNL     1     -12.371  14.094  65.846  1.00  0.00    -0.448 OA 
HETATM   22  C   UNL     1      -9.761   9.391  69.189  1.00  0.00    -0.165 C  
HETATM   23  C   UNL     1     -12.972  12.918  65.258  1.00  0.00     0.069 C  
HETATM   24  C   UNL     1      -8.990  11.029  69.513  1.00  0.00     0.355 C  
HETATM   25  C   UNL     1     -13.076  12.820  63.715  1.00  0.00     0.378 C  
HETATM   26  C   UNL     1     -11.273   8.805  68.978  1.00  0.00     0.307 C  
HETATM   27  O   UNL     1     -10.496  14.284  64.463  1.00  0.00    -0.381 OA 
HETATM   28  C   UNL     1     -11.463   7.326  69.337  1.00  0.00     0.168 C  
HETATM   29  C   UNL     1     -11.037  13.859  63.163  1.00  0.00     2.165 C  
HETATM   30  O   UNL     1     -13.471  14.044  63.114  1.00  0.00     1.581 OA 
HETATM   31  C   UNL     1      -9.404  12.649  70.002  1.00  0.00     3.428 C  
HETATM   32  C   UNL     1     -10.084  13.869  69.149  1.00  0.00     0.082 C  
HETATM   33  C   UNL     1     -12.246  14.768  62.891  1.00  0.00     2.463 C  
HETATM   34  C   UNL     1     -10.582   6.701  68.334  1.00  0.00    -0.289 C  
HETATM   35  C   UNL     1     -12.951   6.947  69.491  1.00  0.00     3.553 C  
HETATM   36  C   UNL     1     -12.181  15.790  63.992  1.00  0.00     0.260 C  
HETATM   37  O   UNL     1      -9.348  15.113  69.441  1.00  0.00    -0.218 OA 
HETATM   38  C   UNL     1     -11.068   5.989  67.303  1.00  0.00    -0.247 C  
HETATM   39  C   UNL     1     -10.165  16.174  68.851  1.00  0.00    -0.245 C  
HETATM   40  C   UNL     1     -11.492  15.904  69.499  1.00  0.00    -0.342 C  
HETATM   41  C   UNL     1      -9.963  16.125  67.277  1.00  0.00    -0.248 C  
HETATM   42  C   UNL     1     -11.082  16.174  66.186  1.00  0.00     0.087 C  
HETATM   43  C   UNL     1     -11.566  14.443  69.205  1.00  0.00    -0.345 C  
HETATM   44  C   UNL     1     -12.778  14.059  68.757  1.00  0.00     0.761 C  
HETATM   45  C   UNL     1     -11.521  15.011  65.150  1.00  0.00    -0.339 C  
ENDROOT
BRANCH  16  46
HETATM   46  C   UNL     1      -8.762   5.150  73.371  1.00  0.00    -0.114 C  
BRANCH  46  47
HETATM   47  C   UNL     1      -8.372   4.253  72.197  1.00  0.00    -0.103 C  
HETATM   48  H   UNL     1      -9.057   3.880  70.397  1.00  0.00     0.000 HD 
HETATM   49  O   UNL     1      -9.300   4.438  71.126  1.00  0.00    -0.129 OA 
BRANCH  47  50
HETATM   50  C   UNL     1      -8.245   2.760  72.547  1.00  0.00    -0.062 C  
HETATM   51  N   UNL     1      -9.404   2.002  72.043  1.00  0.00    -0.086 NA 
HETATM   52  H1  UNL     1      -9.319   1.012  72.276  1.00  0.00     0.000 HD 
HETATM   53  H2  UNL     1      -9.541   2.143  71.043  1.00  0.00     0.000 HD 
ENDBRANCH  47  50
ENDBRANCH  46  47
ENDBRANCH  16  46
BRANCH  18  54
HETATM   54  O   UNL     1     -10.837   6.791  73.003  1.00  0.00    -0.259 OA 
HETATM   55  C   UNL     1     -10.921   5.551  73.700  1.00  0.00    -0.180 C  
ENDBRANCH  18  54
TORSDOF 4
ENDMDL
MODEL       38
REMARK 921   NORMALIZED FREE ENERGY PREDICTED BY IDOCK:   14.28 KCAL/MOL
REMARK 922        TOTAL FREE ENERGY PREDICTED BY IDOCK:   17.61 KCAL/MOL
REMARK 923 INTER-LIGAND FREE ENERGY PREDICTED BY IDOCK:   17.86 KCAL/MOL
REMARK 924 INTRA-LIGAND FREE ENERGY PREDICTED BY IDOCK:   -0.25 KCAL/MOL
REMARK 927      BINDING AFFINITY PREDICTED BY RF-SCORE:    0.00 PKD
ROOT
HETATM    1  C   UNL     1      -5.505   5.016  69.465  1.00  0.00    -0.008 C  
HETATM    2  O   UNL     1      -5.196   6.339  69.050  1.00  0.00    -0.004 OA 
HETATM    3  C   UNL     1      -6.371   7.018  68.665  1.00  0.00    -0.035 C  
HETATM    4  C   UNL     1      -6.131   8.400  68.168  1.00  0.00    -0.050 C  
HETATM    5  C   UNL     1      -7.451   8.684  67.476  1.00  0.00    -0.090 C  
HETATM    6  C   UNL     1      -8.767   8.579  68.400  1.00  0.00    -0.143 C  
HETATM    7  C   UNL     1     -10.217   9.548  68.646  1.00  0.00    -0.215 C  
HETATM    8  C   UNL     1     -11.189  10.817  67.968  1.00  0.00    -0.307 C  
HETATM    9  O   UNL     1     -12.391  10.525  67.782  1.00  0.00     0.802 OA 
HETATM   10  C   UNL     1     -10.893  12.405  67.853  1.00  0.00    -0.253 C  
HETATM   11  C   UNL     1     -10.396  13.426  66.671  1.00  0.00    -0.269 C  
HETATM   12  C   UNL     1      -8.915  13.771  66.093  1.00  0.00     0.256 C  
HETATM   13  O   UNL     1      -9.089  15.031  65.403  1.00  0.00     0.243 OA 
HETATM   14  C   UNL     1      -7.542  13.981  66.828  1.00  0.00     0.725 C  
HETATM   15  C   UNL     1      -6.722  12.805  67.419  1.00  0.00    -0.134 C  
HETATM   16  C   UNL     1     -10.140  15.783  66.012  1.00  0.00    -0.337 C  
HETATM   17  O   UNL     1      -8.393   8.120  69.719  1.00  0.00    -0.120 OA 
HETATM   18  C   UNL     1     -10.918  14.844  66.964  1.00  0.00    -0.327 C  
HETATM   19  O   UNL     1      -7.176  11.554  66.858  1.00  0.00    -0.136 OA 
HETATM   20  C   UNL     1      -7.390   7.098  69.803  1.00  0.00    -0.085 C  
HETATM   21  O   UNL     1      -8.751   5.073  69.165  1.00  0.00    -0.091 OA 
HETATM   22  C   UNL     1      -8.486  11.124  67.318  1.00  0.00    -0.137 C  
HETATM   23  C   UNL     1      -7.868   5.663  70.147  1.00  0.00    -0.091 C  
HETATM   24  C   UNL     1      -9.325  10.028  66.103  1.00  0.00    -0.220 C  
HETATM   25  C   UNL     1      -6.576   4.907  70.546  1.00  0.00    -0.035 C  
HETATM   26  C   UNL     1      -8.463  11.306  68.943  1.00  0.00    -0.062 C  
HETATM   27  O   UNL     1      -7.160   4.417  67.583  1.00  0.00    -0.062 OA 
HETATM   28  C   UNL     1      -8.099  12.710  69.445  1.00  0.00     0.931 C  
HETATM   29  C   UNL     1      -6.035   4.008  68.438  1.00  0.00    -0.027 C  
HETATM   30  O   UNL     1      -6.785   3.513  70.709  1.00  0.00    -0.031 OA 
HETATM   31  C   UNL     1     -10.632   8.883  65.987  1.00  0.00     0.788 C  
HETATM   32  C   UNL     1     -10.713   7.320  66.466  1.00  0.00     0.260 C  
HETATM   33  C   UNL     1      -6.598   2.947  69.397  1.00  0.00    -0.033 C  
HETATM   34  C   UNL     1      -6.713  12.809  68.950  1.00  0.00    -0.097 C  
HETATM   35  C   UNL     1      -8.471  12.916  70.928  1.00  0.00     8.872 C  
HETATM   36  C   UNL     1      -7.984   2.690  68.873  1.00  0.00    -0.062 C  
HETATM   37  O   UNL     1     -11.345   6.532  65.391  1.00  0.00     3.456 OA 
HETATM   38  C   UNL     1      -5.656  12.790  69.780  1.00  0.00    -0.101 C  
HETATM   39  C   UNL     1     -11.606   5.225  65.996  1.00  0.00     1.356 C  
HETATM   40  C   UNL     1     -12.392   5.626  67.210  1.00  0.00     6.332 C  
HETATM   41  C   UNL     1     -10.223   4.451  66.097  1.00  0.00    -0.232 C  
HETATM   42  C   UNL     1      -9.668   3.683  67.341  1.00  0.00    -0.106 C  
HETATM   43  C   UNL     1     -11.464   6.680  67.713  1.00  0.00     0.172 C  
HETATM   44  C   UNL     1     -11.256   6.604  69.043  1.00  0.00    -0.289 C  
HETATM   45  C   UNL     1      -8.374   4.045  68.244  1.00  0.00    -0.091 C  
ENDROOT
BRANCH  16  46
HETATM   46  C   UNL     1      -9.602  17.030  66.731  1.00  0.00    -0.274 C  
BRANCH  46  47
HETATM   47  C   UNL     1      -9.610  18.349  65.958  1.00  0.00    -0.057 C  
HETATM   48  H   UNL     1      -8.364  19.834  65.655  1.00  0.00     0.000 HD 
HETATM   49  O   UNL     1      -8.358  19.014  66.136  1.00  0.00    -0.379 OA 
BRANCH  47  50
HETATM   50  C   UNL     1     -10.776  19.290  66.310  1.00  0.00    -0.384 C  
HETATM   51  N   UNL     1     -10.827  19.541  67.761  1.00  0.00    -0.357 NA 
HETATM   52  H1  UNL     1     -11.600  20.165  67.995  1.00  0.00     0.000 HD 
HETATM   53  H2  UNL     1      -9.938  19.894  68.115  1.00  0.00     0.000 HD 
ENDBRANCH  47  50
ENDBRANCH  46  47
ENDBRANCH  16  46
BRANCH  18  54
HETATM   54  O   UNL     1     -10.689  15.196  68.337  1.00  0.00    -0.238 OA 
HETATM   55  C   UNL     1     -11.824  15.698  69.036  1.00  0.00    -0.364 C  
ENDBRANCH  18  54
TORSDOF 4
ENDMDL
MODEL       39
REMARK 921   NORMALIZED FREE ENERGY PREDICTED BY IDOCK:   15.22 KCAL/MOL
REMARK 922        TOTAL FREE ENERGY PREDICTED BY IDOCK:   18.76 KCAL/MOL
REMARK 923 INTER-LIGAND FREE ENERGY PREDICTED BY IDOCK:   13.67 KCAL/MOL
REMARK 924 INTRA-LIGAND FREE ENERGY PREDICTED BY IDOCK:    5.09 KCAL/MOL
REMARK 927      BINDING AFFINITY PREDICTED BY RF-SCORE:    0.00 PKD
ROOT
HETATM    1  C   UNL     1      -6.321   3.693  70.544  1.00  0.00    -0.027 C  
HETATM    2  O   UNL     1      -6.691   4.926  71.144  1.00  0.00    -0.033 OA 
HETATM    3  C   UNL     1      -7.244   5.794  70.180  1.00  0.00    -0.072 C  
HETATM    4  C   UNL     1      -7.614   7.131  70.716  1.00  0.00    -0.089 C  
HETATM    5  C   UNL     1      -7.767   7.920  69.429  1.00  0.00    -0.105 C  
HETATM    6  C   UNL     1      -8.851   7.352  68.380  1.00  0.00    -0.121 C  
HETATM    7  C   UNL     1     -10.130   8.046  67.388  1.00  0.00    -0.294 C  
HETATM    8  C   UNL     1     -10.746   9.529  66.727  1.00  0.00    -0.066 C  
HETATM    9  O   UNL     1     -10.879   9.542  65.484  1.00  0.00     0.819 OA 
HETATM   10  C   UNL     1     -11.493  10.762  67.463  1.00  0.00    -0.174 C  
HETATM   11  C   UNL     1     -11.064  12.258  67.977  1.00  0.00    -0.285 C  
HETATM   12  C   UNL     1     -10.311  12.762  69.328  1.00  0.00     0.328 C  
HETATM   13  O   UNL     1     -10.622  14.173  69.403  1.00  0.00    -0.165 OA 
HETATM   14  C   UNL     1     -10.462  12.309  70.826  1.00  0.00     4.370 C  
HETATM   15  C   UNL     1      -9.893  10.967  71.354  1.00  0.00     5.732 C  
HETATM   16  C   UNL     1     -11.888  14.429  68.792  1.00  0.00    -0.325 C  
HETATM   17  O   UNL     1      -9.392   6.106  68.875  1.00  0.00    -0.124 OA 
HETATM   18  C   UNL     1     -12.304  13.172  67.992  1.00  0.00     0.162 C  
HETATM   19  O   UNL     1      -8.917  10.444  70.428  1.00  0.00     0.348 OA 
HETATM   20  C   UNL     1      -8.482   5.197  69.509  1.00  0.00    -0.093 C  
HETATM   21  O   UNL     1      -7.325   4.228  67.489  1.00  0.00    -0.067 OA 
HETATM   22  C   UNL     1      -9.472   9.940  69.184  1.00  0.00    -0.196 C  
HETATM   23  C   UNL     1      -8.057   3.942  68.702  1.00  0.00    -0.074 C  
HETATM   24  C   UNL     1      -8.257   9.999  67.805  1.00  0.00    -0.113 C  
HETATM   25  C   UNL     1      -7.426   2.997  69.755  1.00  0.00    -0.044 C  
HETATM   26  C   UNL     1     -10.741   9.002  69.617  1.00  0.00    -0.228 C  
HETATM   27  O   UNL     1      -5.218   4.637  68.414  1.00  0.00    -0.006 OA 
HETATM   28  C   UNL     1     -11.798   9.686  70.494  1.00  0.00    -0.284 C  
HETATM   29  C   UNL     1      -5.180   3.665  69.519  1.00  0.00    -0.008 C  
HETATM   30  O   UNL     1      -6.796   1.868  69.170  1.00  0.00    -0.033 OA 
HETATM   31  C   UNL     1      -7.975   9.339  66.218  1.00  0.00    -0.107 C  
HETATM   32  C   UNL     1      -7.427   7.864  65.769  1.00  0.00    -0.078 C  
HETATM   33  C   UNL     1      -5.450   2.293  68.882  1.00  0.00    -0.013 C  
HETATM   34  C   UNL     1     -10.994   9.960  71.700  1.00  0.00     0.226 C  
HETATM   35  C   UNL     1     -13.123   8.897  70.537  1.00  0.00     0.667 C  
HETATM   36  C   UNL     1      -5.427   2.572  67.404  1.00  0.00    -0.017 C  
HETATM   37  O   UNL     1      -6.419   8.041  64.706  1.00  0.00    -0.048 OA 
HETATM   38  C   UNL     1     -11.194   9.303  72.854  1.00  0.00     1.833 C  
HETATM   39  C   UNL     1      -6.178   6.691  64.196  1.00  0.00    -0.035 C  
HETATM   40  C   UNL     1      -7.575   6.262  63.857  1.00  0.00    -0.091 C  
HETATM   41  C   UNL     1      -5.288   5.921  65.262  1.00  0.00    -0.013 C  
HETATM   42  C   UNL     1      -5.526   4.477  65.814  1.00  0.00    -0.013 C  
HETATM   43  C   UNL     1      -8.220   6.632  65.150  1.00  0.00    -0.118 C  
HETATM   44  C   UNL     1      -9.057   5.681  65.610  1.00  0.00    -0.110 C  
HETATM   45  C   UNL     1      -5.917   4.034  67.321  1.00  0.00    -0.024 C  
ENDROOT
BRANCH  16  46
HETATM   46  C   UNL     1     -12.945  14.838  69.831  1.00  0.00     0.122 C  
BRANCH  46  47
HETATM   47  C   UNL     1     -12.521  15.822  70.920  1.00  0.00    -0.402 C  
HETATM   48  H   UNL     1     -10.831  16.495  71.656  1.00  0.00     0.000 HD 
HETATM   49  O   UNL     1     -11.095  15.883  70.978  1.00  0.00    -0.330 OA 
BRANCH  47  50
HETATM   50  C   UNL     1     -13.105  15.527  72.313  1.00  0.00    -0.430 C  
HETATM   51  N   UNL     1     -12.036  15.443  73.323  1.00  0.00    -0.461 NA 
HETATM   52  H1  UNL     1     -12.423  15.247  74.247  1.00  0.00     0.000 HD 
HETATM   53  H2  UNL     1     -11.455  16.281  73.329  1.00  0.00     0.000 HD 
ENDBRANCH  47  50
ENDBRANCH  46  47
ENDBRANCH  16  46
BRANCH  18  54
HETATM   54  O   UNL     1     -13.415  12.508  68.614  1.00  0.00     3.272 OA 
HETATM   55  C   UNL     1     -13.072  11.543  69.604  1.00  0.00     1.101 C  
ENDBRANCH  18  54
TORSDOF 4
ENDMDL
MODEL       40
REMARK 921   NORMALIZED FREE ENERGY PREDICTED BY IDOCK:   15.93 KCAL/MOL
REMARK 922        TOTAL FREE ENERGY PREDICTED BY IDOCK:   19.64 KCAL/MOL
REMARK 923 INTER-LIGAND FREE ENERGY PREDICTED BY IDOCK:   19.27 KCAL/MOL
REMARK 924 INTRA-LIGAND FREE ENERGY PREDICTED BY IDOCK:    0.37 KCAL/MOL
REMARK 927      BINDING AFFINITY PREDICTED BY RF-SCORE:    0.00 PKD
ROOT
HETATM    1  C   UNL     1     -11.354   8.090  65.895  1.00  0.00     4.895 C  
HETATM    2  O   UNL     1     -11.784   9.425  66.123  1.00  0.00     2.694 OA 
HETATM    3  C   UNL     1     -10.747  10.180  66.709  1.00  0.00    -0.121 C  
HETATM    4  C   UNL     1     -11.131  11.582  67.027  1.00  0.00    -0.365 C  
HETATM    5  C   UNL     1     -10.012  11.973  67.974  1.00  0.00    -0.197 C  
HETATM    6  C   UNL     1      -8.517  11.860  67.382  1.00  0.00    -0.166 C  
HETATM    7  C   UNL     1      -7.075  12.872  67.394  1.00  0.00    -0.130 C  
HETATM    8  C   UNL     1      -6.318  14.228  68.171  1.00  0.00    -0.132 C  
HETATM    9  O   UNL     1      -5.183  14.002  68.646  1.00  0.00    -0.081 OA 
HETATM   10  C   UNL     1      -6.675  15.805  68.088  1.00  0.00    -0.130 C  
HETATM   11  C   UNL     1      -7.455  16.885  69.043  1.00  0.00    -0.220 C  
HETATM   12  C   UNL     1      -9.038  17.205  69.242  1.00  0.00     0.106 C  
HETATM   13  O   UNL     1      -9.060  18.518  69.850  1.00  0.00     0.891 OA 
HETATM   14  C   UNL     1     -10.212  17.301  68.202  1.00  0.00    -0.343 C  
HETATM   15  C   UNL     1     -10.843  16.051  67.536  1.00  0.00    -0.292 C  
HETATM   16  C   UNL     1      -7.918  19.269  69.437  1.00  0.00     0.031 C  
HETATM   17  O   UNL     1      -8.568  11.292  66.054  1.00  0.00    -0.175 OA 
HETATM   18  C   UNL     1      -6.918  18.300  68.763  1.00  0.00    -0.270 C  
HETATM   19  O   UNL     1     -10.496  14.865  68.283  1.00  0.00    -0.232 OA 
HETATM   20  C   UNL     1      -9.497  10.223  65.828  1.00  0.00    -0.203 C  
HETATM   21  O   UNL     1      -8.265   8.310  66.915  1.00  0.00    -0.102 OA 
HETATM   22  C   UNL     1      -9.106  14.461  68.167  1.00  0.00    -0.194 C  
HETATM   23  C   UNL     1      -8.916   8.790  65.716  1.00  0.00    -0.206 C  
HETATM   24  C   UNL     1      -8.538  13.493  69.623  1.00  0.00     1.513 C  
HETATM   25  C   UNL     1     -10.062   7.951  65.097  1.00  0.00     2.715 C  
HETATM   26  C   UNL     1      -8.762  14.525  66.569  1.00  0.00    -0.079 C  
HETATM   27  O   UNL     1     -10.157   7.700  68.145  1.00  0.00    -0.173 OA 
HETATM   28  C   UNL     1      -9.039  15.872  65.888  1.00  0.00    -0.304 C  
HETATM   29  C   UNL     1     -11.046   7.182  67.093  1.00  0.00    -0.150 C  
HETATM   30  O   UNL     1      -9.784   6.560  65.096  1.00  0.00     0.907 OA 
HETATM   31  C   UNL     1      -7.262  12.417  70.122  1.00  0.00     1.461 C  
HETATM   32  C   UNL     1      -7.032  10.829  69.800  1.00  0.00    -0.141 C  
HETATM   33  C   UNL     1     -10.250   6.082  66.373  1.00  0.00    -0.076 C  
HETATM   34  C   UNL     1     -10.503  15.946  66.047  1.00  0.00    -0.357 C  
HETATM   35  C   UNL     1      -8.343  15.988  64.516  1.00  0.00     8.178 C  
HETATM   36  C   UNL     1      -9.014   5.923  67.215  1.00  0.00    -0.108 C  
HETATM   37  O   UNL     1      -6.642  10.149  71.049  1.00  0.00    -0.331 OA 
HETATM   38  C   UNL     1     -11.341  15.821  65.004  1.00  0.00    -0.222 C  
HETATM   39  C   UNL     1      -6.215   8.815  70.625  1.00  0.00    -0.039 C  
HETATM   40  C   UNL     1      -5.183   9.162  69.591  1.00  0.00    -0.034 C  
HETATM   41  C   UNL     1      -7.517   7.975  70.276  1.00  0.00    -0.072 C  
HETATM   42  C   UNL     1      -7.753   7.097  69.004  1.00  0.00    -0.109 C  
HETATM   43  C   UNL     1      -5.999  10.135  68.809  1.00  0.00    -0.040 C  
HETATM   44  C   UNL     1      -5.896   9.956  67.478  1.00  0.00    -0.053 C  
HETATM   45  C   UNL     1      -8.815   7.336  67.806  1.00  0.00    -0.124 C  
ENDROOT
BRANCH  16  46
HETATM   46  C   UNL     1      -8.311  20.438  68.518  1.00  0.00     0.301 C  
BRANCH  46  47
HETATM   47  C   UNL     1      -9.696  20.394  67.875  1.00  0.00    -0.286 C  
HETATM   48  H   UNL     1     -10.584  21.231  66.338  1.00  0.00     0.000 HD 
HETATM   49  O   UNL     1      -9.722  21.258  66.738  1.00  0.00     0.238 OA 
BRANCH  47  50
HETATM   50  C   UNL     1     -10.856  20.726  68.830  1.00  0.00     1.042 C  
HETATM   51  N   UNL     1     -10.353  21.323  70.080  1.00  0.00     0.919 NA 
HETATM   52  H1  UNL     1     -11.122  21.543  70.713  1.00  0.00     0.000 HD 
HETATM   53  H2  UNL     1      -9.768  22.139  69.899  1.00  0.00     0.000 HD 
ENDBRANCH  47  50
ENDBRANCH  46  47
ENDBRANCH  16  46
BRANCH  18  54
HETATM   54  O   UNL     1      -6.837  18.542  67.350  1.00  0.00    -0.200 OA 
HETATM   55  C   UNL     1      -5.671  19.236  66.917  1.00  0.00    -0.166 C  
ENDBRANCH  18  54
TORSDOF 4
ENDMDL
MODEL       41
REMARK 921   NORMALIZED FREE ENERGY PREDICTED BY IDOCK:   16.65 KCAL/MOL
REMARK 922        TOTAL FREE ENERGY PREDICTED BY IDOCK:   20.53 KCAL/MOL
REMARK 923 INTER-LIGAND FREE ENERGY PREDICTED BY IDOCK:   12.18 KCAL/MOL
REMARK 924 INTRA-LIGAND FREE ENERGY PREDICTED BY IDOCK:    8.35 KCAL/MOL
REMARK 927      BINDING AFFINITY PREDICTED BY RF-SCORE:    0.00 PKD
ROOT
HETATM    1  C   UNL     1      -5.326   8.476  71.376  1.00  0.00    -0.034 C  
HETATM    2  O   UNL     1      -5.350   9.451  70.342  1.00  0.00    -0.030 OA 
HETATM    3  C   UNL     1      -6.676   9.687  69.923  1.00  0.00    -0.069 C  
HETATM    4  C   UNL     1      -6.788  10.662  68.804  1.00  0.00    -0.062 C  
HETATM    5  C   UNL     1      -8.204  10.389  68.332  1.00  0.00    -0.114 C  
HETATM    6  C   UNL     1      -9.363  10.577  69.435  1.00  0.00    -0.117 C  
HETATM    7  C   UNL     1     -10.952  11.338  69.480  1.00  0.00    -0.249 C  
HETATM    8  C   UNL     1     -12.236  11.964  68.494  1.00  0.00     0.155 C  
HETATM    9  O   UNL     1     -13.361  11.460  68.704  1.00  0.00     2.408 OA 
HETATM   10  C   UNL     1     -12.297  13.312  67.600  1.00  0.00     0.005 C  
HETATM   11  C   UNL     1     -12.155  13.674  66.008  1.00  0.00    -0.480 C  
HETATM   12  C   UNL     1     -10.850  13.884  65.059  1.00  0.00    -0.382 C  
HETATM   13  O   UNL     1     -11.358  14.605  63.911  1.00  0.00     0.128 OA 
HETATM   14  C   UNL     1      -9.482  14.611  65.329  1.00  0.00     0.289 C  
HETATM   15  C   UNL     1      -8.375  14.001  66.226  1.00  0.00     0.909 C  
HETATM   16  C   UNL     1     -12.475  15.410  64.293  1.00  0.00     0.066 C  
HETATM   17  O   UNL     1      -8.764  10.882  70.715  1.00  0.00     2.038 OA 
HETATM   18  C   UNL     1     -12.932  14.968  65.703  1.00  0.00     0.735 C  
HETATM   19  O   UNL     1      -8.610  12.588  66.411  1.00  0.00    -0.048 OA 
HETATM   20  C   UNL     1      -7.564  10.180  71.067  1.00  0.00     1.148 C  
HETATM   21  O   UNL     1      -8.524   7.942  71.723  1.00  0.00    -0.106 OA 
HETATM   22  C   UNL     1      -9.743  12.270  67.263  1.00  0.00    -0.195 C  
HETATM   23  C   UNL     1      -7.688   9.052  72.124  1.00  0.00     0.339 C  
HETATM   24  C   UNL     1     -10.454  10.617  66.886  1.00  0.00    -0.304 C  
HETATM   25  C   UNL     1      -6.230   8.772  72.568  1.00  0.00    -0.044 C  
HETATM   26  C   UNL     1      -9.588  13.230  68.578  1.00  0.00    -0.127 C  
HETATM   27  O   UNL     1      -7.006   6.812  70.350  1.00  0.00    -0.060 OA 
HETATM   28  C   UNL     1      -9.479  14.733  68.288  1.00  0.00    -0.207 C  
HETATM   29  C   UNL     1      -5.736   7.032  71.060  1.00  0.00    -0.028 C  
HETATM   30  O   UNL     1      -6.121   7.626  73.398  1.00  0.00    -0.058 OA 
HETATM   31  C   UNL     1     -11.493   9.399  67.573  1.00  0.00     1.090 C  
HETATM   32  C   UNL     1     -11.190   8.281  68.729  1.00  0.00     0.516 C  
HETATM   33  C   UNL     1      -5.958   6.518  72.491  1.00  0.00    -0.039 C  
HETATM   34  C   UNL     1      -8.205  14.761  67.545  1.00  0.00    -0.201 C  
HETATM   35  C   UNL     1      -9.728  15.592  69.546  1.00  0.00    -0.282 C  
HETATM   36  C   UNL     1      -7.305   5.852  72.428  1.00  0.00    -0.091 C  
HETATM   37  O   UNL     1     -11.750   6.989  68.290  1.00  0.00     0.501 OA 
HETATM   38  C   UNL     1      -7.088  15.295  68.065  1.00  0.00    -0.139 C  
HETATM   39  C   UNL     1     -11.664   6.128  69.471  1.00  0.00     0.239 C  
HETATM   40  C   UNL     1     -12.385   6.966  70.486  1.00  0.00    -0.177 C  
HETATM   41  C   UNL     1     -10.145   5.698  69.648  1.00  0.00    -0.289 C  
HETATM   42  C   UNL     1      -9.312   5.725  70.971  1.00  0.00    -0.183 C  
HETATM   43  C   UNL     1     -11.653   8.245  70.250  1.00  0.00     0.017 C  
HETATM   44  C   UNL     1     -11.296   8.863  71.393  1.00  0.00    -0.380 C  
HETATM   45  C   UNL     1      -8.037   6.655  71.331  1.00  0.00    -0.111 C  
ENDROOT
BRANCH  16  46
HETATM   46  C   UNL     1     -12.140  16.909  64.229  1.00  0.00     2.323 C  
BRANCH  46  47
HETATM   47  C   UNL     1     -10.893  17.386  64.973  1.00  0.00     0.285 C  
HETATM   48  H   UNL     1      -9.352  16.553  65.857  1.00  0.00     0.000 HD 
HETATM   49  O   UNL     1     -10.127  16.256  65.394  1.00  0.00    -0.519 OA 
BRANCH  47  50
HETATM   50  C   UNL     1     -11.177  18.319  66.165  1.00  0.00     0.860 C  
HETATM   51  N   UNL     1     -10.484  17.847  67.376  1.00  0.00    -0.383 NA 
HETATM   52  H1  UNL     1     -10.672  18.465  68.166  1.00  0.00     0.000 HD 
HETATM   53  H2  UNL     1      -9.483  17.731  67.218  1.00  0.00     0.000 HD 
ENDBRANCH  47  50
ENDBRANCH  46  47
ENDBRANCH  16  46
BRANCH  18  54
HETATM   54  O   UNL     1     -12.638  15.978  66.681  1.00  0.00     1.993 OA 
HETATM   55  C   UNL     1     -12.733  15.556  68.039  1.00  0.00     1.638 C  
ENDBRANCH  18  54
TORSDOF 4
ENDMDL
MODEL       42
REMARK 921   NORMALIZED FREE ENERGY PREDICTED BY IDOCK:   17.96 KCAL/MOL
REMARK 922        TOTAL FREE ENERGY PREDICTED BY IDOCK:   22.15 KCAL/MOL
REMARK 923 INTER-LIGAND FREE ENERGY PREDICTED BY IDOCK:   20.20 KCAL/MOL
REMARK 924 INTRA-LIGAND FREE ENERGY PREDICTED BY IDOCK:    1.95 KCAL/MOL
REMARK 927      BINDING AFFINITY PREDICTED BY RF-SCORE:    0.00 PKD
ROOT
HETATM    1  C   UNL     1     -13.091  13.528  71.551  1.00  0.00    -0.344 C  
HETATM    2  O   UNL     1     -13.171  12.619  70.462  1.00  0.00     0.330 OA 
HETATM    3  C   UNL     1     -11.948  12.587  69.759  1.00  0.00    -0.289 C  
HETATM    4  C   UNL     1     -11.961  11.694  68.570  1.00  0.00    -0.284 C  
HETATM    5  C   UNL     1     -10.726  12.182  67.836  1.00  0.00    -0.237 C  
HETATM    6  C   UNL     1      -9.342  12.099  68.656  1.00  0.00    -0.025 C  
HETATM    7  C   UNL     1      -7.700  11.563  68.311  1.00  0.00    -0.123 C  
HETATM    8  C   UNL     1      -6.592  11.168  67.034  1.00  0.00    -0.108 C  
HETATM    9  O   UNL     1      -5.519  11.811  67.043  1.00  0.00    -0.103 OA 
HETATM   10  C   UNL     1      -6.560   9.887  66.044  1.00  0.00    -0.086 C  
HETATM   11  C   UNL     1      -6.997   9.589  64.493  1.00  0.00    -0.103 C  
HETATM   12  C   UNL     1      -8.440   9.249  63.823  1.00  0.00    -0.191 C  
HETATM   13  O   UNL     1      -8.108   8.662  62.543  1.00  0.00    -0.150 OA 
HETATM   14  C   UNL     1      -9.617   8.329  64.314  1.00  0.00     2.231 C  
HETATM   15  C   UNL     1     -10.570   8.736  65.467  1.00  0.00     2.334 C  
HETATM   16  C   UNL     1      -6.844   8.000  62.620  1.00  0.00    -0.086 C  
HETATM   17  O   UNL     1      -9.608  11.652  70.005  1.00  0.00     1.514 OA 
HETATM   18  C   UNL     1      -6.151   8.430  63.934  1.00  0.00    -0.071 C  
HETATM   19  O   UNL     1     -10.477  10.156  65.708  1.00  0.00    -0.183 OA 
HETATM   20  C   UNL     1     -10.780  12.165  70.652  1.00  0.00     2.910 C  
HETATM   21  O   UNL     1      -9.985  14.478  71.266  1.00  0.00     1.918 OA 
HETATM   22  C   UNL     1      -9.235  10.584  66.328  1.00  0.00    -0.168 C  
HETATM   23  C   UNL     1     -10.570  13.245  71.744  1.00  0.00     7.329 C  
HETATM   24  C   UNL     1      -8.832  12.336  65.941  1.00  0.00     0.238 C  
HETATM   25  C   UNL     1     -11.921  13.301  72.502  1.00  0.00     2.017 C  
HETATM   26  C   UNL     1      -8.982   9.548  67.568  1.00  0.00    -0.133 C  
HETATM   27  O   UNL     1     -11.891  15.456  70.331  1.00  0.00    -0.281 OA 
HETATM   28  C   UNL     1      -8.965   8.060  67.191  1.00  0.00    -0.150 C  
HETATM   29  C   UNL     1     -12.940  15.028  71.270  1.00  0.00    -0.377 C  
HETATM   30  O   UNL     1     -11.989  14.378  73.423  1.00  0.00     0.040 OA 
HETATM   31  C   UNL     1      -7.827  13.649  66.489  1.00  0.00     1.022 C  
HETATM   32  C   UNL     1      -8.008  14.657  67.766  1.00  0.00    -0.156 C  
HETATM   33  C   UNL     1     -12.480  15.497  72.659  1.00  0.00    -0.405 C  
HETATM   34  C   UNL     1     -10.355   7.895  66.729  1.00  0.00    -0.357 C  
HETATM   35  C   UNL     1      -8.345   7.183  68.299  1.00  0.00    -0.124 C  
HETATM   36  C   UNL     1     -11.270  16.343  72.370  1.00  0.00     0.587 C  
HETATM   37  O   UNL     1      -7.720  16.034  67.322  1.00  0.00    -0.148 OA 
HETATM   38  C   UNL     1     -11.260   7.188  67.426  1.00  0.00    -0.057 C  
HETATM   39  C   UNL     1      -7.655  16.814  68.558  1.00  0.00    -0.217 C  
HETATM   40  C   UNL     1      -6.634  16.034  69.334  1.00  0.00    -0.182 C  
HETATM   41  C   UNL     1      -9.140  17.023  69.080  1.00  0.00    -0.058 C  
HETATM   42  C   UNL     1      -9.657  16.816  70.541  1.00  0.00     2.356 C  
HETATM   43  C   UNL     1      -7.235  14.681  69.156  1.00  0.00    -0.142 C  
HETATM   44  C   UNL     1      -7.258  13.963  70.297  1.00  0.00     0.795 C  
HETATM   45  C   UNL     1     -10.700  15.704  71.085  1.00  0.00     0.111 C  
ENDROOT
BRANCH  16  46
HETATM   46  C   UNL     1      -6.997   6.474  62.511  1.00  0.00    -0.039 C  
BRANCH  46  47
HETATM   47  C   UNL     1      -7.655   5.746  63.682  1.00  0.00    -0.083 C  
HETATM   48  H   UNL     1      -7.191   4.265  64.883  1.00  0.00     0.000 HD 
HETATM   49  O   UNL     1      -6.782   4.719  64.155  1.00  0.00    -0.041 OA 
BRANCH  47  50
HETATM   50  C   UNL     1      -9.049   5.170  63.376  1.00  0.00     0.186 C  
HETATM   51  N   UNL     1      -9.460   4.211  64.416  1.00  0.00    -0.159 NA 
HETATM   52  H1  UNL     1     -10.384   3.829  64.214  1.00  0.00     0.000 HD 
HETATM   53  H2  UNL     1      -9.420   4.624  65.348  1.00  0.00     0.000 HD 
ENDBRANCH  47  50
ENDBRANCH  46  47
ENDBRANCH  16  46
BRANCH  18  54
HETATM   54  O   UNL     1      -6.099   7.342  64.870  1.00  0.00    -0.037 OA 
HETATM   55  C   UNL     1      -5.232   7.539  65.984  1.00  0.00    -0.025 C  
ENDBRANCH  18  54
TORSDOF 4
ENDMDL
MODEL       43
REMARK 921   NORMALIZED FREE ENERGY PREDICTED BY IDOCK:   18.55 KCAL/MOL
REMARK 922        TOTAL FREE ENERGY PREDICTED BY IDOCK:   22.88 KCAL/MOL
REMARK 923 INTER-LIGAND FREE ENERGY PREDICTED BY IDOCK:   21.14 KCAL/MOL
REMARK 924 INTRA-LIGAND FREE ENERGY PREDICTED BY IDOCK:    1.74 KCAL/MOL
REMARK 927      BINDING AFFINITY PREDICTED BY RF-SCORE:    0.00 PKD
ROOT
HETATM    1  C   UNL     1      -9.345  15.063  64.435  1.00  0.00     3.848 C  
HETATM    2  O   UNL     1      -8.918  13.731  64.180  1.00  0.00     2.676 OA 
HETATM    3  C   UNL     1      -8.538  13.101  65.383  1.00  0.00     2.085 C  
HETATM    4  C   UNL     1      -8.030  11.714  65.200  1.00  0.00     1.131 C  
HETATM    5  C   UNL     1      -7.346  11.486  66.535  1.00  0.00    -0.012 C  
HETATM    6  C   UNL     1      -8.280  11.635  67.839  1.00  0.00    -0.141 C  
HETATM    7  C   UNL     1      -8.531  10.720  69.324  1.00  0.00    -0.058 C  
HETATM    8  C   UNL     1      -7.852   9.495  70.349  1.00  0.00    -0.172 C  
HETATM    9  O   UNL     1      -7.677   9.834  71.540  1.00  0.00     0.056 OA 
HETATM   10  C   UNL     1      -7.725   7.898  70.115  1.00  0.00    -0.088 C  
HETATM   11  C   UNL     1      -6.532   6.866  69.666  1.00  0.00    -0.044 C  
HETATM   12  C   UNL     1      -5.941   6.468  68.204  1.00  0.00    -0.017 C  
HETATM   13  O   UNL     1      -5.244   5.220  68.431  1.00  0.00    -0.003 OA 
HETATM   14  C   UNL     1      -6.664   6.201  66.834  1.00  0.00    -0.061 C  
HETATM   15  C   UNL     1      -7.257   7.340  65.966  1.00  0.00    -0.074 C  
HETATM   16  C   UNL     1      -5.856   4.506  69.506  1.00  0.00    -0.017 C  
HETATM   17  O   UNL     1      -9.599  12.070  67.438  1.00  0.00    -0.173 OA 
HETATM   18  C   UNL     1      -6.820   5.467  70.241  1.00  0.00    -0.048 C  
HETATM   19  O   UNL     1      -6.708   8.612  66.375  1.00  0.00    -0.068 OA 
HETATM   20  C   UNL     1      -9.682  13.052  66.396  1.00  0.00    -0.268 C  
HETATM   21  O   UNL     1      -9.069  15.133  67.682  1.00  0.00    -0.177 OA 
HETATM   22  C   UNL     1      -7.180   9.088  67.664  1.00  0.00    -0.083 C  
HETATM   23  C   UNL     1     -10.039  14.502  66.816  1.00  0.00    -0.264 C  
HETATM   24  C   UNL     1      -5.978  10.223  68.469  1.00  0.00    -0.040 C  
HETATM   25  C   UNL     1     -10.434  15.205  65.493  1.00  0.00    -0.379 C  
HETATM   26  C   UNL     1      -8.804   8.895  67.636  1.00  0.00    -0.137 C  
HETATM   27  O   UNL     1      -7.478  15.737  66.079  1.00  0.00     0.577 OA 
HETATM   28  C   UNL     1      -9.294   7.474  67.323  1.00  0.00    -0.168 C  
HETATM   29  C   UNL     1      -8.328  16.097  64.933  1.00  0.00     5.078 C  
HETATM   30  O   UNL     1     -10.608  16.605  65.647  1.00  0.00    -0.381 OA 
HETATM   31  C   UNL     1      -5.879  11.419  69.731  1.00  0.00    -0.099 C  
HETATM   32  C   UNL     1      -6.369  12.981  69.749  1.00  0.00    -0.063 C  
HETATM   33  C   UNL     1      -9.298  17.172  65.448  1.00  0.00     0.933 C  
HETATM   34  C   UNL     1      -8.788   7.325  65.946  1.00  0.00    -0.136 C  
HETATM   35  C   UNL     1     -10.778   7.273  67.692  1.00  0.00    -0.294 C  
HETATM   36  C   UNL     1      -8.786  17.486  66.827  1.00  0.00    -0.275 C  
HETATM   37  O   UNL     1      -5.304  13.800  70.357  1.00  0.00    -0.100 OA 
HETATM   38  C   UNL     1      -9.610   7.298  64.883  1.00  0.00     1.913 C  
HETATM   39  C   UNL     1      -5.920  15.112  70.564  1.00  0.00    -0.081 C  
HETATM   40  C   UNL     1      -7.137  14.733  71.356  1.00  0.00     1.707 C  
HETATM   41  C   UNL     1      -6.015  15.831  69.151  1.00  0.00    -0.112 C  
HETATM   42  C   UNL     1      -7.260  16.569  68.558  1.00  0.00    -0.175 C  
HETATM   43  C   UNL     1      -7.626  13.641  70.465  1.00  0.00     2.429 C  
HETATM   44  C   UNL     1      -8.955  13.699  70.246  1.00  0.00     3.526 C  
HETATM   45  C   UNL     1      -8.151  16.151  67.273  1.00  0.00    -0.175 C  
ENDROOT
BRANCH  16  46
HETATM   46  C   UNL     1      -6.563   3.233  69.011  1.00  0.00    -0.034 C  
BRANCH  46  47
HETATM   47  C   UNL     1      -7.286   2.378  70.050  1.00  0.00    -0.043 C  
HETATM   48  H   UNL     1      -9.148   1.978  70.524  1.00  0.00     0.000 HD 
HETATM   49  O   UNL     1      -8.698   2.510  69.877  1.00  0.00    -0.055 OA 
BRANCH  47  50
HETATM   50  C   UNL     1      -6.892   2.673  71.508  1.00  0.00    -0.031 C  
HETATM   51  N   UNL     1      -7.992   2.332  72.428  1.00  0.00    -0.053 NA 
HETATM   52  H1  UNL     1      -7.731   2.528  73.395  1.00  0.00     0.000 HD 
HETATM   53  H2  UNL     1      -8.299   1.367  72.308  1.00  0.00     0.000 HD 
ENDBRANCH  47  50
ENDBRANCH  46  47
ENDBRANCH  16  46
BRANCH  18  54
HETATM   54  O   UNL     1      -8.189   5.097  70.015  1.00  0.00    -0.080 OA 
HETATM   55  C   UNL     1      -9.103   5.496  71.032  1.00  0.00    -0.144 C  
ENDBRANCH  18  54
TORSDOF 4
ENDMDL
MODEL       44
REMARK 921   NORMALIZED FREE ENERGY PREDICTED BY IDOCK:   18.69 KCAL/MOL
REMARK 922        TOTAL FREE ENERGY PREDICTED BY IDOCK:   23.04 KCAL/MOL
REMARK 923 INTER-LIGAND FREE ENERGY PREDICTED BY IDOCK:   17.27 KCAL/MOL
REMARK 924 INTRA-LIGAND FREE ENERGY PREDICTED BY IDOCK:    5.77 KCAL/MOL
REMARK 927      BINDING AFFINITY PREDICTED BY RF-SCORE:    0.00 PKD
ROOT
HETATM    1  C   UNL     1      -8.957  17.408  70.935  1.00  0.00     5.924 C  
HETATM    2  O   UNL     1      -9.166  16.067  71.357  1.00  0.00     3.497 OA 
HETATM    3  C   UNL     1      -9.395  15.233  70.243  1.00  0.00     0.568 C  
HETATM    4  C   UNL     1      -9.673  13.816  70.601  1.00  0.00     4.062 C  
HETATM    5  C   UNL     1     -10.263  13.307  69.299  1.00  0.00     0.330 C  
HETATM    6  C   UNL     1      -9.320  13.443  67.999  1.00  0.00    -0.217 C  
HETATM    7  C   UNL     1      -8.870  12.401  66.651  1.00  0.00    -0.156 C  
HETATM    8  C   UNL     1      -9.301  10.957  65.788  1.00  0.00    -0.203 C  
HETATM    9  O   UNL     1      -9.487  11.108  64.561  1.00  0.00    -0.232 OA 
HETATM   10  C   UNL     1      -9.171   9.405  66.230  1.00  0.00    -0.229 C  
HETATM   11  C   UNL     1     -10.191   8.254  66.795  1.00  0.00    -0.375 C  
HETATM   12  C   UNL     1     -10.760   7.953  68.289  1.00  0.00    -0.031 C  
HETATM   13  O   UNL     1     -11.233   6.587  68.219  1.00  0.00    -0.277 OA 
HETATM   14  C   UNL     1     -10.052   7.988  69.691  1.00  0.00    -0.198 C  
HETATM   15  C   UNL     1      -9.686   9.313  70.409  1.00  0.00    -0.244 C  
HETATM   16  C   UNL     1     -10.474   5.854  67.256  1.00  0.00    -0.262 C  
HETATM   17  O   UNL     1      -8.106  14.142  68.356  1.00  0.00    -0.132 OA 
HETATM   18  C   UNL     1      -9.657   6.861  66.414  1.00  0.00    -0.095 C  
HETATM   19  O   UNL     1     -10.423  10.411  69.828  1.00  0.00    -0.249 OA 
HETATM   20  C   UNL     1      -8.223  15.249  69.260  1.00  0.00    -0.244 C  
HETATM   21  O   UNL     1      -9.126  17.014  67.703  1.00  0.00    -0.225 OA 
HETATM   22  C   UNL     1      -9.991  10.791  68.494  1.00  0.00    -0.178 C  
HETATM   23  C   UNL     1      -8.095  16.672  68.658  1.00  0.00    -0.237 C  
HETATM   24  C   UNL     1     -11.334  11.595  67.531  1.00  0.00    -0.364 C  
HETATM   25  C   UNL     1      -7.869  17.595  69.881  1.00  0.00     1.425 C  
HETATM   26  C   UNL     1      -8.359  10.879  68.569  1.00  0.00    -0.142 C  
HETATM   27  O   UNL     1     -10.849  17.543  69.190  1.00  0.00    -0.084 OA 
HETATM   28  C   UNL     1      -7.653   9.613  69.074  1.00  0.00    -0.076 C  
HETATM   29  C   UNL     1     -10.112  18.184  70.290  1.00  0.00     1.540 C  
HETATM   30  O   UNL     1      -7.923  18.973  69.546  1.00  0.00     0.039 OA 
HETATM   31  C   UNL     1     -11.584  12.586  66.120  1.00  0.00    -0.448 C  
HETATM   32  C   UNL     1     -11.358  14.193  65.903  1.00  0.00    -0.323 C  
HETATM   33  C   UNL     1      -9.315  19.332  69.651  1.00  0.00     0.325 C  
HETATM   34  C   UNL     1      -8.175   9.558  70.452  1.00  0.00    -0.220 C  
HETATM   35  C   UNL     1      -6.144   9.618  68.754  1.00  0.00    -0.042 C  
HETATM   36  C   UNL     1      -9.822  19.377  68.236  1.00  0.00    -0.500 C  
HETATM   37  O   UNL     1     -12.522  14.736  65.177  1.00  0.00    -0.256 OA 
HETATM   38  C   UNL     1      -7.398   9.806  71.519  1.00  0.00     0.856 C  
HETATM   39  C   UNL     1     -12.124  16.095  64.807  1.00  0.00     0.614 C  
HETATM   40  C   UNL     1     -10.834  15.829  64.088  1.00  0.00     0.714 C  
HETATM   41  C   UNL     1     -12.199  16.995  66.114  1.00  0.00     3.826 C  
HETATM   42  C   UNL     1     -11.115  18.001  66.621  1.00  0.00     0.422 C  
HETATM   43  C   UNL     1     -10.203  14.957  65.122  1.00  0.00    -0.409 C  
HETATM   44  C   UNL     1      -8.911  15.266  65.350  1.00  0.00     0.992 C  
HETATM   45  C   UNL     1     -10.213  17.908  67.961  1.00  0.00    -0.376 C  
ENDROOT
BRANCH  16  46
HETATM   46  C   UNL     1      -9.585   4.792  67.925  1.00  0.00    -0.198 C  
BRANCH  46  47
HETATM   47  C   UNL     1      -8.606   4.029  67.034  1.00  0.00    -0.105 C  
HETATM   48  H   UNL     1      -7.932   4.180  65.197  1.00  0.00     0.000 HD 
HETATM   49  O   UNL     1      -8.540   4.655  65.752  1.00  0.00    -0.118 OA 
BRANCH  47  50
HETATM   50  C   UNL     1      -8.912   2.528  66.886  1.00  0.00    -0.136 C  
HETATM   51  N   UNL     1      -7.758   1.714  67.308  1.00  0.00    -0.059 NA 
HETATM   52  H1  UNL     1      -7.961   0.718  67.210  1.00  0.00     0.000 HD 
HETATM   53  H2  UNL     1      -7.459   1.946  68.255  1.00  0.00     0.000 HD 
ENDBRANCH  47  50
ENDBRANCH  46  47
ENDBRANCH  16  46
BRANCH  18  54
HETATM   54  O   UNL     1      -8.254   6.759  66.705  1.00  0.00    -0.111 OA 
HETATM   55  C   UNL     1      -7.927   6.627  68.086  1.00  0.00    -0.110 C  
ENDBRANCH  18  54
TORSDOF 4
ENDMDL
MODEL       45
REMARK 921   NORMALIZED FREE ENERGY PREDICTED BY IDOCK:   19.17 KCAL/MOL
REMARK 922        TOTAL FREE ENERGY PREDICTED BY IDOCK:   23.64 KCAL/MOL
REMARK 923 INTER-LIGAND FREE ENERGY PREDICTED BY IDOCK:   24.02 KCAL/MOL
REMARK 924 INTRA-LIGAND FREE ENERGY PREDICTED BY IDOCK:   -0.37 KCAL/MOL
REMARK 927      BINDING AFFINITY PREDICTED BY RF-SCORE:    0.00 PKD
ROOT
HETATM    1  C   UNL     1     -10.292   3.107  69.448  1.00  0.00     1.742 C  
HETATM    2  O   UNL     1     -10.206   4.335  70.157  1.00  0.00    -0.125 OA 
HETATM    3  C   UNL     1      -9.810   5.374  69.288  1.00  0.00    -0.182 C  
HETATM    4  C   UNL     1      -9.646   6.691  69.962  1.00  0.00    -0.163 C  
HETATM    5  C   UNL     1      -8.851   7.447  68.914  1.00  0.00    -0.131 C  
HETATM    6  C   UNL     1      -9.543   7.576  67.464  1.00  0.00    -0.142 C  
HETATM    7  C   UNL     1      -9.780   8.867  66.289  1.00  0.00    -0.345 C  
HETATM    8  C   UNL     1      -9.250  10.452  65.819  1.00  0.00    -0.174 C  
HETATM    9  O   UNL     1      -8.843  10.548  64.640  1.00  0.00    -0.185 OA 
HETATM   10  C   UNL     1      -9.507  11.885  66.525  1.00  0.00    -0.226 C  
HETATM   11  C   UNL     1      -8.642  12.897  67.481  1.00  0.00    -0.188 C  
HETATM   12  C   UNL     1      -8.358  12.893  69.083  1.00  0.00     0.613 C  
HETATM   13  O   UNL     1      -7.926  14.244  69.370  1.00  0.00     0.045 OA 
HETATM   14  C   UNL     1      -9.304  12.582  70.299  1.00  0.00     4.750 C  
HETATM   15  C   UNL     1      -9.748  11.141  70.664  1.00  0.00     3.372 C  
HETATM   16  C   UNL     1      -8.525  15.157  68.448  1.00  0.00    -0.157 C  
HETATM   17  O   UNL     1     -10.777   6.824  67.451  1.00  0.00    -0.253 OA 
HETATM   18  C   UNL     1      -9.146  14.340  67.291  1.00  0.00    -0.215 C  
HETATM   19  O   UNL     1      -8.883  10.179  70.022  1.00  0.00    -0.146 OA 
HETATM   20  C   UNL     1     -10.787   5.558  68.126  1.00  0.00     0.023 C  
HETATM   21  O   UNL     1      -9.563   4.135  66.442  1.00  0.00    -0.176 OA 
HETATM   22  C   UNL     1      -9.058  10.074  68.584  1.00  0.00    -0.139 C  
HETATM   23  C   UNL     1     -10.758   4.284  67.243  1.00  0.00     1.215 C  
HETATM   24  C   UNL     1      -7.539   9.473  67.740  1.00  0.00    -0.087 C  
HETATM   25  C   UNL     1     -11.168   3.137  68.200  1.00  0.00     8.025 C  
HETATM   26  C   UNL     1     -10.673   9.978  68.343  1.00  0.00    -0.271 C  
HETATM   27  O   UNL     1      -8.116   3.315  68.084  1.00  0.00    -0.072 OA 
HETATM   28  C   UNL     1     -11.500  11.120  68.950  1.00  0.00    -0.363 C  
HETATM   29  C   UNL     1      -9.016   2.470  68.884  1.00  0.00    -0.116 C  
HETATM   30  O   UNL     1     -11.010   1.853  67.616  1.00  0.00     4.565 OA 
HETATM   31  C   UNL     1      -7.009   8.782  66.232  1.00  0.00    -0.081 C  
HETATM   32  C   UNL     1      -7.140   7.252  65.666  1.00  0.00    -0.065 C  
HETATM   33  C   UNL     1      -9.648   1.475  67.898  1.00  0.00    -0.052 C  
HETATM   34  C   UNL     1     -11.233  10.898  70.384  1.00  0.00    -0.191 C  
HETATM   35  C   UNL     1     -12.927  11.184  68.368  1.00  0.00     3.175 C  
HETATM   36  C   UNL     1      -8.895   1.712  66.617  1.00  0.00    -0.127 C  
HETATM   37  O   UNL     1      -5.849   6.860  65.070  1.00  0.00    -0.034 OA 
HETATM   38  C   UNL     1     -12.179  10.445  71.223  1.00  0.00    -0.491 C  
HETATM   39  C   UNL     1      -6.129   5.603  64.375  1.00  0.00    -0.025 C  
HETATM   40  C   UNL     1      -7.278   6.012  63.501  1.00  0.00    -0.056 C  
HETATM   41  C   UNL     1      -6.259   4.460  65.471  1.00  0.00    -0.027 C  
HETATM   42  C   UNL     1      -7.382   3.377  65.565  1.00  0.00    -0.075 C  
HETATM   43  C   UNL     1      -8.112   6.662  64.554  1.00  0.00    -0.073 C  
HETATM   44  C   UNL     1      -9.413   6.318  64.479  1.00  0.00     1.515 C  
HETATM   45  C   UNL     1      -8.511   3.205  66.712  1.00  0.00    -0.104 C  
ENDROOT
BRANCH  16  46
HETATM   46  C   UNL     1      -9.553  16.067  69.140  1.00  0.00    -0.257 C  
BRANCH  46  47
HETATM   47  C   UNL     1      -9.308  17.574  69.091  1.00  0.00     0.015 C  
HETATM   48  H   UNL     1      -9.645  19.115  70.258  1.00  0.00     0.000 HD 
HETATM   49  O   UNL     1      -9.798  18.177  70.289  1.00  0.00     1.172 OA 
BRANCH  47  50
HETATM   50  C   UNL     1      -9.895  18.278  67.854  1.00  0.00    -0.317 C  
HETATM   51  N   UNL     1     -11.364  18.345  67.937  1.00  0.00     0.197 NA 
HETATM   52  H1  UNL     1     -11.754  18.812  67.117  1.00  0.00     0.000 HD 
HETATM   53  H2  UNL     1     -11.674  18.785  68.803  1.00  0.00     0.000 HD 
ENDBRANCH  47  50
ENDBRANCH  46  47
ENDBRANCH  16  46
BRANCH  18  54
HETATM   54  O   UNL     1     -10.580  14.387  67.338  1.00  0.00    -0.266 OA 
HETATM   55  C   UNL     1     -11.206  15.012  66.220  1.00  0.00    -0.309 C  
ENDBRANCH  18  54
TORSDOF 4
ENDMDL
MODEL       46
REMARK 921   NORMALIZED FREE ENERGY PREDICTED BY IDOCK:   21.23 KCAL/MOL
REMARK 922        TOTAL FREE ENERGY PREDICTED BY IDOCK:   26.18 KCAL/MOL
REMARK 923 INTER-LIGAND FREE ENERGY PREDICTED BY IDOCK:   14.08 KCAL/MOL
REMARK 924 INTRA-LIGAND FREE ENERGY PREDICTED BY IDOCK:   12.10 KCAL/MOL
REMARK 927      BINDING AFFINITY PREDICTED BY RF-SCORE:    0.00 PKD
ROOT
HETATM    1  C   UNL     1      -7.362   5.000  65.071  1.00  0.00    -0.068 C  
HETATM    2  O   UNL     1      -7.911   6.219  64.590  1.00  0.00    -0.113 OA 
HETATM    3  C   UNL     1      -8.514   6.935  65.645  1.00  0.00    -0.136 C  
HETATM    4  C   UNL     1      -9.160   8.205  65.218  1.00  0.00     0.135 C  
HETATM    5  C   UNL     1     -10.029   8.501  66.426  1.00  0.00    -0.314 C  
HETATM    6  C   UNL     1      -9.254   8.643  67.832  1.00  0.00    -0.139 C  
HETATM    7  C   UNL     1      -9.305   9.759  69.194  1.00  0.00    -0.185 C  
HETATM    8  C   UNL     1     -10.251  10.997  69.960  1.00  0.00     0.591 C  
HETATM    9  O   UNL     1     -10.532  10.786  71.160  1.00  0.00     1.384 OA 
HETATM   10  C   UNL     1     -10.541  12.520  69.494  1.00  0.00     0.369 C  
HETATM   11  C   UNL     1     -11.784  13.315  68.780  1.00  0.00    -0.366 C  
HETATM   12  C   UNL     1     -12.231  13.445  67.222  1.00  0.00    -0.233 C  
HETATM   13  O   UNL     1     -13.097  14.605  67.197  1.00  0.00     1.209 OA 
HETATM   14  C   UNL     1     -11.379  13.639  65.915  1.00  0.00    -0.317 C  
HETATM   15  C   UNL     1     -10.548  12.493  65.282  1.00  0.00    -0.290 C  
HETATM   16  C   UNL     1     -12.717  15.523  68.222  1.00  0.00     1.391 C  
HETATM   17  O   UNL     1      -7.852   8.346  67.641  1.00  0.00    -0.104 OA 
HETATM   18  C   UNL     1     -11.742  14.801  69.183  1.00  0.00    -0.313 C  
HETATM   19  O   UNL     1     -10.986  11.218  65.802  1.00  0.00    -0.240 OA 
HETATM   20  C   UNL     1      -7.520   7.264  66.760  1.00  0.00    -0.092 C  
HETATM   21  O   UNL     1      -8.033   5.293  68.248  1.00  0.00    -0.087 OA 
HETATM   22  C   UNL     1     -10.625  10.973  67.187  1.00  0.00    -0.250 C  
HETATM   23  C   UNL     1      -7.045   5.940  67.413  1.00  0.00    -0.074 C  
HETATM   24  C   UNL     1     -11.772   9.792  68.007  1.00  0.00     1.053 C  
HETATM   25  C   UNL     1      -6.406   5.140  66.251  1.00  0.00    -0.039 C  
HETATM   26  C   UNL     1      -9.046  11.383  67.310  1.00  0.00    -0.162 C  
HETATM   27  O   UNL     1      -9.324   4.284  66.581  1.00  0.00    -0.143 OA 
HETATM   28  C   UNL     1      -8.697  12.807  66.858  1.00  0.00    -0.169 C  
HETATM   29  C   UNL     1      -8.300   3.905  65.595  1.00  0.00    -0.109 C  
HETATM   30  O   UNL     1      -6.083   3.806  66.615  1.00  0.00    -0.023 OA 
HETATM   31  C   UNL     1     -11.882   8.759  69.404  1.00  0.00     1.056 C  
HETATM   32  C   UNL     1     -11.212   7.293  69.691  1.00  0.00    -0.084 C  
HETATM   33  C   UNL     1      -7.279   3.045  66.356  1.00  0.00    -0.066 C  
HETATM   34  C   UNL     1      -9.040  12.715  65.426  1.00  0.00     0.559 C  
HETATM   35  C   UNL     1      -7.306  13.254  67.354  1.00  0.00    -0.125 C  
HETATM   36  C   UNL     1      -7.918   2.836  67.701  1.00  0.00    -0.068 C  
HETATM   37  O   UNL     1     -12.238   6.417  70.288  1.00  0.00    -0.193 OA 
HETATM   38  C   UNL     1      -8.100  12.723  64.466  1.00  0.00     5.191 C  
HETATM   39  C   UNL     1     -11.498   5.238  70.740  1.00  0.00     0.972 C  
HETATM   40  C   UNL     1     -10.445   5.874  71.599  1.00  0.00    -0.285 C  
HETATM   41  C   UNL     1     -11.140   4.369  69.459  1.00  0.00     3.181 C  
HETATM   42  C   UNL     1      -9.750   3.742  69.113  1.00  0.00    -0.107 C  
HETATM   43  C   UNL     1      -9.984   6.905  70.625  1.00  0.00    -0.198 C  
HETATM   44  C   UNL     1      -8.642   7.002  70.560  1.00  0.00    -0.141 C  
HETATM   45  C   UNL     1      -8.762   4.116  67.887  1.00  0.00    -0.103 C  
ENDROOT
BRANCH  16  46
HETATM   46  C   UNL     1     -12.113  16.809  67.635  1.00  0.00     1.567 C  
BRANCH  46  47
HETATM   47  C   UNL     1     -10.790  16.687  66.881  1.00  0.00    -0.060 C  
HETATM   48  H   UNL     1      -8.957  17.353  67.097  1.00  0.00     0.000 HD 
HETATM   49  O   UNL     1      -9.780  17.429  67.566  1.00  0.00    -0.256 OA 
BRANCH  47  50
HETATM   50  C   UNL     1     -10.855  17.107  65.401  1.00  0.00    -0.046 C  
HETATM   51  N   UNL     1      -9.571  16.849  64.726  1.00  0.00     1.649 NA 
HETATM   52  H1  UNL     1      -9.614  17.127  63.745  1.00  0.00     0.000 HD 
HETATM   53  H2  UNL     1      -9.278  15.878  64.829  1.00  0.00     0.000 HD 
ENDBRANCH  47  50
ENDBRANCH  46  47
ENDBRANCH  16  46
BRANCH  18  54
HETATM   54  O   UNL     1     -10.411  15.324  69.058  1.00  0.00    -0.229 OA 
HETATM   55  C   UNL     1     -10.320  16.630  68.496  1.00  0.00    -0.303 C  
ENDBRANCH  18  54
TORSDOF 4
ENDMDL
MODEL       47
REMARK 921   NORMALIZED FREE ENERGY PREDICTED BY IDOCK:   21.44 KCAL/MOL
REMARK 922        TOTAL FREE ENERGY PREDICTED BY IDOCK:   26.44 KCAL/MOL
REMARK 923 INTER-LIGAND FREE ENERGY PREDICTED BY IDOCK:   20.70 KCAL/MOL
REMARK 924 INTRA-LIGAND FREE ENERGY PREDICTED BY IDOCK:    5.74 KCAL/MOL
REMARK 927      BINDING AFFINITY PREDICTED BY RF-SCORE:    0.00 PKD
ROOT
HETATM    1  C   UNL     1      -9.748   4.161  67.194  1.00  0.00    -0.186 C  
HETATM    2  O   UNL     1     -10.443   5.208  66.530  1.00  0.00    -0.263 OA 
HETATM    3  C   UNL     1     -10.348   6.405  67.271  1.00  0.00    -0.218 C  
HETATM    4  C   UNL     1     -11.093   7.544  66.669  1.00  0.00     0.718 C  
HETATM    5  C   UNL     1     -11.146   8.500  67.847  1.00  0.00     0.307 C  
HETATM    6  C   UNL     1      -9.723   8.944  68.457  1.00  0.00    -0.161 C  
HETATM    7  C   UNL     1      -8.990  10.460  68.976  1.00  0.00    -0.184 C  
HETATM    8  C   UNL     1      -9.329  12.103  69.422  1.00  0.00     1.057 C  
HETATM    9  O   UNL     1      -8.908  12.446  70.548  1.00  0.00     4.867 OA 
HETATM   10  C   UNL     1      -9.791  13.354  68.504  1.00  0.00    -0.178 C  
HETATM   11  C   UNL     1     -11.203  14.128  68.196  1.00  0.00    -0.299 C  
HETATM   12  C   UNL     1     -12.430  13.777  67.188  1.00  0.00    -0.045 C  
HETATM   13  O   UNL     1     -13.140  15.030  67.043  1.00  0.00     1.641 OA 
HETATM   14  C   UNL     1     -12.434  13.221  65.717  1.00  0.00    -0.480 C  
HETATM   15  C   UNL     1     -12.115  11.741  65.383  1.00  0.00     0.328 C  
HETATM   16  C   UNL     1     -12.236  16.125  67.197  1.00  0.00     1.632 C  
HETATM   17  O   UNL     1      -8.665   8.226  67.784  1.00  0.00    -0.133 OA 
HETATM   18  C   UNL     1     -10.912  15.583  67.784  1.00  0.00    -0.317 C  
HETATM   19  O   UNL     1     -12.225  10.930  66.573  1.00  0.00     1.162 OA 
HETATM   20  C   UNL     1      -8.897   6.845  67.473  1.00  0.00    -0.118 C  
HETATM   21  O   UNL     1      -8.554   5.804  69.744  1.00  0.00    -0.123 OA 
HETATM   22  C   UNL     1     -11.167  11.138  67.546  1.00  0.00    -0.301 C  
HETATM   23  C   UNL     1      -8.173   5.790  68.349  1.00  0.00    -0.108 C  
HETATM   24  C   UNL     1     -11.701  10.716  69.255  1.00  0.00    -0.336 C  
HETATM   25  C   UNL     1      -8.297   4.468  67.550  1.00  0.00    -0.100 C  
HETATM   26  C   UNL     1      -9.772  11.113  66.693  1.00  0.00    -0.224 C  
HETATM   27  O   UNL     1     -10.572   4.635  69.590  1.00  0.00     0.098 OA 
HETATM   28  C   UNL     1      -9.696  12.107  65.525  1.00  0.00    -0.197 C  
HETATM   29  C   UNL     1     -10.269   3.647  68.542  1.00  0.00     0.869 C  
HETATM   30  O   UNL     1      -7.860   3.338  68.289  1.00  0.00    -0.059 OA 
HETATM   31  C   UNL     1     -11.049  10.360  70.830  1.00  0.00    -0.084 C  
HETATM   32  C   UNL     1     -10.366   8.988  71.406  1.00  0.00    -0.326 C  
HETATM   33  C   UNL     1      -9.018   2.894  69.021  1.00  0.00    -0.121 C  
HETATM   34  C   UNL     1     -10.772  11.579  64.666  1.00  0.00    -0.379 C  
HETATM   35  C   UNL     1      -8.251  12.309  65.023  1.00  0.00     2.287 C  
HETATM   36  C   UNL     1      -8.816   3.392  70.427  1.00  0.00    -0.146 C  
HETATM   37  O   UNL     1     -10.915   8.720  72.749  1.00  0.00    -0.038 OA 
HETATM   38  C   UNL     1     -10.516  10.967  63.498  1.00  0.00    -0.267 C  
HETATM   39  C   UNL     1     -10.077   7.644  73.282  1.00  0.00    -0.334 C  
HETATM   40  C   UNL     1      -8.710   8.244  73.122  1.00  0.00    -0.291 C  
HETATM   41  C   UNL     1     -10.502   6.295  72.561  1.00  0.00    -0.228 C  
HETATM   42  C   UNL     1      -9.548   5.228  71.931  1.00  0.00    -0.191 C  
HETATM   43  C   UNL     1      -8.837   8.661  71.696  1.00  0.00    -0.292 C  
HETATM   44  C   UNL     1      -7.749   8.356  70.961  1.00  0.00    -0.099 C  
HETATM   45  C   UNL     1      -9.388   4.825  70.371  1.00  0.00    -0.151 C  
ENDROOT
BRANCH  16  46
HETATM   46  C   UNL     1     -12.026  16.876  65.872  1.00  0.00     2.581 C  
BRANCH  46  47
HETATM   47  C   UNL     1     -10.707  17.627  65.689  1.00  0.00    -0.084 C  
HETATM   48  H   UNL     1      -9.536  18.747  66.796  1.00  0.00     0.000 HD 
HETATM   49  O   UNL     1     -10.356  18.279  66.910  1.00  0.00    -0.355 OA 
BRANCH  47  50
HETATM   50  C   UNL     1     -10.698  18.629  64.521  1.00  0.00     3.709 C  
HETATM   51  N   UNL     1     -11.932  18.515  63.722  1.00  0.00     7.468 NA 
HETATM   52  H1  UNL     1     -11.926  19.179  62.948  1.00  0.00     0.000 HD 
HETATM   53  H2  UNL     1     -12.766  18.617  64.300  1.00  0.00     0.000 HD 
ENDBRANCH  47  50
ENDBRANCH  46  47
ENDBRANCH  16  46
BRANCH  18  54
HETATM   54  O   UNL     1      -9.857  15.634  66.811  1.00  0.00    -0.233 OA 
HETATM   55  C   UNL     1     -10.192  15.125  65.523  1.00  0.00    -0.376 C  
ENDBRANCH  18  54
TORSDOF 4
ENDMDL
MODEL       48
REMARK 921   NORMALIZED FREE ENERGY PREDICTED BY IDOCK:   22.66 KCAL/MOL
REMARK 922        TOTAL FREE ENERGY PREDICTED BY IDOCK:   27.95 KCAL/MOL
REMARK 923 INTER-LIGAND FREE ENERGY PREDICTED BY IDOCK:   24.36 KCAL/MOL
REMARK 924 INTRA-LIGAND FREE ENERGY PREDICTED BY IDOCK:    3.59 KCAL/MOL
REMARK 927      BINDING AFFINITY PREDICTED BY RF-SCORE:    0.00 PKD
ROOT
HETATM    1  C   UNL     1      -5.867   7.767  68.504  1.00  0.00    -0.031 C  
HETATM    2  O   UNL     1      -5.843   9.104  68.986  1.00  0.00    -0.039 OA 
HETATM    3  C   UNL     1      -6.719   9.912  68.231  1.00  0.00    -0.060 C  
HETATM    4  C   UNL     1      -6.718  11.343  68.639  1.00  0.00    -0.070 C  
HETATM    5  C   UNL     1      -7.389  11.980  67.436  1.00  0.00    -0.150 C  
HETATM    6  C   UNL     1      -8.865  11.438  67.085  1.00  0.00    -0.156 C  
HETATM    7  C   UNL     1     -10.409  12.169  66.654  1.00  0.00    -0.233 C  
HETATM    8  C   UNL     1     -11.162  13.628  66.090  1.00  0.00    -0.302 C  
HETATM    9  O   UNL     1     -11.846  13.505  65.050  1.00  0.00    -0.328 OA 
HETATM   10  C   UNL     1     -11.412  15.032  66.857  1.00  0.00    -0.266 C  
HETATM   11  C   UNL     1     -10.701  16.508  66.866  1.00  0.00    -0.175 C  
HETATM   12  C   UNL     1      -9.385  17.070  67.640  1.00  0.00    -0.241 C  
HETATM   13  O   UNL     1      -9.537  18.508  67.602  1.00  0.00    -0.278 OA 
HETATM   14  C   UNL     1      -8.866  16.830  69.104  1.00  0.00    -0.105 C  
HETATM   15  C   UNL     1      -8.206  15.499  69.549  1.00  0.00    -0.209 C  
HETATM   16  C   UNL     1     -10.923  18.854  67.577  1.00  0.00    -0.236 C  
HETATM   17  O   UNL     1      -9.200  10.346  67.972  1.00  0.00    -0.137 OA 
HETATM   18  C   UNL     1     -11.737  17.575  67.269  1.00  0.00     1.612 C  
HETATM   19  O   UNL     1      -7.794  14.739  68.392  1.00  0.00    -0.116 OA 
HETATM   20  C   UNL     1      -8.162   9.408  68.286  1.00  0.00    -0.118 C  
HETATM   21  O   UNL     1      -8.116   8.052  66.161  1.00  0.00    -0.102 OA 
HETATM   22  C   UNL     1      -8.886  14.164  67.625  1.00  0.00    -0.194 C  
HETATM   23  C   UNL     1      -8.232   8.018  67.602  1.00  0.00    -0.124 C  
HETATM   24  C   UNL     1      -8.431  13.890  65.865  1.00  0.00     1.502 C  
HETATM   25  C   UNL     1      -7.252   7.134  68.413  1.00  0.00    -0.091 C  
HETATM   26  C   UNL     1      -9.875  13.466  68.725  1.00  0.00    -0.030 C  
HETATM   27  O   UNL     1      -5.797   8.285  65.981  1.00  0.00    -0.042 OA 
HETATM   28  C   UNL     1     -10.371  14.388  69.847  1.00  0.00     0.300 C  
HETATM   29  C   UNL     1      -5.323   7.461  67.104  1.00  0.00    -0.029 C  
HETATM   30  O   UNL     1      -7.031   5.867  67.814  1.00  0.00    -0.065 OA 
HETATM   31  C   UNL     1      -8.946  13.007  64.454  1.00  0.00     2.302 C  
HETATM   32  C   UNL     1      -8.757  11.427  64.069  1.00  0.00     0.415 C  
HETATM   33  C   UNL     1      -5.940   6.069  66.895  1.00  0.00    -0.018 C  
HETATM   34  C   UNL     1      -9.091  14.699  70.510  1.00  0.00     1.832 C  
HETATM   35  C   UNL     1     -11.578  13.795  70.602  1.00  0.00    -0.013 C  
HETATM   36  C   UNL     1      -6.575   6.158  65.535  1.00  0.00    -0.047 C  
HETATM   37  O   UNL     1      -8.334  11.336  62.658  1.00  0.00    -0.124 OA 
HETATM   38  C   UNL     1      -8.784  14.222  71.728  1.00  0.00     7.097 C  
HETATM   39  C   UNL     1      -8.439   9.913  62.333  1.00  0.00    -0.159 C  
HETATM   40  C   UNL     1      -9.862   9.636  62.722  1.00  0.00     0.903 C  
HETATM   41  C   UNL     1      -7.212   9.168  63.013  1.00  0.00    -0.094 C  
HETATM   42  C   UNL     1      -7.265   7.848  63.851  1.00  0.00    -0.088 C  
HETATM   43  C   UNL     1      -9.823  10.247  64.083  1.00  0.00    -0.319 C  
HETATM   44  C   UNL     1     -10.416   9.480  65.018  1.00  0.00     1.344 C  
HETATM   45  C   UNL     1      -6.955   7.651  65.427  1.00  0.00    -0.059 C  
ENDROOT
BRANCH  16  46
HETATM   46  C   UNL     1     -11.363  19.526  68.888  1.00  0.00     2.299 C  
BRANCH  46  47
HETATM   47  C   UNL     1     -10.459  19.351  70.108  1.00  0.00     1.239 C  
HETATM   48  H   UNL     1     -10.676  18.796  71.977  1.00  0.00     0.000 HD 
HETATM   49  O   UNL     1     -11.238  18.904  71.219  1.00  0.00     3.274 OA 
BRANCH  47  50
HETATM   50  C   UNL     1      -9.647  20.602  70.488  1.00  0.00     1.763 C  
HETATM   51  N   UNL     1      -8.887  20.377  71.730  1.00  0.00     1.076 NA 
HETATM   52  H1  UNL     1      -8.349  21.207  71.982  1.00  0.00     0.000 HD 
HETATM   53  H2  UNL     1      -8.295  19.549  71.665  1.00  0.00     0.000 HD 
ENDBRANCH  47  50
ENDBRANCH  46  47
ENDBRANCH  16  46
BRANCH  18  54
HETATM   54  O   UNL     1     -12.483  17.148  68.419  1.00  0.00     1.617 OA 
HETATM   55  C   UNL     1     -12.473  15.745  68.665  1.00  0.00     0.630 C  
ENDBRANCH  18  54
TORSDOF 4
ENDMDL
MODEL       49
REMARK 921   NORMALIZED FREE ENERGY PREDICTED BY IDOCK:   24.94 KCAL/MOL
REMARK 922        TOTAL FREE ENERGY PREDICTED BY IDOCK:   30.75 KCAL/MOL
REMARK 923 INTER-LIGAND FREE ENERGY PREDICTED BY IDOCK:   29.72 KCAL/MOL
REMARK 924 INTRA-LIGAND FREE ENERGY PREDICTED BY IDOCK:    1.03 KCAL/MOL
REMARK 927      BINDING AFFINITY PREDICTED BY RF-SCORE:    0.00 PKD
ROOT
HETATM    1  C   UNL     1     -12.759  16.091  70.324  1.00  0.00     0.370 C  
HETATM    2  O   UNL     1     -13.299  14.777  70.313  1.00  0.00    -0.083 OA 
HETATM    3  C   UNL     1     -12.265  13.823  70.212  1.00  0.00    -0.359 C  
HETATM    4  C   UNL     1     -12.749  12.418  70.144  1.00  0.00     0.191 C  
HETATM    5  C   UNL     1     -11.503  11.714  69.639  1.00  0.00    -0.359 C  
HETATM    6  C   UNL     1     -10.186  11.872  70.554  1.00  0.00     3.600 C  
HETATM    7  C   UNL     1      -8.930  10.793  71.155  1.00  0.00     4.926 C  
HETATM    8  C   UNL     1      -8.201   9.231  70.943  1.00  0.00    -0.132 C  
HETATM    9  O   UNL     1      -6.967   9.243  70.738  1.00  0.00    -0.087 OA 
HETATM   10  C   UNL     1      -8.775   7.760  71.299  1.00  0.00    -0.140 C  
HETATM   11  C   UNL     1      -9.450   6.526  70.457  1.00  0.00    -0.173 C  
HETATM   12  C   UNL     1     -10.971   6.277  69.936  1.00  0.00    -0.370 C  
HETATM   13  O   UNL     1     -11.027   4.856  69.670  1.00  0.00     0.399 OA 
HETATM   14  C   UNL     1     -12.357   6.540  70.630  1.00  0.00    -0.037 C  
HETATM   15  C   UNL     1     -12.952   7.962  70.795  1.00  0.00     0.287 C  
HETATM   16  C   UNL     1     -10.124   4.160  70.530  1.00  0.00     0.004 C  
HETATM   17  O   UNL     1     -10.467  12.770  71.651  1.00  0.00     6.853 OA 
HETATM   18  C   UNL     1      -9.187   5.198  71.192  1.00  0.00    -0.145 C  
HETATM   19  O   UNL     1     -12.286   8.884  69.905  1.00  0.00     0.551 OA 
HETATM   20  C   UNL     1     -11.272  13.924  71.371  1.00  0.00     1.747 C  
HETATM   21  O   UNL     1      -9.576  15.393  70.221  1.00  0.00    -0.026 OA 
HETATM   22  C   UNL     1     -10.919   9.205  70.280  1.00  0.00    -0.245 C  
HETATM   23  C   UNL     1     -10.545  15.291  71.289  1.00  0.00     0.329 C  
HETATM   24  C   UNL     1      -9.904   9.715  68.834  1.00  0.00    -0.179 C  
HETATM   25  C   UNL     1     -11.681  16.342  71.374  1.00  0.00    -0.368 C  
HETATM   26  C   UNL     1     -10.967   9.537  71.880  1.00  0.00     0.029 C  
HETATM   27  O   UNL     1     -11.031  15.792  68.435  1.00  0.00    -0.290 OA 
HETATM   28  C   UNL     1     -11.573   8.438  72.764  1.00  0.00    -0.244 C  
HETATM   29  C   UNL     1     -12.062  16.629  69.068  1.00  0.00     0.912 C  
HETATM   30  O   UNL     1     -11.227  17.662  71.118  1.00  0.00     1.252 OA 
HETATM   31  C   UNL     1      -8.414  10.530  68.444  1.00  0.00    -0.128 C  
HETATM   32  C   UNL     1      -8.055  12.126  68.431  1.00  0.00    -0.149 C  
HETATM   33  C   UNL     1     -11.315  17.821  69.689  1.00  0.00     2.154 C  
HETATM   34  C   UNL     1     -12.956   8.429  72.253  1.00  0.00    -0.338 C  
HETATM   35  C   UNL     1     -11.238   8.637  74.257  1.00  0.00     7.377 C  
HETATM   36  C   UNL     1      -9.907  17.665  69.183  1.00  0.00    -0.145 C  
HETATM   37  O   UNL     1      -7.297  12.427  67.202  1.00  0.00    -0.139 OA 
HETATM   38  C   UNL     1     -13.989   8.882  72.983  1.00  0.00     0.139 C  
HETATM   39  C   UNL     1      -6.806  13.792  67.395  1.00  0.00    -0.018 C  
HETATM   40  C   UNL     1      -6.098  13.655  68.712  1.00  0.00    -0.086 C  
HETATM   41  C   UNL     1      -8.029  14.783  67.187  1.00  0.00    -0.205 C  
HETATM   42  C   UNL     1      -8.434  15.978  68.110  1.00  0.00    -0.169 C  
HETATM   43  C   UNL     1      -7.197  12.981  69.463  1.00  0.00     0.369 C  
HETATM   44  C   UNL     1      -7.383  13.494  70.695  1.00  0.00     2.367 C  
HETATM   45  C   UNL     1      -9.767  16.137  69.014  1.00  0.00    -0.248 C  
ENDROOT
BRANCH  16  46
HETATM   46  C   UNL     1     -10.873   3.304  71.564  1.00  0.00     1.354 C  
BRANCH  46  47
HETATM   47  C   UNL     1     -10.044   2.349  72.423  1.00  0.00    -0.160 C  
HETATM   48  H   UNL     1      -9.809   1.991  74.338  1.00  0.00     0.000 HD 
HETATM   49  O   UNL     1     -10.324   2.585  73.804  1.00  0.00    -0.107 OA 
BRANCH  47  50
HETATM   50  C   UNL     1      -8.528   2.407  72.164  1.00  0.00    -0.061 C  
HETATM   51  N   UNL     1      -7.797   1.579  73.139  1.00  0.00    -0.036 NA 
HETATM   52  H1  UNL     1      -6.792   1.617  72.967  1.00  0.00     0.000 HD 
HETATM   53  H2  UNL     1      -8.141   0.619  73.152  1.00  0.00     0.000 HD 
ENDBRANCH  47  50
ENDBRANCH  46  47
ENDBRANCH  16  46
BRANCH  18  54
HETATM   54  O   UNL     1      -9.471   5.329  72.594  1.00  0.00    -0.146 OA 
HETATM   55  C   UNL     1      -8.341   5.595  73.421  1.00  0.00    -0.116 C  
ENDBRANCH  18  54
TORSDOF 4
ENDMDL
MODEL       50
REMARK 921   NORMALIZED FREE ENERGY PREDICTED BY IDOCK:   25.22 KCAL/MOL
REMARK 922        TOTAL FREE ENERGY PREDICTED BY IDOCK:   31.10 KCAL/MOL
REMARK 923 INTER-LIGAND FREE ENERGY PREDICTED BY IDOCK:   29.22 KCAL/MOL
REMARK 924 INTRA-LIGAND FREE ENERGY PREDICTED BY IDOCK:    1.88 KCAL/MOL
REMARK 927      BINDING AFFINITY PREDICTED BY RF-SCORE:    0.00 PKD
ROOT
HETATM    1  C   UNL     1     -13.210  15.208  69.474  1.00  0.00     0.948 C  
HETATM    2  O   UNL     1     -13.727  13.973  69.948  1.00  0.00     1.292 OA 
HETATM    3  C   UNL     1     -12.852  12.917  69.618  1.00  0.00     0.816 C  
HETATM    4  C   UNL     1     -13.344  11.576  70.036  1.00  0.00     1.289 C  
HETATM    5  C   UNL     1     -12.444  10.676  69.211  1.00  0.00     0.187 C  
HETATM    6  C   UNL     1     -10.860  10.856  69.447  1.00  0.00    -0.240 C  
HETATM    7  C   UNL     1      -9.487   9.775  69.675  1.00  0.00    -0.237 C  
HETATM    8  C   UNL     1      -8.946   8.135  69.493  1.00  0.00    -0.151 C  
HETATM    9  O   UNL     1      -7.916   7.989  68.799  1.00  0.00    -0.115 OA 
HETATM   10  C   UNL     1      -9.341   6.812  70.338  1.00  0.00    -0.163 C  
HETATM   11  C   UNL     1     -10.331   5.526  70.114  1.00  0.00    -0.354 C  
HETATM   12  C   UNL     1     -11.934   5.345  70.329  1.00  0.00     2.892 C  
HETATM   13  O   UNL     1     -12.123   3.912  70.397  1.00  0.00     9.022 OA 
HETATM   14  C   UNL     1     -12.888   5.860  71.467  1.00  0.00     1.164 C  
HETATM   15  C   UNL     1     -13.331   7.342  71.579  1.00  0.00    -0.369 C  
HETATM   16  C   UNL     1     -10.952   3.287  70.925  1.00  0.00     2.989 C  
HETATM   17  O   UNL     1     -10.631  11.952  70.361  1.00  0.00     1.320 OA 
HETATM   18  C   UNL     1      -9.804   4.324  70.920  1.00  0.00    -0.189 C  
HETATM   19  O   UNL     1     -13.089   8.026  70.331  1.00  0.00     0.650 OA 
HETATM   20  C   UNL     1     -11.458  13.115  70.217  1.00  0.00     0.154 C  
HETATM   21  O   UNL     1     -10.387  14.188  68.203  1.00  0.00    -0.229 OA 
HETATM   22  C   UNL     1     -11.688   8.268  70.034  1.00  0.00     0.316 C  
HETATM   23  C   UNL     1     -10.811  14.369  69.573  1.00  0.00    -0.150 C  
HETATM   24  C   UNL     1     -11.375   8.418  68.229  1.00  0.00     0.822 C  
HETATM   25  C   UNL     1     -11.784  15.526  69.911  1.00  0.00    -0.352 C  
HETATM   26  C   UNL     1     -11.045   8.873  71.411  1.00  0.00    -0.376 C  
HETATM   27  O   UNL     1     -12.455  14.419  67.139  1.00  0.00    -0.234 OA 
HETATM   28  C   UNL     1     -11.236   8.008  72.664  1.00  0.00    -0.462 C  
HETATM   29  C   UNL     1     -13.104  15.451  67.963  1.00  0.00     2.971 C  
HETATM   30  O   UNL     1     -11.458  16.731  69.235  1.00  0.00    -0.033 OA 
HETATM   31  C   UNL     1     -10.179   9.001  67.104  1.00  0.00    -0.334 C  
HETATM   32  C   UNL     1      -9.830  10.528  66.629  1.00  0.00    -0.199 C  
HETATM   33  C   UNL     1     -12.143  16.651  67.971  1.00  0.00     1.157 C  
HETATM   34  C   UNL     1     -12.706   8.050  72.785  1.00  0.00     0.137 C  
HETATM   35  C   UNL     1     -10.294   8.425  73.813  1.00  0.00     1.889 C  
HETATM   36  C   UNL     1     -11.088  16.271  66.969  1.00  0.00     0.017 C  
HETATM   37  O   UNL     1      -9.663  10.536  65.163  1.00  0.00    -0.236 OA 
HETATM   38  C   UNL     1     -13.321   8.722  73.772  1.00  0.00     3.397 C  
HETATM   39  C   UNL     1      -9.111  11.858  64.862  1.00  0.00     0.357 C  
HETATM   40  C   UNL     1      -7.913  11.879  65.766  1.00  0.00     0.782 C  
HETATM   41  C   UNL     1     -10.289  12.916  64.987  1.00  0.00    -0.334 C  
HETATM   42  C   UNL     1     -10.241  14.286  65.739  1.00  0.00    -0.351 C  
HETATM   43  C   UNL     1      -8.600  11.456  67.022  1.00  0.00    -0.157 C  
HETATM   44  C   UNL     1      -8.235  12.189  68.092  1.00  0.00    -0.164 C  
HETATM   45  C   UNL     1     -11.060  14.730  67.062  1.00  0.00    -0.333 C  
ENDROOT
BRANCH  16  46
HETATM   46  C   UNL     1     -11.205   2.700  72.323  1.00  0.00     0.970 C  
BRANCH  46  47
HETATM   47  C   UNL     1     -10.152   1.748  72.890  1.00  0.00    -0.111 C  
HETATM   48  H   UNL     1      -9.418   1.321  74.659  1.00  0.00     0.000 HD 
HETATM   49  O   UNL     1     -10.074   1.913  74.307  1.00  0.00    -0.095 OA 
BRANCH  47  50
HETATM   50  C   UNL     1      -8.757   1.884  72.253  1.00  0.00    -0.064 C  
HETATM   51  N   UNL     1      -7.703   1.816  73.281  1.00  0.00    -0.040 NA 
HETATM   52  H1  UNL     1      -6.778   1.906  72.859  1.00  0.00     0.000 HD 
HETATM   53  H2  UNL     1      -7.779   0.969  73.844  1.00  0.00     0.000 HD 
ENDBRANCH  47  50
ENDBRANCH  46  47
ENDBRANCH  16  46
BRANCH  18  54
HETATM   54  O   UNL     1      -9.462   4.721  72.257  1.00  0.00    -0.132 OA 
HETATM   55  C   UNL     1      -8.387   5.650  72.360  1.00  0.00    -0.115 C  
ENDBRANCH  18  54
TORSDOF 4
ENDMDL
MODEL       51
REMARK 921   NORMALIZED FREE ENERGY PREDICTED BY IDOCK:   26.25 KCAL/MOL
REMARK 922        TOTAL FREE ENERGY PREDICTED BY IDOCK:   32.37 KCAL/MOL
REMARK 923 INTER-LIGAND FREE ENERGY PREDICTED BY IDOCK:   32.30 KCAL/MOL
REMARK 924 INTRA-LIGAND FREE ENERGY PREDICTED BY IDOCK:    0.08 KCAL/MOL
REMARK 927      BINDING AFFINITY PREDICTED BY RF-SCORE:    0.00 PKD
ROOT
HETATM    1  C   UNL     1     -10.564  19.187  70.552  1.00  0.00     2.119 C  
HETATM    2  O   UNL     1     -11.201  17.954  70.247  1.00  0.00     1.604 OA 
HETATM    3  C   UNL     1     -10.365  17.158  69.436  1.00  0.00    -0.195 C  
HETATM    4  C   UNL     1     -10.978  15.865  69.028  1.00  0.00    -0.277 C  
HETATM    5  C   UNL     1     -10.058  15.464  67.889  1.00  0.00    -0.226 C  
HETATM    6  C   UNL     1      -8.498  15.319  68.262  1.00  0.00    -0.154 C  
HETATM    7  C   UNL     1      -7.224  14.148  67.928  1.00  0.00    -0.165 C  
HETATM    8  C   UNL     1      -6.771  12.820  66.906  1.00  0.00     0.454 C  
HETATM    9  O   UNL     1      -5.689  12.964  66.296  1.00  0.00     1.303 OA 
HETATM   10  C   UNL     1      -7.328  11.301  66.868  1.00  0.00    -0.145 C  
HETATM   11  C   UNL     1      -8.370  10.453  65.928  1.00  0.00    -0.152 C  
HETATM   12  C   UNL     1      -9.994  10.356  65.931  1.00  0.00    -0.255 C  
HETATM   13  O   UNL     1     -10.278   9.143  65.194  1.00  0.00     0.482 OA 
HETATM   14  C   UNL     1     -11.022  10.272  67.117  1.00  0.00    -0.233 C  
HETATM   15  C   UNL     1     -11.381  11.495  68.000  1.00  0.00    -0.298 C  
HETATM   16  C   UNL     1      -9.206   8.212  65.350  1.00  0.00     0.214 C  
HETATM   17  O   UNL     1      -8.293  15.716  69.637  1.00  0.00    -0.219 OA 
HETATM   18  C   UNL     1      -8.001   8.959  65.971  1.00  0.00    -0.106 C  
HETATM   19  O   UNL     1     -10.975  12.716  67.343  1.00  0.00    -0.240 OA 
HETATM   20  C   UNL     1      -9.028  16.852  70.113  1.00  0.00     2.036 C  
HETATM   21  O   UNL     1      -7.698  18.723  69.070  1.00  0.00    -0.292 OA 
HETATM   22  C   UNL     1      -9.539  12.929  67.296  1.00  0.00    -0.220 C  
HETATM   23  C   UNL     1      -8.244  18.177  70.292  1.00  0.00     2.892 C  
HETATM   24  C   UNL     1      -9.040  13.998  65.885  1.00  0.00     0.291 C  
HETATM   25  C   UNL     1      -9.171  19.064  71.161  1.00  0.00     4.345 C  
HETATM   26  C   UNL     1      -8.999  12.622  68.809  1.00  0.00     0.170 C  
HETATM   27  O   UNL     1      -9.633  19.709  68.206  1.00  0.00    -0.351 OA 
HETATM   28  C   UNL     1      -9.367  11.243  69.374  1.00  0.00     0.364 C  
HETATM   29  C   UNL     1     -10.294  20.194  69.428  1.00  0.00     0.143 C  
HETATM   30  O   UNL     1      -8.706  20.401  71.272  1.00  0.00     1.281 OA 
HETATM   31  C   UNL     1      -7.705  14.965  65.323  1.00  0.00     7.245 C  
HETATM   32  C   UNL     1      -7.217  16.459  65.779  1.00  0.00     1.662 C  
HETATM   33  C   UNL     1      -9.266  21.090  70.137  1.00  0.00     2.883 C  
HETATM   34  C   UNL     1     -10.835  11.369  69.425  1.00  0.00    -0.214 C  
HETATM   35  C   UNL     1      -8.518  10.870  70.607  1.00  0.00     3.032 C  
HETATM   36  C   UNL     1      -8.142  21.202  69.144  1.00  0.00     2.791 C  
HETATM   37  O   UNL     1      -6.905  17.240  64.567  1.00  0.00     3.067 OA 
HETATM   38  C   UNL     1     -11.503  11.461  70.587  1.00  0.00     0.162 C  
HETATM   39  C   UNL     1      -6.245  18.448  65.065  1.00  0.00    -0.072 C  
HETATM   40  C   UNL     1      -5.144  17.849  65.891  1.00  0.00    -0.225 C  
HETATM   41  C   UNL     1      -7.361  19.388  65.691  1.00  0.00    -0.214 C  
HETATM   42  C   UNL     1      -7.303  20.120  67.071  1.00  0.00    -0.310 C  
HETATM   43  C   UNL     1      -5.976  16.891  66.675  1.00  0.00    -0.163 C  
HETATM   44  C   UNL     1      -5.674  16.886  67.988  1.00  0.00    -0.126 C  
HETATM   45  C   UNL     1      -8.220  19.862  68.380  1.00  0.00    -0.188 C  
ENDROOT
BRANCH  16  46
HETATM   46  C   UNL     1      -9.632   6.993  66.185  1.00  0.00    -0.006 C  
BRANCH  46  47
HETATM   47  C   UNL     1      -8.984   5.650  65.854  1.00  0.00    -0.155 C  
HETATM   48  H   UNL     1      -8.212   4.790  64.268  1.00  0.00     0.000 HD 
HETATM   49  O   UNL     1      -8.615   5.626  64.474  1.00  0.00    -0.110 OA 
BRANCH  47  50
HETATM   50  C   UNL     1      -9.842   4.421  66.204  1.00  0.00    -0.231 C  
HETATM   51  N   UNL     1     -10.668   4.014  65.053  1.00  0.00    -0.550 NA 
HETATM   52  H1  UNL     1     -11.238   3.199  65.285  1.00  0.00     0.000 HD 
HETATM   53  H2  UNL     1     -10.103   3.853  64.220  1.00  0.00     0.000 HD 
ENDBRANCH  47  50
ENDBRANCH  46  47
ENDBRANCH  16  46
BRANCH  18  54
HETATM   54  O   UNL     1      -7.769   8.532  67.322  1.00  0.00    -0.095 OA 
HETATM   55  C   UNL     1      -6.404   8.526  67.732  1.00  0.00    -0.057 C  
ENDBRANCH  18  54
TORSDOF 4
ENDMDL
MODEL       52
REMARK 921   NORMALIZED FREE ENERGY PREDICTED BY IDOCK:   28.71 KCAL/MOL
REMARK 922        TOTAL FREE ENERGY PREDICTED BY IDOCK:   35.41 KCAL/MOL
REMARK 923 INTER-LIGAND FREE ENERGY PREDICTED BY IDOCK:   27.54 KCAL/MOL
REMARK 924 INTRA-LIGAND FREE ENERGY PREDICTED BY IDOCK:    7.87 KCAL/MOL
REMARK 927      BINDING AFFINITY PREDICTED BY RF-SCORE:    0.00 PKD
ROOT
HETATM    1  C   UNL     1     -10.281   4.150  64.864  1.00  0.00    -0.204 C  
HETATM    2  O   UNL     1     -10.736   5.483  65.053  1.00  0.00     1.051 OA 
HETATM    3  C   UNL     1     -10.097   6.064  66.168  1.00  0.00     0.083 C  
HETATM    4  C   UNL     1     -10.554   7.448  66.468  1.00  0.00     0.088 C  
HETATM    5  C   UNL     1     -10.029   7.619  67.882  1.00  0.00    -0.208 C  
HETATM    6  C   UNL     1      -8.439   7.437  68.069  1.00  0.00    -0.123 C  
HETATM    7  C   UNL     1      -7.162   8.302  68.920  1.00  0.00    -0.078 C  
HETATM    8  C   UNL     1      -6.847   9.480  70.156  1.00  0.00    -0.085 C  
HETATM    9  O   UNL     1      -6.094   9.095  71.078  1.00  0.00    -0.050 OA 
HETATM   10  C   UNL     1      -7.080  11.082  70.148  1.00  0.00     0.284 C  
HETATM   11  C   UNL     1      -8.200  12.110  70.760  1.00  0.00     7.096 C  
HETATM   12  C   UNL     1      -9.670  12.551  70.221  1.00  0.00     4.212 C  
HETATM   13  O   UNL     1      -9.954  13.780  70.931  1.00  0.00     3.427 OA 
HETATM   14  C   UNL     1     -10.185  12.879  68.773  1.00  0.00    -0.105 C  
HETATM   15  C   UNL     1     -10.442  11.780  67.709  1.00  0.00    -0.194 C  
HETATM   16  C   UNL     1      -8.738  14.464  71.233  1.00  0.00     4.886 C  
HETATM   17  O   UNL     1      -7.849   7.036  66.812  1.00  0.00    -0.103 OA 
HETATM   18  C   UNL     1      -7.560  13.492  70.985  1.00  0.00     4.476 C  
HETATM   19  O   UNL     1     -10.533  10.486  68.345  1.00  0.00    -0.168 OA 
HETATM   20  C   UNL     1      -8.576   6.094  66.012  1.00  0.00    -0.145 C  
HETATM   21  O   UNL     1      -8.078   3.960  67.259  1.00  0.00    -0.091 OA 
HETATM   22  C   UNL     1      -9.272   9.971  68.851  1.00  0.00    -0.169 C  
HETATM   23  C   UNL     1      -8.049   4.636  65.981  1.00  0.00    -0.103 C  
HETATM   24  C   UNL     1      -9.511   8.790  70.240  1.00  0.00    -0.194 C  
HETATM   25  C   UNL     1      -8.768   3.987  64.772  1.00  0.00    -0.119 C  
HETATM   26  C   UNL     1      -8.191  10.190  67.644  1.00  0.00    -0.110 C  
HETATM   27  O   UNL     1     -10.343   3.388  67.325  1.00  0.00     0.860 OA 
HETATM   28  C   UNL     1      -8.067  11.628  67.121  1.00  0.00    -0.166 C  
HETATM   29  C   UNL     1     -10.619   3.083  65.913  1.00  0.00     2.171 C  
HETATM   30  O   UNL     1      -8.559   2.585  64.698  1.00  0.00    -0.088 OA 
HETATM   31  C   UNL     1      -8.667   7.548  71.123  1.00  0.00    -0.136 C  
HETATM   32  C   UNL     1      -8.347   5.995  70.719  1.00  0.00    -0.126 C  
HETATM   33  C   UNL     1      -9.600   2.005  65.508  1.00  0.00     0.271 C  
HETATM   34  C   UNL     1      -9.421  11.819  66.568  1.00  0.00    -0.225 C  
HETATM   35  C   UNL     1      -6.788  11.839  66.285  1.00  0.00     0.370 C  
HETATM   36  C   UNL     1      -8.936   1.634  66.806  1.00  0.00    -0.117 C  
HETATM   37  O   UNL     1      -8.633   5.138  71.886  1.00  0.00    -0.126 OA 
HETATM   38  C   UNL     1      -9.647  11.897  65.246  1.00  0.00    -0.156 C  
HETATM   39  C   UNL     1      -8.086   3.829  71.525  1.00  0.00    -0.069 C  
HETATM   40  C   UNL     1      -6.673   4.198  71.178  1.00  0.00    -0.034 C  
HETATM   41  C   UNL     1      -9.073   3.162  70.475  1.00  0.00    -0.193 C  
HETATM   42  C   UNL     1      -8.679   2.466  69.132  1.00  0.00    -0.131 C  
HETATM   43  C   UNL     1      -6.980   5.329  70.254  1.00  0.00    -0.056 C  
HETATM   44  C   UNL     1      -6.244   5.299  69.126  1.00  0.00    -0.033 C  
HETATM   45  C   UNL     1      -9.016   2.942  67.622  1.00  0.00    -0.160 C  
ENDROOT
BRANCH  16  46
HETATM   46  C   UNL     1      -8.604  15.764  70.423  1.00  0.00     1.458 C  
BRANCH  46  47
HETATM   47  C   UNL     1      -7.268  16.030  69.731  1.00  0.00     0.056 C  
HETATM   48  H   UNL     1      -5.366  15.844  70.179  1.00  0.00     0.000 HD 
HETATM   49  O   UNL     1      -6.198  15.678  70.609  1.00  0.00     0.044 OA 
BRANCH  47  50
HETATM   50  C   UNL     1      -7.089  17.469  69.215  1.00  0.00    -0.130 C  
HETATM   51  N   UNL     1      -7.984  18.397  69.929  1.00  0.00     1.026 NA 
HETATM   52  H1  UNL     1      -7.866  19.351  69.587  1.00  0.00     0.000 HD 
HETATM   53  H2  UNL     1      -7.857  18.341  70.939  1.00  0.00     0.000 HD 
ENDBRANCH  47  50
ENDBRANCH  46  47
ENDBRANCH  16  46
BRANCH  18  54
HETATM   54  O   UNL     1      -6.794  13.891  69.838  1.00  0.00    -0.024 OA 
HETATM   55  C   UNL     1      -5.435  14.228  70.100  1.00  0.00    -0.107 C  
ENDBRANCH  18  54
TORSDOF 4
ENDMDL
MODEL       53
REMARK 921   NORMALIZED FREE ENERGY PREDICTED BY IDOCK:   29.32 KCAL/MOL
REMARK 922        TOTAL FREE ENERGY PREDICTED BY IDOCK:   36.16 KCAL/MOL
REMARK 923 INTER-LIGAND FREE ENERGY PREDICTED BY IDOCK:   36.39 KCAL/MOL
REMARK 924 INTRA-LIGAND FREE ENERGY PREDICTED BY IDOCK:   -0.23 KCAL/MOL
REMARK 927      BINDING AFFINITY PREDICTED BY RF-SCORE:    0.00 PKD
ROOT
HETATM    1  C   UNL     1      -8.066   2.728  69.848  1.00  0.00    -0.041 C  
HETATM    2  O   UNL     1      -7.207   3.788  70.248  1.00  0.00    -0.041 OA 
HETATM    3  C   UNL     1      -7.595   4.993  69.626  1.00  0.00    -0.057 C  
HETATM    4  C   UNL     1      -6.715   6.147  69.953  1.00  0.00    -0.056 C  
HETATM    5  C   UNL     1      -7.115   7.125  68.863  1.00  0.00    -0.084 C  
HETATM    6  C   UNL     1      -8.674   7.528  68.818  1.00  0.00    -0.128 C  
HETATM    7  C   UNL     1      -9.586   9.026  68.641  1.00  0.00    -0.158 C  
HETATM    8  C   UNL     1      -9.474  10.687  68.151  1.00  0.00    -0.154 C  
HETATM    9  O   UNL     1     -10.282  11.035  67.261  1.00  0.00    -0.187 OA 
HETATM   10  C   UNL     1      -8.746  11.938  68.877  1.00  0.00     0.164 C  
HETATM   11  C   UNL     1      -7.340  12.757  68.680  1.00  0.00    -0.099 C  
HETATM   12  C   UNL     1      -5.823  12.432  69.168  1.00  0.00    -0.075 C  
HETATM   13  O   UNL     1      -5.143  13.707  69.085  1.00  0.00    -0.077 OA 
HETATM   14  C   UNL     1      -5.275  11.852  70.522  1.00  0.00    -0.126 C  
HETATM   15  C   UNL     1      -5.412  10.355  70.906  1.00  0.00    -0.088 C  
HETATM   16  C   UNL     1      -6.071  14.772  69.297  1.00  0.00    -0.106 C  
HETATM   17  O   UNL     1      -9.399   6.761  69.805  1.00  0.00    -0.146 OA 
HETATM   18  C   UNL     1      -7.503  14.193  69.210  1.00  0.00     0.018 C  
HETATM   19  O   UNL     1      -5.716   9.570  69.733  1.00  0.00    -0.032 OA 
HETATM   20  C   UNL     1      -9.032   5.384  69.971  1.00  0.00    -0.129 C  
HETATM   21  O   UNL     1     -10.142   4.371  67.947  1.00  0.00    -0.071 OA 
HETATM   22  C   UNL     1      -7.059   9.756  69.211  1.00  0.00    -0.066 C  
HETATM   23  C   UNL     1      -9.995   4.320  69.384  1.00  0.00    -0.035 C  
HETATM   24  C   UNL     1      -7.164   9.383  67.414  1.00  0.00    -0.087 C  
HETATM   25  C   UNL     1      -9.555   2.990  70.046  1.00  0.00    -0.072 C  
HETATM   26  C   UNL     1      -8.051   9.667  70.509  1.00  0.00    -0.145 C  
HETATM   27  O   UNL     1      -8.173   3.273  67.331  1.00  0.00    -0.081 OA 
HETATM   28  C   UNL     1      -7.729  10.637  71.653  1.00  0.00     4.871 C  
HETATM   29  C   UNL     1      -8.052   2.257  68.389  1.00  0.00    -0.056 C  
HETATM   30  O   UNL     1     -10.199   1.858  69.482  1.00  0.00     0.531 OA 
HETATM   31  C   UNL     1      -8.331   9.031  66.169  1.00  0.00    -0.124 C  
HETATM   32  C   UNL     1      -9.138   7.647  65.837  1.00  0.00    -0.052 C  
HETATM   33  C   UNL     1      -9.371   1.468  68.370  1.00  0.00    -0.183 C  
HETATM   34  C   UNL     1      -6.402  10.133  72.053  1.00  0.00     0.967 C  
HETATM   35  C   UNL     1      -8.900  10.779  72.647  1.00  0.00    13.032 C  
HETATM   36  C   UNL     1     -10.079   1.983  67.146  1.00  0.00     1.481 C  
HETATM   37  O   UNL     1      -9.103   7.421  64.380  1.00  0.00     0.806 OA 
HETATM   38  C   UNL     1      -6.203   9.492  73.217  1.00  0.00     0.551 C  
HETATM   39  C   UNL     1     -10.047   6.326  64.153  1.00  0.00     4.085 C  
HETATM   40  C   UNL     1     -11.280   6.873  64.810  1.00  0.00     9.569 C  
HETATM   41  C   UNL     1      -9.354   4.980  64.633  1.00  0.00     0.087 C  
HETATM   42  C   UNL     1      -9.988   3.869  65.533  1.00  0.00    -0.122 C  
HETATM   43  C   UNL     1     -10.659   7.270  66.107  1.00  0.00     0.961 C  
HETATM   44  C   UNL     1     -11.400   6.913  67.175  1.00  0.00     0.022 C  
HETATM   45  C   UNL     1      -9.564   3.434  67.033  1.00  0.00    -0.079 C  
ENDROOT
BRANCH  16  46
HETATM   46  C   UNL     1      -5.810  15.492  70.630  1.00  0.00    -0.000 C  
BRANCH  46  47
HETATM   47  C   UNL     1      -5.223  16.901  70.569  1.00  0.00    -0.228 C  
HETATM   48  H   UNL     1      -4.950  18.390  71.817  1.00  0.00     0.000 HD 
HETATM   49  O   UNL     1      -5.316  17.514  71.856  1.00  0.00    -0.223 OA 
BRANCH  47  50
HETATM   50  C   UNL     1      -5.848  17.809  69.494  1.00  0.00    -0.238 C  
HETATM   51  N   UNL     1      -6.049  19.174  70.012  1.00  0.00    -0.242 NA 
HETATM   52  H1  UNL     1      -6.463  19.775  69.299  1.00  0.00     0.000 HD 
HETATM   53  H2  UNL     1      -5.184  19.568  70.381  1.00  0.00     0.000 HD 
ENDBRANCH  47  50
ENDBRANCH  46  47
ENDBRANCH  16  46
BRANCH  18  54
HETATM   54  O   UNL     1      -8.137  14.189  70.498  1.00  0.00     1.652 OA 
HETATM   55  C   UNL     1      -9.209  15.115  70.652  1.00  0.00     1.480 C  
ENDBRANCH  18  54
TORSDOF 4
ENDMDL
MODEL       54
REMARK 921   NORMALIZED FREE ENERGY PREDICTED BY IDOCK:   29.69 KCAL/MOL
REMARK 922        TOTAL FREE ENERGY PREDICTED BY IDOCK:   36.62 KCAL/MOL
REMARK 923 INTER-LIGAND FREE ENERGY PREDICTED BY IDOCK:   35.74 KCAL/MOL
REMARK 924 INTRA-LIGAND FREE ENERGY PREDICTED BY IDOCK:    0.88 KCAL/MOL
REMARK 927      BINDING AFFINITY PREDICTED BY RF-SCORE:    0.00 PKD
ROOT
HETATM    1  C   UNL     1      -9.473   5.101  72.709  1.00  0.00    -0.142 C  
HETATM    2  O   UNL     1      -8.817   6.360  72.793  1.00  0.00    -0.126 OA 
HETATM    3  C   UNL     1      -8.658   6.916  71.507  1.00  0.00    -0.122 C  
HETATM    4  C   UNL     1      -7.934   8.215  71.500  1.00  0.00    -0.135 C  
HETATM    5  C   UNL     1      -7.571   8.328  70.030  1.00  0.00    -0.072 C  
HETATM    6  C   UNL     1      -8.807   8.302  68.996  1.00  0.00    -0.143 C  
HETATM    7  C   UNL     1      -9.282   9.228  67.575  1.00  0.00    -0.140 C  
HETATM    8  C   UNL     1      -8.711  10.331  66.362  1.00  0.00    -0.135 C  
HETATM    9  O   UNL     1      -8.880   9.957  65.181  1.00  0.00    -0.155 OA 
HETATM   10  C   UNL     1      -8.311  11.895  66.486  1.00  0.00    -0.062 C  
HETATM   11  C   UNL     1      -6.915  12.747  66.589  1.00  0.00     0.920 C  
HETATM   12  C   UNL     1      -5.936  13.071  67.847  1.00  0.00    -0.130 C  
HETATM   13  O   UNL     1      -5.150  14.202  67.404  1.00  0.00    -0.322 OA 
HETATM   14  C   UNL     1      -6.259  13.455  69.337  1.00  0.00    -0.109 C  
HETATM   15  C   UNL     1      -6.774  12.422  70.373  1.00  0.00     0.980 C  
HETATM   16  C   UNL     1      -5.900  14.986  66.475  1.00  0.00     2.879 C  
HETATM   17  O   UNL     1     -10.035   8.067  69.721  1.00  0.00    -0.185 OA 
HETATM   18  C   UNL     1      -7.137  14.167  66.037  1.00  0.00     5.026 C  
HETATM   19  O   UNL     1      -6.522  11.081  69.902  1.00  0.00    -0.118 OA 
HETATM   20  C   UNL     1      -9.997   7.119  70.796  1.00  0.00    -0.189 C  
HETATM   21  O   UNL     1     -10.008   4.958  69.496  1.00  0.00    -0.200 OA 
HETATM   22  C   UNL     1      -7.355  10.664  68.787  1.00  0.00    -0.100 C  
HETATM   23  C   UNL     1     -10.642   5.732  70.540  1.00  0.00    -0.289 C  
HETATM   24  C   UNL     1      -6.555   9.358  67.770  1.00  0.00    -0.063 C  
HETATM   25  C   UNL     1     -10.795   5.108  71.950  1.00  0.00    -0.101 C  
HETATM   26  C   UNL     1      -8.881  11.091  69.194  1.00  0.00    -0.003 C  
HETATM   27  O   UNL     1      -8.175   4.146  70.698  1.00  0.00    -0.065 OA 
HETATM   28  C   UNL     1      -9.079  12.571  69.551  1.00  0.00     1.602 C  
HETATM   29  C   UNL     1      -8.761   3.925  72.029  1.00  0.00    -0.100 C  
HETATM   30  O   UNL     1     -11.194   3.746  71.906  1.00  0.00     0.850 OA 
HETATM   31  C   UNL     1      -6.933   8.147  66.576  1.00  0.00    -0.068 C  
HETATM   32  C   UNL     1      -7.623   6.673  66.748  1.00  0.00    -0.091 C  
HETATM   33  C   UNL     1      -9.967   2.997  71.811  1.00  0.00    -0.122 C  
HETATM   34  C   UNL     1      -8.237  12.660  70.758  1.00  0.00     7.386 C  
HETATM   35  C   UNL     1     -10.565  12.982  69.539  1.00  0.00     0.371 C  
HETATM   36  C   UNL     1      -9.854   2.597  70.365  1.00  0.00     0.112 C  
HETATM   37  O   UNL     1      -6.862   5.702  65.940  1.00  0.00    -0.054 OA 
HETATM   38  C   UNL     1      -8.764  12.817  71.984  1.00  0.00    19.599 C  
HETATM   39  C   UNL     1      -7.685   4.491  65.947  1.00  0.00    -0.094 C  
HETATM   40  C   UNL     1      -8.994   5.034  65.453  1.00  0.00    -0.152 C  
HETATM   41  C   UNL     1      -7.532   3.808  67.372  1.00  0.00    -0.067 C  
HETATM   42  C   UNL     1      -8.684   3.265  68.279  1.00  0.00    -0.137 C  
HETATM   43  C   UNL     1      -9.096   6.195  66.384  1.00  0.00    -0.158 C  
HETATM   44  C   UNL     1     -10.325   6.332  66.918  1.00  0.00    -0.306 C  
HETATM   45  C   UNL     1      -9.169   3.821  69.720  1.00  0.00    -0.143 C  
ENDROOT
BRANCH  16  46
HETATM   46  C   UNL     1      -6.282  16.353  67.067  1.00  0.00    -0.155 C  
BRANCH  46  47
HETATM   47  C   UNL     1      -6.690  17.455  66.090  1.00  0.00    -0.227 C  
HETATM   48  H   UNL     1      -6.390  17.868  64.196  1.00  0.00     0.000 HD 
HETATM   49  O   UNL     1      -6.136  17.182  64.803  1.00  0.00     1.682 OA 
BRANCH  47  50
HETATM   50  C   UNL     1      -6.324  18.880  66.544  1.00  0.00    -0.188 C  
HETATM   51  N   UNL     1      -5.658  19.620  65.458  1.00  0.00    -0.160 NA 
HETATM   52  H1  UNL     1      -5.415  20.565  65.758  1.00  0.00     0.000 HD 
HETATM   53  H2  UNL     1      -6.219  19.629  64.607  1.00  0.00     0.000 HD 
ENDBRANCH  47  50
ENDBRANCH  46  47
ENDBRANCH  16  46
BRANCH  18  54
HETATM   54  O   UNL     1      -8.345  14.734  66.567  1.00  0.00    -0.086 OA 
HETATM   55  C   UNL     1      -9.553  14.131  66.110  1.00  0.00    -0.254 C  
ENDBRANCH  18  54
TORSDOF 4
ENDMDL
MODEL       55
REMARK 921   NORMALIZED FREE ENERGY PREDICTED BY IDOCK:   29.90 KCAL/MOL
REMARK 922        TOTAL FREE ENERGY PREDICTED BY IDOCK:   36.87 KCAL/MOL
REMARK 923 INTER-LIGAND FREE ENERGY PREDICTED BY IDOCK:   27.36 KCAL/MOL
REMARK 924 INTRA-LIGAND FREE ENERGY PREDICTED BY IDOCK:    9.51 KCAL/MOL
REMARK 927      BINDING AFFINITY PREDICTED BY RF-SCORE:    0.00 PKD
ROOT
HETATM    1  C   UNL     1     -12.239  16.900  69.712  1.00  0.00     2.382 C  
HETATM    2  O   UNL     1     -12.507  15.795  68.858  1.00  0.00    -0.003 OA 
HETATM    3  C   UNL     1     -11.300  15.214  68.417  1.00  0.00    -0.315 C  
HETATM    4  C   UNL     1     -11.490  14.077  67.476  1.00  0.00    -0.369 C  
HETATM    5  C   UNL     1     -10.095  13.959  66.892  1.00  0.00    -0.260 C  
HETATM    6  C   UNL     1      -8.908  13.695  67.950  1.00  0.00    -0.188 C  
HETATM    7  C   UNL     1      -7.513  12.622  68.040  1.00  0.00    -0.120 C  
HETATM    8  C   UNL     1      -6.476  11.587  67.109  1.00  0.00    -0.123 C  
HETATM    9  O   UNL     1      -5.257  11.859  67.172  1.00  0.00    -0.092 OA 
HETATM   10  C   UNL     1      -6.774  10.136  66.455  1.00  0.00    -0.092 C  
HETATM   11  C   UNL     1      -7.125   9.572  64.956  1.00  0.00    -0.109 C  
HETATM   12  C   UNL     1      -8.523   9.507  64.126  1.00  0.00    -0.186 C  
HETATM   13  O   UNL     1      -8.276   8.525  63.093  1.00  0.00    -0.173 OA 
HETATM   14  C   UNL     1      -9.982   9.147  64.586  1.00  0.00     1.215 C  
HETATM   15  C   UNL     1     -10.858  10.115  65.423  1.00  0.00     0.600 C  
HETATM   16  C   UNL     1      -7.321   7.565  63.547  1.00  0.00    -0.090 C  
HETATM   17  O   UNL     1      -9.444  13.729  69.292  1.00  0.00     0.252 OA 
HETATM   18  C   UNL     1      -6.662   8.109  64.836  1.00  0.00    -0.055 C  
HETATM   19  O   UNL     1     -10.320  11.454  65.353  1.00  0.00    -0.258 OA 
HETATM   20  C   UNL     1     -10.438  14.722  69.581  1.00  0.00    -0.111 C  
HETATM   21  O   UNL     1      -8.983  16.771  69.797  1.00  0.00     0.395 OA 
HETATM   22  C   UNL     1      -9.077  11.645  66.079  1.00  0.00    -0.182 C  
HETATM   23  C   UNL     1      -9.992  15.945  70.424  1.00  0.00     0.428 C  
HETATM   24  C   UNL     1      -8.075  13.025  65.391  1.00  0.00     3.434 C  
HETATM   25  C   UNL     1     -11.316  16.602  70.889  1.00  0.00     0.138 C  
HETATM   26  C   UNL     1      -9.312  10.957  67.544  1.00  0.00    -0.164 C  
HETATM   27  O   UNL     1     -10.347  17.979  68.334  1.00  0.00    -0.373 OA 
HETATM   28  C   UNL     1      -9.754   9.487  67.520  1.00  0.00    -0.194 C  
HETATM   29  C   UNL     1     -11.569  18.153  69.135  1.00  0.00     3.202 C  
HETATM   30  O   UNL     1     -11.114  17.858  71.517  1.00  0.00     1.517 OA 
HETATM   31  C   UNL     1      -6.751  14.078  65.807  1.00  0.00     7.797 C  
HETATM   32  C   UNL     1      -6.714  15.400  66.771  1.00  0.00     0.791 C  
HETATM   33  C   UNL     1     -11.122  18.821  70.445  1.00  0.00     3.602 C  
HETATM   34  C   UNL     1     -11.065   9.624  66.858  1.00  0.00     0.223 C  
HETATM   35  C   UNL     1      -9.579   8.800  68.890  1.00  0.00    -0.158 C  
HETATM   36  C   UNL     1      -9.677  19.159  70.201  1.00  0.00     0.926 C  
HETATM   37  O   UNL     1      -5.940  16.455  66.090  1.00  0.00     0.167 OA 
HETATM   38  C   UNL     1     -12.220   9.433  67.518  1.00  0.00     5.366 C  
HETATM   39  C   UNL     1      -5.744  17.485  67.111  1.00  0.00    -0.136 C  
HETATM   40  C   UNL     1      -5.126  16.678  68.215  1.00  0.00    -0.108 C  
HETATM   41  C   UNL     1      -7.119  18.259  67.291  1.00  0.00    -0.210 C  
HETATM   42  C   UNL     1      -7.822  18.618  68.641  1.00  0.00    -0.349 C  
HETATM   43  C   UNL     1      -6.124  15.569  68.238  1.00  0.00    -0.121 C  
HETATM   44  C   UNL     1      -6.500  15.228  69.486  1.00  0.00    -0.152 C  
HETATM   45  C   UNL     1      -9.225  18.056  69.219  1.00  0.00     0.213 C  
ENDROOT
BRANCH  16  46
HETATM   46  C   UNL     1      -7.963   6.183  63.755  1.00  0.00    -0.101 C  
BRANCH  46  47
HETATM   47  C   UNL     1      -8.143   5.699  65.194  1.00  0.00    -0.127 C  
HETATM   48  H   UNL     1      -8.553   6.510  66.932  1.00  0.00     0.000 HD 
HETATM   49  O   UNL     1      -8.442   6.812  66.038  1.00  0.00    -0.131 OA 
BRANCH  47  50
HETATM   50  C   UNL     1      -6.952   4.901  65.754  1.00  0.00    -0.063 C  
HETATM   51  N   UNL     1      -7.344   3.512  66.050  1.00  0.00    -0.071 NA 
HETATM   52  H1  UNL     1      -6.555   2.983  66.422  1.00  0.00     0.000 HD 
HETATM   53  H2  UNL     1      -7.754   3.054  65.236  1.00  0.00     0.000 HD 
ENDBRANCH  47  50
ENDBRANCH  46  47
ENDBRANCH  16  46
BRANCH  18  54
HETATM   54  O   UNL     1      -7.072   7.351  65.985  1.00  0.00    -0.063 OA 
HETATM   55  C   UNL     1      -6.079   7.190  66.994  1.00  0.00    -0.041 C  
ENDBRANCH  18  54
TORSDOF 4
ENDMDL
MODEL       56
REMARK 921   NORMALIZED FREE ENERGY PREDICTED BY IDOCK:   31.31 KCAL/MOL
REMARK 922        TOTAL FREE ENERGY PREDICTED BY IDOCK:   38.62 KCAL/MOL
REMARK 923 INTER-LIGAND FREE ENERGY PREDICTED BY IDOCK:   32.97 KCAL/MOL
REMARK 924 INTRA-LIGAND FREE ENERGY PREDICTED BY IDOCK:    5.65 KCAL/MOL
REMARK 927      BINDING AFFINITY PREDICTED BY RF-SCORE:    0.00 PKD
ROOT
HETATM    1  C   UNL     1     -11.302   3.521  68.181  1.00  0.00     8.243 C  
HETATM    2  O   UNL     1     -11.860   4.818  68.024  1.00  0.00     4.830 OA 
HETATM    3  C   UNL     1     -11.064   5.777  68.686  1.00  0.00     0.013 C  
HETATM    4  C   UNL     1     -11.606   7.160  68.613  1.00  0.00     0.596 C  
HETATM    5  C   UNL     1     -10.804   7.835  69.711  1.00  0.00    -0.211 C  
HETATM    6  C   UNL     1      -9.203   7.789  69.542  1.00  0.00    -0.149 C  
HETATM    7  C   UNL     1      -7.882   8.942  69.708  1.00  0.00    -0.090 C  
HETATM    8  C   UNL     1      -7.444  10.490  70.362  1.00  0.00     0.510 C  
HETATM    9  O   UNL     1      -6.463  10.481  71.139  1.00  0.00    -0.324 OA 
HETATM   10  C   UNL     1      -7.864  11.978  69.882  1.00  0.00     1.688 C  
HETATM   11  C   UNL     1      -8.936  13.114  70.378  1.00  0.00     5.288 C  
HETATM   12  C   UNL     1     -10.532  13.285  70.112  1.00  0.00     1.713 C  
HETATM   13  O   UNL     1     -10.797  14.673  70.422  1.00  0.00    -0.076 OA 
HETATM   14  C   UNL     1     -11.393  13.064  68.816  1.00  0.00    -0.332 C  
HETATM   15  C   UNL     1     -11.745  11.653  68.278  1.00  0.00    -0.304 C  
HETATM   16  C   UNL     1      -9.635  15.464  70.163  1.00  0.00     0.191 C  
HETATM   17  O   UNL     1      -8.864   6.993  68.383  1.00  0.00    -0.125 OA 
HETATM   18  C   UNL     1      -8.434  14.510  69.964  1.00  0.00     0.908 C  
HETATM   19  O   UNL     1     -11.534  10.663  69.308  1.00  0.00    -0.252 OA 
HETATM   20  C   UNL     1      -9.631   5.804  68.151  1.00  0.00    -0.116 C  
HETATM   21  O   UNL     1      -8.613   4.263  69.868  1.00  0.00    -0.067 OA 
HETATM   22  C   UNL     1     -10.140  10.404  69.622  1.00  0.00    -0.190 C  
HETATM   23  C   UNL     1      -8.952   4.448  68.474  1.00  0.00    -0.115 C  
HETATM   24  C   UNL     1      -9.918   9.778  71.336  1.00  0.00     0.499 C  
HETATM   25  C   UNL     1      -9.838   3.390  67.771  1.00  0.00     0.192 C  
HETATM   26  C   UNL     1      -9.390  10.224  68.180  1.00  0.00    -0.144 C  
HETATM   27  O   UNL     1     -10.720   3.671  70.687  1.00  0.00     1.148 OA 
HETATM   28  C   UNL     1      -9.561  11.390  67.197  1.00  0.00    -0.193 C  
HETATM   29  C   UNL     1     -11.265   2.879  69.573  1.00  0.00     7.476 C  
HETATM   30  O   UNL     1      -9.484   2.060  68.116  1.00  0.00    -0.198 OA 
HETATM   31  C   UNL     1      -8.754   8.957  72.340  1.00  0.00     0.170 C  
HETATM   32  C   UNL     1      -8.348   7.373  72.407  1.00  0.00    -0.105 C  
HETATM   33  C   UNL     1     -10.240   1.765  69.306  1.00  0.00     0.961 C  
HETATM   34  C   UNL     1     -11.017  11.326  66.971  1.00  0.00    -0.352 C  
HETATM   35  C   UNL     1      -8.536  11.340  66.045  1.00  0.00    -0.130 C  
HETATM   36  C   UNL     1      -9.263   1.897  70.443  1.00  0.00    -0.170 C  
HETATM   37  O   UNL     1      -8.260   6.971  73.824  1.00  0.00    -0.119 OA 
HETATM   38  C   UNL     1     -11.540  10.926  65.800  1.00  0.00     0.847 C  
HETATM   39  C   UNL     1      -7.653   5.640  73.793  1.00  0.00    -0.097 C  
HETATM   40  C   UNL     1      -6.408   5.913  72.999  1.00  0.00    -0.062 C  
HETATM   41  C   UNL     1      -8.761   4.611  73.307  1.00  0.00    -0.101 C  
HETATM   42  C   UNL     1      -8.596   3.502  72.218  1.00  0.00    -0.095 C  
HETATM   43  C   UNL     1      -7.048   6.636  71.862  1.00  0.00    -0.080 C  
HETATM   44  C   UNL     1      -6.585   6.238  70.661  1.00  0.00    -0.045 C  
HETATM   45  C   UNL     1      -9.316   3.405  70.771  1.00  0.00    -0.155 C  
ENDROOT
BRANCH  16  46
HETATM   46  C   UNL     1      -9.844  16.400  68.962  1.00  0.00    -0.266 C  
BRANCH  46  47
HETATM   47  C   UNL     1     -11.203  17.086  68.830  1.00  0.00     0.097 C  
HETATM   48  H   UNL     1     -12.281  18.334  69.893  1.00  0.00     0.000 HD 
HETATM   49  O   UNL     1     -11.436  17.908  69.975  1.00  0.00     2.226 OA 
BRANCH  47  50
HETATM   50  C   UNL     1     -12.386  16.127  68.606  1.00  0.00     0.743 C  
HETATM   51  N   UNL     1     -11.908  14.752  68.371  1.00  0.00    -0.460 NA 
HETATM   52  H1  UNL     1     -12.692  14.116  68.222  1.00  0.00     0.000 HD 
HETATM   53  H2  UNL     1     -11.299  14.430  69.123  1.00  0.00     0.000 HD 
ENDBRANCH  47  50
ENDBRANCH  46  47
ENDBRANCH  16  46
BRANCH  18  54
HETATM   54  O   UNL     1      -7.998  14.507  68.596  1.00  0.00    -0.135 OA 
HETATM   55  C   UNL     1      -6.586  14.470  68.407  1.00  0.00    -0.103 C  
ENDBRANCH  18  54
TORSDOF 4
ENDMDL
MODEL       57
REMARK 921   NORMALIZED FREE ENERGY PREDICTED BY IDOCK:   31.91 KCAL/MOL
REMARK 922        TOTAL FREE ENERGY PREDICTED BY IDOCK:   39.35 KCAL/MOL
REMARK 923 INTER-LIGAND FREE ENERGY PREDICTED BY IDOCK:   29.88 KCAL/MOL
REMARK 924 INTRA-LIGAND FREE ENERGY PREDICTED BY IDOCK:    9.47 KCAL/MOL
REMARK 927      BINDING AFFINITY PREDICTED BY RF-SCORE:    0.00 PKD
ROOT
HETATM    1  C   UNL     1      -6.747  19.052  68.975  1.00  0.00    -0.299 C  
HETATM    2  O   UNL     1      -6.253  17.721  68.915  1.00  0.00    -0.191 OA 
HETATM    3  C   UNL     1      -7.303  16.800  69.116  1.00  0.00    -0.213 C  
HETATM    4  C   UNL     1      -6.862  15.379  69.118  1.00  0.00    -0.144 C  
HETATM    5  C   UNL     1      -8.071  14.710  69.746  1.00  0.00     0.283 C  
HETATM    6  C   UNL     1      -9.471  14.923  68.978  1.00  0.00    -0.196 C  
HETATM    7  C   UNL     1     -10.820  13.893  68.503  1.00  0.00    -0.274 C  
HETATM    8  C   UNL     1     -11.575  12.354  68.776  1.00  0.00    -0.326 C  
HETATM    9  O   UNL     1     -12.779  12.404  69.110  1.00  0.00     0.482 OA 
HETATM   10  C   UNL     1     -11.092  10.870  68.346  1.00  0.00    -0.320 C  
HETATM   11  C   UNL     1     -10.374   9.603  69.099  1.00  0.00    -0.219 C  
HETATM   12  C   UNL     1      -8.815   9.298  69.454  1.00  0.00    -0.149 C  
HETATM   13  O   UNL     1      -8.780   7.872  69.699  1.00  0.00    -0.133 OA 
HETATM   14  C   UNL     1      -7.502   9.524  68.620  1.00  0.00    -0.079 C  
HETATM   15  C   UNL     1      -6.880  10.929  68.406  1.00  0.00    -0.068 C  
HETATM   16  C   UNL     1      -9.793   7.217  68.933  1.00  0.00    -0.158 C  
HETATM   17  O   UNL     1      -9.278  15.826  67.866  1.00  0.00    -0.190 OA 
HETATM   18  C   UNL     1     -10.758   8.295  68.384  1.00  0.00    -0.019 C  
HETATM   19  O   UNL     1      -7.418  11.860  69.370  1.00  0.00     0.065 OA 
HETATM   20  C   UNL     1      -8.409  16.949  68.070  1.00  0.00    -0.204 C  
HETATM   21  O   UNL     1      -9.923  18.457  69.408  1.00  0.00    -0.160 OA 
HETATM   22  C   UNL     1      -8.804  12.230  69.147  1.00  0.00     0.640 C  
HETATM   23  C   UNL     1      -9.076  18.338  68.243  1.00  0.00    -0.305 C  
HETATM   24  C   UNL     1      -9.643  12.754  70.697  1.00  0.00     6.813 C  
HETATM   25  C   UNL     1      -7.921  19.352  68.047  1.00  0.00    -0.304 C  
HETATM   26  C   UNL     1      -8.914  12.582  67.553  1.00  0.00    -0.185 C  
HETATM   27  O   UNL     1      -8.275  18.785  71.033  1.00  0.00     4.059 OA 
HETATM   28  C   UNL     1      -8.443  11.476  66.599  1.00  0.00    -0.172 C  
HETATM   29  C   UNL     1      -7.289  19.596  70.302  1.00  0.00     0.540 C  
HETATM   30  O   UNL     1      -8.300  20.683  68.363  1.00  0.00     0.271 OA 
HETATM   31  C   UNL     1     -11.054  13.612  71.251  1.00  0.00     2.347 C  
HETATM   32  C   UNL     1     -11.356  15.219  71.317  1.00  0.00    -0.365 C  
HETATM   33  C   UNL     1      -8.056  20.820  69.776  1.00  0.00     2.231 C  
HETATM   34  C   UNL     1      -7.015  11.415  66.960  1.00  0.00    -0.135 C  
HETATM   35  C   UNL     1      -8.928  11.705  65.153  1.00  0.00     0.177 C  
HETATM   36  C   UNL     1      -9.407  20.704  70.427  1.00  0.00     1.799 C  
HETATM   37  O   UNL     1     -11.969  15.528  72.623  1.00  0.00    -0.384 OA 
HETATM   38  C   UNL     1      -6.050  11.842  66.129  1.00  0.00     0.803 C  
HETATM   39  C   UNL     1     -12.432  16.910  72.496  1.00  0.00     1.103 C  
HETATM   40  C   UNL     1     -13.278  16.814  71.260  1.00  0.00     4.539 C  
HETATM   41  C   UNL     1     -11.160  17.858  72.583  1.00  0.00     2.523 C  
HETATM   42  C   UNL     1     -10.815  19.052  71.634  1.00  0.00     3.872 C  
HETATM   43  C   UNL     1     -12.289  16.114  70.391  1.00  0.00     0.146 C  
HETATM   44  C   UNL     1     -12.217  16.638  69.151  1.00  0.00     1.227 C  
HETATM   45  C   UNL     1      -9.580  19.178  70.595  1.00  0.00     2.056 C  
ENDROOT
BRANCH  16  46
HETATM   46  C   UNL     1      -9.187   6.351  67.817  1.00  0.00    -0.112 C  
BRANCH  46  47
HETATM   47  C   UNL     1      -7.930   6.874  67.121  1.00  0.00    -0.113 C  
HETATM   48  H   UNL     1      -6.554   6.148  65.925  1.00  0.00     0.000 HD 
HETATM   49  O   UNL     1      -7.336   5.823  66.358  1.00  0.00    -0.076 OA 
BRANCH  47  50
HETATM   50  C   UNL     1      -6.893   7.507  68.065  1.00  0.00    -0.067 C  
HETATM   51  N   UNL     1      -5.543   7.450  67.476  1.00  0.00    -0.032 NA 
HETATM   52  H1  UNL     1      -4.855   7.871  68.101  1.00  0.00     0.000 HD 
HETATM   53  H2  UNL     1      -5.518   7.875  66.549  1.00  0.00     0.000 HD 
ENDBRANCH  47  50
ENDBRANCH  46  47
ENDBRANCH  16  46
BRANCH  18  54
HETATM   54  O   UNL     1     -10.620   8.435  66.962  1.00  0.00    -0.314 OA 
HETATM   55  C   UNL     1      -9.401   9.028  66.524  1.00  0.00    -0.191 C  
ENDBRANCH  18  54
TORSDOF 4
ENDMDL
MODEL       58
REMARK 921   NORMALIZED FREE ENERGY PREDICTED BY IDOCK:   34.34 KCAL/MOL
REMARK 922        TOTAL FREE ENERGY PREDICTED BY IDOCK:   42.35 KCAL/MOL
REMARK 923 INTER-LIGAND FREE ENERGY PREDICTED BY IDOCK:   37.40 KCAL/MOL
REMARK 924 INTRA-LIGAND FREE ENERGY PREDICTED BY IDOCK:    4.96 KCAL/MOL
REMARK 927      BINDING AFFINITY PREDICTED BY RF-SCORE:    0.00 PKD
ROOT
HETATM    1  C   UNL     1      -6.519  17.618  66.420  1.00  0.00    -0.237 C  
HETATM    2  O   UNL     1      -5.814  16.428  66.746  1.00  0.00    -0.336 OA 
HETATM    3  C   UNL     1      -6.591  15.617  67.598  1.00  0.00    -0.172 C  
HETATM    4  C   UNL     1      -5.905  14.369  68.030  1.00  0.00    -0.149 C  
HETATM    5  C   UNL     1      -6.779  13.958  69.201  1.00  0.00    -0.113 C  
HETATM    6  C   UNL     1      -8.338  13.723  68.868  1.00  0.00     0.111 C  
HETATM    7  C   UNL     1      -9.544  12.502  69.266  1.00  0.00     0.767 C  
HETATM    8  C   UNL     1      -9.907  11.185  70.337  1.00  0.00     2.179 C  
HETATM    9  O   UNL     1     -10.982  11.293  70.967  1.00  0.00     1.149 OA 
HETATM   10  C   UNL     1      -9.274   9.697  70.406  1.00  0.00    -0.258 C  
HETATM   11  C   UNL     1      -8.170   8.931  71.346  1.00  0.00    -0.175 C  
HETATM   12  C   UNL     1      -6.544   8.914  71.309  1.00  0.00    -0.080 C  
HETATM   13  O   UNL     1      -6.184   7.740  72.074  1.00  0.00    -0.039 OA 
HETATM   14  C   UNL     1      -5.539   8.846  70.103  1.00  0.00    -0.027 C  
HETATM   15  C   UNL     1      -5.261  10.058  69.176  1.00  0.00    -0.035 C  
HETATM   16  C   UNL     1      -7.211   6.753  71.970  1.00  0.00    -0.080 C  
HETATM   17  O   UNL     1      -8.592  14.068  67.488  1.00  0.00    -0.169 OA 
HETATM   18  C   UNL     1      -8.465   7.420  71.356  1.00  0.00    -0.113 C  
HETATM   19  O   UNL     1      -5.714  11.276  69.806  1.00  0.00    -0.059 OA 
HETATM   20  C   UNL     1      -7.926  15.224  66.962  1.00  0.00    -0.208 C  
HETATM   21  O   UNL     1      -9.325  17.058  67.980  1.00  0.00    -0.235 OA 
HETATM   22  C   UNL     1      -7.157  11.419  69.880  1.00  0.00     0.238 C  
HETATM   23  C   UNL     1      -8.779  16.503  66.762  1.00  0.00    -0.226 C  
HETATM   24  C   UNL     1      -7.679  12.504  71.270  1.00  0.00     8.456 C  
HETATM   25  C   UNL     1      -7.916  17.408  65.846  1.00  0.00    -0.025 C  
HETATM   26  C   UNL     1      -7.714  11.039  68.390  1.00  0.00    -0.119 C  
HETATM   27  O   UNL     1      -7.424  18.165  68.770  1.00  0.00    -0.283 OA 
HETATM   28  C   UNL     1      -7.289   9.664  67.857  1.00  0.00    -0.082 C  
HETATM   29  C   UNL     1      -6.814  18.645  67.520  1.00  0.00    -0.204 C  
HETATM   30  O   UNL     1      -8.450  18.716  65.707  1.00  0.00    -0.446 OA 
HETATM   31  C   UNL     1      -9.048  13.420  71.834  1.00  0.00    14.545 C  
HETATM   32  C   UNL     1      -9.621  14.874  71.346  1.00  0.00     3.015 C  
HETATM   33  C   UNL     1      -7.901  19.466  66.808  1.00  0.00    -0.268 C  
HETATM   34  C   UNL     1      -5.830   9.861  67.768  1.00  0.00    -0.039 C  
HETATM   35  C   UNL     1      -8.144   9.212  66.655  1.00  0.00    -0.111 C  
HETATM   36  C   UNL     1      -9.008  19.553  67.823  1.00  0.00    -0.375 C  
HETATM   37  O   UNL     1      -9.945  15.675  72.542  1.00  0.00     3.225 OA 
HETATM   38  C   UNL     1      -5.193   9.951  66.589  1.00  0.00    -0.040 C  
HETATM   39  C   UNL     1     -10.676  16.833  72.023  1.00  0.00     2.489 C  
HETATM   40  C   UNL     1     -11.763  16.156  71.241  1.00  0.00    -0.480 C  
HETATM   41  C   UNL     1      -9.622  17.808  71.345  1.00  0.00     6.798 C  
HETATM   42  C   UNL     1      -9.747  18.494  69.945  1.00  0.00     0.877 C  
HETATM   43  C   UNL     1     -10.900  15.217  70.467  1.00  0.00    -0.230 C  
HETATM   44  C   UNL     1     -11.231  15.156  69.162  1.00  0.00    -0.288 C  
HETATM   45  C   UNL     1      -8.846  18.242  68.624  1.00  0.00    -0.275 C  
ENDROOT
BRANCH  16  46
HETATM   46  C   UNL     1      -6.742   5.532  71.162  1.00  0.00    -0.052 C  
BRANCH  46  47
HETATM   47  C   UNL     1      -7.357   4.177  71.511  1.00  0.00    -0.055 C  
HETATM   48  H   UNL     1      -7.102   2.807  72.892  1.00  0.00     0.000 HD 
HETATM   49  O   UNL     1      -6.720   3.650  72.676  1.00  0.00    -0.030 OA 
BRANCH  47  50
HETATM   50  C   UNL     1      -7.326   3.147  70.367  1.00  0.00    -0.040 C  
HETATM   51  N   UNL     1      -8.692   2.764  69.969  1.00  0.00    -0.063 NA 
HETATM   52  H1  UNL     1      -8.671   2.081  69.211  1.00  0.00     0.000 HD 
HETATM   53  H2  UNL     1      -9.257   3.578  69.727  1.00  0.00     0.000 HD 
ENDBRANCH  47  50
ENDBRANCH  46  47
ENDBRANCH  16  46
BRANCH  18  54
HETATM   54  O   UNL     1      -8.704   6.940  70.024  1.00  0.00    -0.140 OA 
HETATM   55  C   UNL     1      -7.987   5.764  69.662  1.00  0.00    -0.100 C  
ENDBRANCH  18  54
TORSDOF 4
ENDMDL
MODEL       59
REMARK 921   NORMALIZED FREE ENERGY PREDICTED BY IDOCK:   34.58 KCAL/MOL
REMARK 922        TOTAL FREE ENERGY PREDICTED BY IDOCK:   42.65 KCAL/MOL
REMARK 923 INTER-LIGAND FREE ENERGY PREDICTED BY IDOCK:   39.17 KCAL/MOL
REMARK 924 INTRA-LIGAND FREE ENERGY PREDICTED BY IDOCK:    3.48 KCAL/MOL
REMARK 927      BINDING AFFINITY PREDICTED BY RF-SCORE:    0.00 PKD
ROOT
HETATM    1  C   UNL     1      -5.825  18.364  67.220  1.00  0.00    -0.145 C  
HETATM    2  O   UNL     1      -5.794  17.047  67.754  1.00  0.00    -0.120 OA 
HETATM    3  C   UNL     1      -6.869  16.288  67.247  1.00  0.00    -0.195 C  
HETATM    4  C   UNL     1      -6.940  14.907  67.795  1.00  0.00    -0.193 C  
HETATM    5  C   UNL     1      -8.356  14.522  67.408  1.00  0.00    -0.217 C  
HETATM    6  C   UNL     1      -8.695  14.581  65.834  1.00  0.00     0.822 C  
HETATM    7  C   UNL     1      -9.523  13.537  64.681  1.00  0.00     0.898 C  
HETATM    8  C   UNL     1     -10.611  12.192  64.535  1.00  0.00    -0.310 C  
HETATM    9  O   UNL     1     -11.634  12.407  63.848  1.00  0.00    -0.365 OA 
HETATM   10  C   UNL     1     -10.367  10.621  64.844  1.00  0.00    -0.347 C  
HETATM   11  C   UNL     1     -10.740   9.591  66.063  1.00  0.00     0.418 C  
HETATM   12  C   UNL     1     -10.029   9.314  67.500  1.00  0.00    -0.202 C  
HETATM   13  O   UNL     1     -10.542   8.023  67.906  1.00  0.00    -0.209 OA 
HETATM   14  C   UNL     1      -8.513   9.210  67.900  1.00  0.00    -0.117 C  
HETATM   15  C   UNL     1      -7.590  10.452  68.007  1.00  0.00    -0.091 C  
HETATM   16  C   UNL     1     -10.846   7.232  66.756  1.00  0.00    -0.056 C  
HETATM   17  O   UNL     1      -7.556  15.106  65.115  1.00  0.00     5.565 OA 
HETATM   18  C   UNL     1     -10.829   8.155  65.514  1.00  0.00     4.329 C  
HETATM   19  O   UNL     1      -8.386  11.654  68.090  1.00  0.00    -0.139 OA 
HETATM   20  C   UNL     1      -6.834  16.187  65.721  1.00  0.00     2.944 C  
HETATM   21  O   UNL     1      -8.395  18.107  65.232  1.00  0.00     0.457 OA 
HETATM   22  C   UNL     1      -9.058  12.022  66.855  1.00  0.00    -0.196 C  
HETATM   23  C   UNL     1      -7.044  17.602  65.122  1.00  0.00     1.542 C  
HETATM   24  C   UNL     1     -10.569  13.024  67.158  1.00  0.00    -0.251 C  
HETATM   25  C   UNL     1      -5.879  18.446  65.698  1.00  0.00    -0.216 C  
HETATM   26  C   UNL     1      -7.924  11.897  65.683  1.00  0.00     0.955 C  
HETATM   27  O   UNL     1      -8.353  18.800  67.464  1.00  0.00    -0.262 OA 
HETATM   28  C   UNL     1      -7.224  10.535  65.585  1.00  0.00    -0.124 C  
HETATM   29  C   UNL     1      -6.977  19.303  67.597  1.00  0.00    -0.217 C  
HETATM   30  O   UNL     1      -6.013  19.830  65.416  1.00  0.00    -0.178 OA 
HETATM   31  C   UNL     1     -11.678  14.087  66.337  1.00  0.00    -0.407 C  
HETATM   32  C   UNL     1     -11.514  15.658  65.907  1.00  0.00     0.160 C  
HETATM   33  C   UNL     1      -6.806  20.361  66.495  1.00  0.00    -0.252 C  
HETATM   34  C   UNL     1      -6.542  10.500  66.891  1.00  0.00    -0.081 C  
HETATM   35  C   UNL     1      -6.474  10.358  64.248  1.00  0.00    -0.024 C  
HETATM   36  C   UNL     1      -8.191  20.519  65.931  1.00  0.00     0.204 C  
HETATM   37  O   UNL     1     -12.759  16.370  66.253  1.00  0.00     3.260 OA 
HETATM   38  C   UNL     1      -5.207  10.609  67.002  1.00  0.00    -0.043 C  
HETATM   39  C   UNL     1     -12.625  17.679  65.612  1.00  0.00     7.938 C  
HETATM   40  C   UNL     1     -12.347  17.275  64.194  1.00  0.00     5.354 C  
HETATM   41  C   UNL     1     -11.598  18.536  66.468  1.00  0.00     1.732 C  
HETATM   42  C   UNL     1     -10.397  19.377  65.923  1.00  0.00    -0.536 C  
HETATM   43  C   UNL     1     -11.257  16.295  64.473  1.00  0.00    -0.218 C  
HETATM   44  C   UNL     1     -10.207  16.427  63.639  1.00  0.00     6.359 C  
HETATM   45  C   UNL     1      -8.814  19.123  66.148  1.00  0.00    -0.212 C  
ENDROOT
BRANCH  16  46
HETATM   46  C   UNL     1      -9.882   6.044  66.614  1.00  0.00    -0.202 C  
BRANCH  46  47
HETATM   47  C   UNL     1     -10.279   4.922  65.656  1.00  0.00    -0.127 C  
HETATM   48  H   UNL     1     -10.976   3.094  65.808  1.00  0.00     0.000 HD 
HETATM   49  O   UNL     1     -10.729   3.792  66.404  1.00  0.00     0.978 OA 
BRANCH  47  50
HETATM   50  C   UNL     1      -9.179   4.508  64.663  1.00  0.00    -0.145 C  
HETATM   51  N   UNL     1      -9.150   3.044  64.492  1.00  0.00    -0.123 NA 
HETATM   52  H1  UNL     1      -8.421   2.770  63.833  1.00  0.00     0.000 HD 
HETATM   53  H2  UNL     1     -10.062   2.679  64.217  1.00  0.00     0.000 HD 
ENDBRANCH  47  50
ENDBRANCH  46  47
ENDBRANCH  16  46
BRANCH  18  54
HETATM   54  O   UNL     1      -9.704   7.865  64.670  1.00  0.00     1.819 OA 
HETATM   55  C   UNL     1      -8.550   7.368  65.343  1.00  0.00    -0.041 C  
ENDBRANCH  18  54
TORSDOF 4
ENDMDL
MODEL       60
REMARK 921   NORMALIZED FREE ENERGY PREDICTED BY IDOCK:   35.37 KCAL/MOL
REMARK 922        TOTAL FREE ENERGY PREDICTED BY IDOCK:   43.62 KCAL/MOL
REMARK 923 INTER-LIGAND FREE ENERGY PREDICTED BY IDOCK:   31.10 KCAL/MOL
REMARK 924 INTRA-LIGAND FREE ENERGY PREDICTED BY IDOCK:   12.52 KCAL/MOL
REMARK 927      BINDING AFFINITY PREDICTED BY RF-SCORE:    0.00 PKD
ROOT
HETATM    1  C   UNL     1      -6.644   4.802  65.504  1.00  0.00    -0.041 C  
HETATM    2  O   UNL     1      -6.996   6.151  65.229  1.00  0.00    -0.053 OA 
HETATM    3  C   UNL     1      -7.499   6.772  66.391  1.00  0.00    -0.074 C  
HETATM    4  C   UNL     1      -7.939   8.178  66.178  1.00  0.00    -0.102 C  
HETATM    5  C   UNL     1      -8.771   8.405  67.426  1.00  0.00    -0.136 C  
HETATM    6  C   UNL     1      -8.005   8.202  68.829  1.00  0.00    -0.115 C  
HETATM    7  C   UNL     1      -7.907   9.082  70.353  1.00  0.00    -0.121 C  
HETATM    8  C   UNL     1      -8.667  10.311  71.315  1.00  0.00     3.013 C  
HETATM    9  O   UNL     1      -8.993   9.956  72.469  1.00  0.00     2.734 OA 
HETATM   10  C   UNL     1      -8.715  11.915  71.102  1.00  0.00    10.683 C  
HETATM   11  C   UNL     1      -9.813  12.993  70.536  1.00  0.00     5.020 C  
HETATM   12  C   UNL     1     -10.212  13.436  69.022  1.00  0.00     0.067 C  
HETATM   13  O   UNL     1     -10.893  14.702  69.191  1.00  0.00    -0.245 OA 
HETATM   14  C   UNL     1      -9.322  13.704  67.755  1.00  0.00    -0.218 C  
HETATM   15  C   UNL     1      -8.664  12.560  66.939  1.00  0.00    -0.182 C  
HETATM   16  C   UNL     1     -10.393  15.377  70.346  1.00  0.00    -0.095 C  
HETATM   17  O   UNL     1      -6.661   7.731  68.580  1.00  0.00    -0.055 OA 
HETATM   18  C   UNL     1      -9.554  14.372  71.170  1.00  0.00     3.822 C  
HETATM   19  O   UNL     1      -9.297  11.301  67.253  1.00  0.00    -0.164 OA 
HETATM   20  C   UNL     1      -6.484   6.765  67.534  1.00  0.00    -0.046 C  
HETATM   21  O   UNL     1      -7.311   4.684  68.693  1.00  0.00    -0.059 OA 
HETATM   22  C   UNL     1      -8.998  10.787  68.578  1.00  0.00    -0.160 C  
HETATM   23  C   UNL     1      -6.224   5.298  67.963  1.00  0.00    -0.034 C  
HETATM   24  C   UNL     1     -10.322   9.677  69.209  1.00  0.00    -0.223 C  
HETATM   25  C   UNL     1      -5.695   4.605  66.681  1.00  0.00    -0.022 C  
HETATM   26  C   UNL     1      -7.378  10.927  68.749  1.00  0.00    -0.104 C  
HETATM   27  O   UNL     1      -8.714   4.160  66.899  1.00  0.00    -0.110 OA 
HETATM   28  C   UNL     1      -6.810  12.336  68.527  1.00  0.00    -0.081 C  
HETATM   29  C   UNL     1      -7.745   3.793  65.855  1.00  0.00    -0.089 C  
HETATM   30  O   UNL     1      -5.584   3.198  66.825  1.00  0.00    -0.020 OA 
HETATM   31  C   UNL     1     -10.608   8.463  70.425  1.00  0.00    -0.236 C  
HETATM   32  C   UNL     1     -10.172   6.887  70.467  1.00  0.00    -0.192 C  
HETATM   33  C   UNL     1      -6.876   2.678  66.459  1.00  0.00    -0.044 C  
HETATM   34  C   UNL     1      -7.142  12.526  67.103  1.00  0.00    -0.058 C  
HETATM   35  C   UNL     1      -5.376  12.482  69.075  1.00  0.00    -0.067 C  
HETATM   36  C   UNL     1      -7.560   2.356  67.760  1.00  0.00    -0.056 C  
HETATM   37  O   UNL     1     -11.327   6.092  70.927  1.00  0.00    -0.313 OA 
HETATM   38  C   UNL     1      -6.198  12.545  66.147  1.00  0.00     2.389 C  
HETATM   39  C   UNL     1     -10.781   4.757  71.177  1.00  0.00     0.159 C  
HETATM   40  C   UNL     1      -9.657   5.082  72.117  1.00  0.00    -0.191 C  
HETATM   41  C   UNL     1     -10.539   4.060  69.771  1.00  0.00     1.529 C  
HETATM   42  C   UNL     1      -9.255   3.293  69.315  1.00  0.00    -0.218 C  
HETATM   43  C   UNL     1      -9.031   6.173  71.315  1.00  0.00    -0.140 C  
HETATM   44  C   UNL     1      -7.688   6.075  71.254  1.00  0.00    -0.110 C  
HETATM   45  C   UNL     1      -8.203   3.703  68.155  1.00  0.00    -0.083 C  
ENDROOT
BRANCH  16  46
HETATM   46  C   UNL     1      -9.594  16.634  69.966  1.00  0.00     0.879 C  
BRANCH  46  47
HETATM   47  C   UNL     1      -8.277  16.433  69.217  1.00  0.00    -0.109 C  
HETATM   48  H   UNL     1      -6.374  16.766  69.560  1.00  0.00     0.000 HD 
HETATM   49  O   UNL     1      -7.193  16.891  70.026  1.00  0.00     0.466 OA 
BRANCH  47  50
HETATM   50  C   UNL     1      -8.226  17.089  67.826  1.00  0.00    -0.192 C  
HETATM   51  N   UNL     1      -6.971  16.749  67.132  1.00  0.00    -0.171 NA 
HETATM   52  H1  UNL     1      -6.937  17.185  66.209  1.00  0.00     0.000 HD 
HETATM   53  H2  UNL     1      -6.831  15.741  67.078  1.00  0.00     0.000 HD 
ENDBRANCH  47  50
ENDBRANCH  46  47
ENDBRANCH  16  46
BRANCH  18  54
HETATM   54  O   UNL     1      -8.157  14.700  71.117  1.00  0.00     2.189 OA 
HETATM   55  C   UNL     1      -7.861  16.046  70.755  1.00  0.00     2.872 C  
ENDBRANCH  18  54
TORSDOF 4
ENDMDL
MODEL       61
REMARK 921   NORMALIZED FREE ENERGY PREDICTED BY IDOCK:   39.44 KCAL/MOL
REMARK 922        TOTAL FREE ENERGY PREDICTED BY IDOCK:   48.65 KCAL/MOL
REMARK 923 INTER-LIGAND FREE ENERGY PREDICTED BY IDOCK:   41.03 KCAL/MOL
REMARK 924 INTRA-LIGAND FREE ENERGY PREDICTED BY IDOCK:    7.62 KCAL/MOL
REMARK 927      BINDING AFFINITY PREDICTED BY RF-SCORE:    0.00 PKD
ROOT
HETATM    1  C   UNL     1     -10.745  18.125  67.261  1.00  0.00    -0.315 C  
HETATM    2  O   UNL     1     -10.599  17.041  66.354  1.00  0.00    -0.271 OA 
HETATM    3  C   UNL     1     -10.077  15.913  67.021  1.00  0.00    -0.268 C  
HETATM    4  C   UNL     1      -9.845  14.743  66.130  1.00  0.00    -0.335 C  
HETATM    5  C   UNL     1      -8.939  13.898  67.006  1.00  0.00    -0.251 C  
HETATM    6  C   UNL     1      -9.541  13.474  68.440  1.00  0.00    -0.196 C  
HETATM    7  C   UNL     1      -9.613  11.993  69.391  1.00  0.00     0.833 C  
HETATM    8  C   UNL     1      -8.935  10.405  69.569  1.00  0.00    -0.106 C  
HETATM    9  O   UNL     1      -8.460  10.153  70.698  1.00  0.00     0.090 OA 
HETATM   10  C   UNL     1      -9.114   9.089  68.643  1.00  0.00    -0.137 C  
HETATM   11  C   UNL     1      -8.222   8.326  67.499  1.00  0.00    -0.122 C  
HETATM   12  C   UNL     1      -8.024   8.616  65.911  1.00  0.00    -0.105 C  
HETATM   13  O   UNL     1      -7.502   7.373  65.386  1.00  0.00    -0.081 OA 
HETATM   14  C   UNL     1      -9.054   9.039  64.801  1.00  0.00    -0.088 C  
HETATM   15  C   UNL     1      -9.629  10.475  64.699  1.00  0.00    -0.292 C  
HETATM   16  C   UNL     1      -7.977   6.273  66.164  1.00  0.00    -0.112 C  
HETATM   17  O   UNL     1     -10.828  14.104  68.626  1.00  0.00    -0.240 OA 
HETATM   18  C   UNL     1      -8.600   6.833  67.465  1.00  0.00    -0.120 C  
HETATM   19  O   UNL     1      -8.812  11.391  65.459  1.00  0.00    -0.148 OA 
HETATM   20  C   UNL     1     -10.974  15.457  68.172  1.00  0.00    -0.297 C  
HETATM   21  O   UNL     1      -9.781  16.687  70.022  1.00  0.00     0.323 OA 
HETATM   22  C   UNL     1      -8.919  11.245  66.901  1.00  0.00    -0.162 C  
HETATM   23  C   UNL     1     -11.000  16.567  69.255  1.00  0.00    -0.302 C  
HETATM   24  C   UNL     1      -7.410  11.829  67.773  1.00  0.00    -0.106 C  
HETATM   25  C   UNL     1     -11.549  17.816  68.519  1.00  0.00     1.568 C  
HETATM   26  C   UNL     1     -10.522  11.159  67.216  1.00  0.00    -0.263 C  
HETATM   27  O   UNL     1      -8.490  17.886  68.486  1.00  0.00    -0.296 OA 
HETATM   28  C   UNL     1     -11.285  10.064  66.458  1.00  0.00     0.523 C  
HETATM   29  C   UNL     1      -9.495  18.769  67.874  1.00  0.00    -0.304 C  
HETATM   30  O   UNL     1     -11.463  18.996  69.303  1.00  0.00     2.781 OA 
HETATM   31  C   UNL     1      -6.859  12.308  69.355  1.00  0.00     0.007 C  
HETATM   32  C   UNL     1      -7.081  13.708  70.173  1.00  0.00     0.693 C  
HETATM   33  C   UNL     1     -10.153  19.531  69.036  1.00  0.00    -0.364 C  
HETATM   34  C   UNL     1     -11.113  10.540  65.073  1.00  0.00     0.623 C  
HETATM   35  C   UNL     1     -12.670   9.782  67.076  1.00  0.00     9.953 C  
HETATM   36  C   UNL     1      -9.317  19.155  70.229  1.00  0.00     1.421 C  
HETATM   37  O   UNL     1      -5.795  14.108  70.775  1.00  0.00    -0.171 OA 
HETATM   38  C   UNL     1     -12.134  11.039  64.359  1.00  0.00     1.394 C  
HETATM   39  C   UNL     1      -6.137  15.206  71.681  1.00  0.00     0.696 C  
HETATM   40  C   UNL     1      -7.203  14.561  72.518  1.00  0.00     3.859 C  
HETATM   41  C   UNL     1      -6.414  16.496  70.798  1.00  0.00     1.295 C  
HETATM   42  C   UNL     1      -7.624  17.478  70.929  1.00  0.00     5.017 C  
HETATM   43  C   UNL     1      -8.037  14.022  71.404  1.00  0.00     5.830 C  
HETATM   44  C   UNL     1      -9.355  14.234  71.586  1.00  0.00     6.354 C  
HETATM   45  C   UNL     1      -8.821  17.737  69.871  1.00  0.00     1.689 C  
ENDROOT
BRANCH  16  46
HETATM   46  C   UNL     1      -8.965   5.403  65.370  1.00  0.00    -0.130 C  
BRANCH  46  47
HETATM   47  C   UNL     1      -9.432   5.925  64.012  1.00  0.00     1.461 C  
HETATM   48  H   UNL     1      -9.803   5.167  62.241  1.00  0.00     0.000 HD 
HETATM   49  O   UNL     1      -9.513   4.841  63.086  1.00  0.00    -0.028 OA 
BRANCH  47  50
HETATM   50  C   UNL     1      -8.574   7.065  63.435  1.00  0.00     0.512 C  
HETATM   51  N   UNL     1      -7.709   6.572  62.349  1.00  0.00    -0.089 NA 
HETATM   52  H1  UNL     1      -7.140   7.327  61.966  1.00  0.00     0.000 HD 
HETATM   53  H2  UNL     1      -8.247   6.100  61.622  1.00  0.00     0.000 HD 
ENDBRANCH  47  50
ENDBRANCH  46  47
ENDBRANCH  16  46
BRANCH  18  54
HETATM   54  O   UNL     1     -10.027   6.670  67.466  1.00  0.00    -0.123 OA 
HETATM   55  C   UNL     1     -10.751   7.643  66.718  1.00  0.00    -0.072 C  
ENDBRANCH  18  54
TORSDOF 4
ENDMDL
MODEL       62
REMARK 921   NORMALIZED FREE ENERGY PREDICTED BY IDOCK:   40.43 KCAL/MOL
REMARK 922        TOTAL FREE ENERGY PREDICTED BY IDOCK:   49.87 KCAL/MOL
REMARK 923 INTER-LIGAND FREE ENERGY PREDICTED BY IDOCK:   45.03 KCAL/MOL
REMARK 924 INTRA-LIGAND FREE ENERGY PREDICTED BY IDOCK:    4.84 KCAL/MOL
REMARK 927      BINDING AFFINITY PREDICTED BY RF-SCORE:    0.00 PKD
ROOT
HETATM    1  C   UNL     1     -12.018  16.191  73.008  1.00  0.00    -0.489 C  
HETATM    2  O   UNL     1     -12.236  14.866  72.544  1.00  0.00    -0.336 OA 
HETATM    3  C   UNL     1     -11.306  14.542  71.534  1.00  0.00     0.346 C  
HETATM    4  C   UNL     1     -11.496  13.184  70.955  1.00  0.00     1.294 C  
HETATM    5  C   UNL     1     -10.670  13.300  69.687  1.00  0.00     0.338 C  
HETATM    6  C   UNL     1      -9.116  13.674  69.891  1.00  0.00     2.199 C  
HETATM    7  C   UNL     1      -7.583  13.096  69.243  1.00  0.00     0.367 C  
HETATM    8  C   UNL     1      -6.859  12.172  67.963  1.00  0.00    -0.081 C  
HETATM    9  O   UNL     1      -5.991  12.777  67.297  1.00  0.00    -0.263 OA 
HETATM   10  C   UNL     1      -6.867  10.574  67.703  1.00  0.00    -0.074 C  
HETATM   11  C   UNL     1      -7.683   9.547  66.721  1.00  0.00    -0.098 C  
HETATM   12  C   UNL     1      -9.159   8.874  66.848  1.00  0.00    -0.133 C  
HETATM   13  O   UNL     1      -9.118   7.754  65.933  1.00  0.00    -0.156 OA 
HETATM   14  C   UNL     1      -9.915   8.265  68.085  1.00  0.00    -0.224 C  
HETATM   15  C   UNL     1     -10.535   9.145  69.200  1.00  0.00    -0.217 C  
HETATM   16  C   UNL     1      -7.783   7.257  65.825  1.00  0.00    -0.099 C  
HETATM   17  O   UNL     1      -8.862  13.926  71.291  1.00  0.00     5.449 OA 
HETATM   18  C   UNL     1      -6.827   8.294  66.462  1.00  0.00    -0.067 C  
HETATM   19  O   UNL     1     -10.668  10.508  68.740  1.00  0.00    -0.190 OA 
HETATM   20  C   UNL     1      -9.861  14.646  72.025  1.00  0.00     4.513 C  
HETATM   21  O   UNL     1      -9.412  16.994  71.222  1.00  0.00     4.764 OA 
HETATM   22  C   UNL     1      -9.412  11.226  68.607  1.00  0.00    -0.175 C  
HETATM   23  C   UNL     1      -9.557  16.127  72.371  1.00  0.00     7.923 C  
HETATM   24  C   UNL     1      -9.516  12.585  67.372  1.00  0.00    -0.184 C  
HETATM   25  C   UNL     1     -10.594  16.494  73.462  1.00  0.00     5.402 C  
HETATM   26  C   UNL     1      -8.587  10.929  69.987  1.00  0.00     1.053 C  
HETATM   27  O   UNL     1     -11.670  17.329  70.722  1.00  0.00     1.317 OA 
HETATM   28  C   UNL     1      -8.379   9.447  70.325  1.00  0.00    -0.217 C  
HETATM   29  C   UNL     1     -12.273  17.372  72.064  1.00  0.00     3.420 C  
HETATM   30  O   UNL     1     -10.600  17.879  73.769  1.00  0.00     2.692 OA 
HETATM   31  C   UNL     1      -8.685  14.034  66.878  1.00  0.00    -0.185 C  
HETATM   32  C   UNL     1      -8.673  15.527  67.550  1.00  0.00    -0.172 C  
HETATM   33  C   UNL     1     -11.519  18.470  72.830  1.00  0.00     3.766 C  
HETATM   34  C   UNL     1      -9.779   9.029  70.527  1.00  0.00    -0.262 C  
HETATM   35  C   UNL     1      -7.285   9.238  71.393  1.00  0.00     0.047 C  
HETATM   36  C   UNL     1     -10.656  19.113  71.778  1.00  0.00     3.514 C  
HETATM   37  O   UNL     1      -8.824  16.526  66.475  1.00  0.00    -0.231 OA 
HETATM   38  C   UNL     1     -10.262   8.716  71.740  1.00  0.00    -0.378 C  
HETATM   39  C   UNL     1      -8.549  17.809  67.122  1.00  0.00    -0.233 C  
HETATM   40  C   UNL     1      -7.202  17.539  67.728  1.00  0.00    -0.184 C  
HETATM   41  C   UNL     1      -9.814  18.191  68.002  1.00  0.00    -0.331 C  
HETATM   42  C   UNL     1      -9.809  18.699  69.480  1.00  0.00     0.180 C  
HETATM   43  C   UNL     1      -7.537  16.248  68.397  1.00  0.00    -0.166 C  
HETATM   44  C   UNL     1      -7.064  16.172  69.657  1.00  0.00    -0.071 C  
HETATM   45  C   UNL     1     -10.384  17.953  70.797  1.00  0.00     2.324 C  
ENDROOT
BRANCH  16  46
HETATM   46  C   UNL     1      -7.644   5.865  66.462  1.00  0.00    -0.095 C  
BRANCH  46  47
HETATM   47  C   UNL     1      -8.912   5.208  67.006  1.00  0.00    -0.112 C  
HETATM   48  H   UNL     1     -10.836   5.287  66.627  1.00  0.00     0.000 HD 
HETATM   49  O   UNL     1     -10.047   5.695  66.288  1.00  0.00    -0.165 OA 
BRANCH  47  50
HETATM   50  C   UNL     1      -9.120   5.374  68.522  1.00  0.00    -0.108 C  
HETATM   51  N   UNL     1      -8.689   6.712  68.966  1.00  0.00    -0.129 NA 
HETATM   52  H1  UNL     1      -8.827   6.822  69.971  1.00  0.00     0.000 HD 
HETATM   53  H2  UNL     1      -9.152   7.452  68.439  1.00  0.00     0.000 HD 
ENDBRANCH  47  50
ENDBRANCH  46  47
ENDBRANCH  16  46
BRANCH  18  54
HETATM   54  O   UNL     1      -6.270   7.798  67.689  1.00  0.00    -0.047 OA 
HETATM   55  C   UNL     1      -5.135   6.949  67.543  1.00  0.00    -0.008 C  
ENDBRANCH  18  54
TORSDOF 4
ENDMDL
MODEL       63
REMARK 921   NORMALIZED FREE ENERGY PREDICTED BY IDOCK:   40.63 KCAL/MOL
REMARK 922        TOTAL FREE ENERGY PREDICTED BY IDOCK:   50.12 KCAL/MOL
REMARK 923 INTER-LIGAND FREE ENERGY PREDICTED BY IDOCK:   49.20 KCAL/MOL
REMARK 924 INTRA-LIGAND FREE ENERGY PREDICTED BY IDOCK:    0.92 KCAL/MOL
REMARK 927      BINDING AFFINITY PREDICTED BY RF-SCORE:    0.00 PKD
ROOT
HETATM    1  C   UNL     1      -5.681  10.375  65.029  1.00  0.00    -0.139 C  
HETATM    2  O   UNL     1      -5.515  11.686  65.552  1.00  0.00     0.026 OA 
HETATM    3  C   UNL     1      -6.729  12.152  66.097  1.00  0.00     1.315 C  
HETATM    4  C   UNL     1      -6.656  13.542  66.625  1.00  0.00     2.070 C  
HETATM    5  C   UNL     1      -8.131  13.878  66.739  1.00  0.00     0.280 C  
HETATM    6  C   UNL     1      -9.004  12.904  67.681  1.00  0.00    -0.192 C  
HETATM    7  C   UNL     1     -10.227  13.119  68.930  1.00  0.00    -0.021 C  
HETATM    8  C   UNL     1     -11.347  14.254  69.617  1.00  0.00    -0.243 C  
HETATM    9  O   UNL     1     -12.538  13.873  69.649  1.00  0.00    -0.238 OA 
HETATM   10  C   UNL     1     -11.072  15.566  70.525  1.00  0.00    -0.369 C  
HETATM   11  C   UNL     1     -11.030  17.184  70.271  1.00  0.00     0.624 C  
HETATM   12  C   UNL     1      -9.867  18.155  69.677  1.00  0.00     0.446 C  
HETATM   13  O   UNL     1     -10.253  19.479  70.114  1.00  0.00     0.249 OA 
HETATM   14  C   UNL     1      -8.312  18.168  69.909  1.00  0.00     1.580 C  
HETATM   15  C   UNL     1      -7.364  17.120  69.272  1.00  0.00    -0.098 C  
HETATM   16  C   UNL     1     -10.976  19.399  71.343  1.00  0.00     4.668 C  
HETATM   17  O   UNL     1      -8.174  11.818  68.151  1.00  0.00    -0.138 OA 
HETATM   18  C   UNL     1     -11.363  17.920  71.582  1.00  0.00     3.056 C  
HETATM   19  O   UNL     1      -8.030  16.448  68.181  1.00  0.00    -0.153 OA 
HETATM   20  C   UNL     1      -7.242  11.249  67.221  1.00  0.00    -0.114 C  
HETATM   21  O   UNL     1      -8.797   9.840  65.823  1.00  0.00    -0.141 OA 
HETATM   22  C   UNL     1      -9.081  15.531  68.588  1.00  0.00    -0.202 C  
HETATM   23  C   UNL     1      -7.594   9.862  66.624  1.00  0.00    -0.103 C  
HETATM   24  C   UNL     1     -10.346  15.296  67.274  1.00  0.00    -0.264 C  
HETATM   25  C   UNL     1      -6.268   9.357  66.001  1.00  0.00    -0.067 C  
HETATM   26  C   UNL     1      -8.442  14.639  69.801  1.00  0.00     0.394 C  
HETATM   27  O   UNL     1      -7.940  10.737  63.841  1.00  0.00     0.022 OA 
HETATM   28  C   UNL     1      -7.877  15.441  70.982  1.00  0.00     2.546 C  
HETATM   29  C   UNL     1      -6.587  10.159  63.810  1.00  0.00    -0.119 C  
HETATM   30  O   UNL     1      -6.439   8.177  65.231  1.00  0.00    -0.051 OA 
HETATM   31  C   UNL     1     -11.631  14.217  66.807  1.00  0.00    -0.407 C  
HETATM   32  C   UNL     1     -11.569  12.744  66.098  1.00  0.00    -0.379 C  
HETATM   33  C   UNL     1      -6.776   8.637  63.907  1.00  0.00    -0.083 C  
HETATM   34  C   UNL     1      -6.777  16.155  70.306  1.00  0.00     0.469 C  
HETATM   35  C   UNL     1      -7.657  14.565  72.232  1.00  0.00     4.828 C  
HETATM   36  C   UNL     1      -8.264   8.452  63.789  1.00  0.00    -0.106 C  
HETATM   37  O   UNL     1     -12.581  12.696  65.026  1.00  0.00    -0.545 OA 
HETATM   38  C   UNL     1      -5.487  15.864  70.541  1.00  0.00    -0.142 C  
HETATM   39  C   UNL     1     -12.631  11.288  64.628  1.00  0.00     1.723 C  
HETATM   40  C   UNL     1     -12.890  10.628  65.951  1.00  0.00     7.988 C  
HETATM   41  C   UNL     1     -11.334  10.981  63.765  1.00  0.00     0.327 C  
HETATM   42  C   UNL     1     -10.373   9.758  63.922  1.00  0.00     1.707 C  
HETATM   43  C   UNL     1     -11.812  11.304  66.729  1.00  0.00     0.498 C  
HETATM   44  C   UNL     1     -11.121  10.455  67.515  1.00  0.00    -0.336 C  
HETATM   45  C   UNL     1      -8.825   9.757  64.395  1.00  0.00    -0.227 C  
ENDROOT
BRANCH  16  46
HETATM   46  C   UNL     1     -10.172  19.989  72.513  1.00  0.00     3.722 C  
BRANCH  46  47
HETATM   47  C   UNL     1      -8.703  19.583  72.636  1.00  0.00     4.934 C  
HETATM   48  H   UNL     1      -7.461  19.141  74.089  1.00  0.00     0.000 HD 
HETATM   49  O   UNL     1      -8.375  19.393  74.013  1.00  0.00     3.802 OA 
BRANCH  47  50
HETATM   50  C   UNL     1      -7.712  20.556  71.974  1.00  0.00     2.230 C  
HETATM   51  N   UNL     1      -6.379  20.447  72.591  1.00  0.00     0.139 NA 
HETATM   52  H1  UNL     1      -5.721  21.093  72.152  1.00  0.00     0.000 HD 
HETATM   53  H2  UNL     1      -6.032  19.488  72.575  1.00  0.00     0.000 HD 
ENDBRANCH  47  50
ENDBRANCH  46  47
ENDBRANCH  16  46
BRANCH  18  54
HETATM   54  O   UNL     1     -10.623  17.363  72.679  1.00  0.00     3.147 OA 
HETATM   55  C   UNL     1     -11.306  17.347  73.929  1.00  0.00     1.283 C  
ENDBRANCH  18  54
TORSDOF 4
ENDMDL
MODEL       64
REMARK 921   NORMALIZED FREE ENERGY PREDICTED BY IDOCK:   40.86 KCAL/MOL
REMARK 922        TOTAL FREE ENERGY PREDICTED BY IDOCK:   50.40 KCAL/MOL
REMARK 923 INTER-LIGAND FREE ENERGY PREDICTED BY IDOCK:   41.25 KCAL/MOL
REMARK 924 INTRA-LIGAND FREE ENERGY PREDICTED BY IDOCK:    9.14 KCAL/MOL
REMARK 927      BINDING AFFINITY PREDICTED BY RF-SCORE:    0.00 PKD
ROOT
HETATM    1  C   UNL     1     -11.921   7.625  72.701  1.00  0.00    -0.159 C  
HETATM    2  O   UNL     1     -11.836   9.012  72.406  1.00  0.00    -0.302 OA 
HETATM    3  C   UNL     1     -10.837   9.247  71.438  1.00  0.00    -0.364 C  
HETATM    4  C   UNL     1     -10.648  10.685  71.107  1.00  0.00     1.607 C  
HETATM    5  C   UNL     1      -9.303  10.638  70.406  1.00  0.00     1.329 C  
HETATM    6  C   UNL     1      -9.219   9.688  69.107  1.00  0.00    -0.168 C  
HETATM    7  C   UNL     1      -8.560   9.831  67.479  1.00  0.00    -0.125 C  
HETATM    8  C   UNL     1      -7.479  10.749  66.478  1.00  0.00    -0.139 C  
HETATM    9  O   UNL     1      -6.583  10.083  65.914  1.00  0.00    -0.085 OA 
HETATM   10  C   UNL     1      -7.634  12.246  65.883  1.00  0.00     1.527 C  
HETATM   11  C   UNL     1      -7.047  13.729  66.263  1.00  0.00     3.361 C  
HETATM   12  C   UNL     1      -7.515  14.824  67.371  1.00  0.00    -0.194 C  
HETATM   13  O   UNL     1      -6.915  16.062  66.921  1.00  0.00    -0.201 OA 
HETATM   14  C   UNL     1      -8.946  15.294  67.821  1.00  0.00    -0.177 C  
HETATM   15  C   UNL     1      -9.869  14.423  68.712  1.00  0.00    -0.214 C  
HETATM   16  C   UNL     1      -6.778  16.053  65.499  1.00  0.00     5.024 C  
HETATM   17  O   UNL     1     -10.469   8.981  68.946  1.00  0.00    -0.216 OA 
HETATM   18  C   UNL     1      -7.014  14.608  64.999  1.00  0.00    13.956 C  
HETATM   19  O   UNL     1      -9.098  13.386  69.358  1.00  0.00     0.668 OA 
HETATM   20  C   UNL     1     -11.111   8.496  70.134  1.00  0.00    -0.188 C  
HETATM   21  O   UNL     1      -9.693   6.468  70.620  1.00  0.00    -0.178 OA 
HETATM   22  C   UNL     1      -8.639  12.331  68.471  1.00  0.00    -0.068 C  
HETATM   23  C   UNL     1     -11.032   6.972  70.409  1.00  0.00    -0.268 C  
HETATM   24  C   UNL     1      -7.123  11.504  69.101  1.00  0.00    -0.105 C  
HETATM   25  C   UNL     1     -12.110   6.715  71.491  1.00  0.00    -0.355 C  
HETATM   26  C   UNL     1      -9.942  11.913  67.575  1.00  0.00    -0.197 C  
HETATM   27  O   UNL     1      -9.397   7.124  72.844  1.00  0.00    -0.140 OA 
HETATM   28  C   UNL     1     -10.617  13.064  66.815  1.00  0.00    -0.269 C  
HETATM   29  C   UNL     1     -10.746   6.928  73.398  1.00  0.00    -0.324 C  
HETATM   30  O   UNL     1     -12.056   5.398  72.018  1.00  0.00     0.253 OA 
HETATM   31  C   UNL     1      -6.184  10.052  68.889  1.00  0.00    -0.044 C  
HETATM   32  C   UNL     1      -6.450   8.532  69.434  1.00  0.00    -0.037 C  
HETATM   33  C   UNL     1     -11.114   5.465  73.106  1.00  0.00    -0.308 C  
HETATM   34  C   UNL     1     -11.082  13.884  67.949  1.00  0.00    -0.278 C  
HETATM   35  C   UNL     1     -11.565  12.557  65.708  1.00  0.00    -0.439 C  
HETATM   36  C   UNL     1      -9.839   4.875  72.567  1.00  0.00    -0.202 C  
HETATM   37  O   UNL     1      -5.183   7.997  69.969  1.00  0.00    -0.023 OA 
HETATM   38  C   UNL     1     -12.384  13.998  68.259  1.00  0.00    -0.012 C  
HETATM   39  C   UNL     1      -5.448   6.575  70.191  1.00  0.00    -0.014 C  
HETATM   40  C   UNL     1      -5.938   6.161  68.834  1.00  0.00    -0.024 C  
HETATM   41  C   UNL     1      -6.346   6.446  71.494  1.00  0.00    -0.046 C  
HETATM   42  C   UNL     1      -7.637   5.579  71.660  1.00  0.00    -0.098 C  
HETATM   43  C   UNL     1      -6.946   7.244  68.644  1.00  0.00    -0.082 C  
HETATM   44  C   UNL     1      -8.118   6.790  68.159  1.00  0.00    -0.115 C  
HETATM   45  C   UNL     1      -9.158   6.084  71.890  1.00  0.00    -0.141 C  
ENDROOT
BRANCH  16  46
HETATM   46  C   UNL     1      -7.725  17.064  64.833  1.00  0.00     4.661 C  
BRANCH  46  47
HETATM   47  C   UNL     1      -8.130  18.293  65.646  1.00  0.00     0.444 C  
HETATM   48  H   UNL     1      -7.708  20.210  65.643  1.00  0.00     0.000 HD 
HETATM   49  O   UNL     1      -7.456  19.445  65.137  1.00  0.00    -0.303 OA 
BRANCH  47  50
HETATM   50  C   UNL     1      -7.900  18.162  67.163  1.00  0.00    -0.218 C  
HETATM   51  N   UNL     1      -6.778  17.250  67.446  1.00  0.00    -0.145 NA 
HETATM   52  H1  UNL     1      -6.626  17.162  68.451  1.00  0.00     0.000 HD 
HETATM   53  H2  UNL     1      -5.928  17.535  66.960  1.00  0.00     0.000 HD 
ENDBRANCH  47  50
ENDBRANCH  46  47
ENDBRANCH  16  46
BRANCH  18  54
HETATM   54  O   UNL     1      -8.251  14.507  64.278  1.00  0.00     7.813 OA 
HETATM   55  C   UNL     1      -8.471  13.263  63.618  1.00  0.00     7.576 C  
ENDBRANCH  18  54
TORSDOF 4
ENDMDL
MODEL       65
REMARK 921   NORMALIZED FREE ENERGY PREDICTED BY IDOCK:   44.08 KCAL/MOL
REMARK 922        TOTAL FREE ENERGY PREDICTED BY IDOCK:   54.37 KCAL/MOL
REMARK 923 INTER-LIGAND FREE ENERGY PREDICTED BY IDOCK:   53.85 KCAL/MOL
REMARK 924 INTRA-LIGAND FREE ENERGY PREDICTED BY IDOCK:    0.52 KCAL/MOL
REMARK 927      BINDING AFFINITY PREDICTED BY RF-SCORE:    0.00 PKD
ROOT
HETATM    1  C   UNL     1      -6.590  16.431  65.699  1.00  0.00     2.931 C  
HETATM    2  O   UNL     1      -6.025  15.136  65.543  1.00  0.00     6.949 OA 
HETATM    3  C   UNL     1      -6.529  14.260  66.527  1.00  0.00     3.113 C  
HETATM    4  C   UNL     1      -5.950  12.891  66.466  1.00  0.00     1.890 C  
HETATM    5  C   UNL     1      -6.348  12.356  67.829  1.00  0.00    -0.109 C  
HETATM    6  C   UNL     1      -7.928  12.345  68.146  1.00  0.00    -0.153 C  
HETATM    7  C   UNL     1      -9.068  11.197  68.844  1.00  0.00    -0.098 C  
HETATM    8  C   UNL     1      -9.197   9.745  69.786  1.00  0.00    -0.226 C  
HETATM    9  O   UNL     1      -9.903   9.839  70.814  1.00  0.00    -0.218 OA 
HETATM   10  C   UNL     1      -8.848   8.214  69.389  1.00  0.00    -0.143 C  
HETATM   11  C   UNL     1      -7.610   7.179  69.676  1.00  0.00    -0.104 C  
HETATM   12  C   UNL     1      -6.157   7.008  68.965  1.00  0.00    -0.027 C  
HETATM   13  O   UNL     1      -5.728   5.680  69.350  1.00  0.00    -0.011 OA 
HETATM   14  C   UNL     1      -5.733   7.068  67.452  1.00  0.00    -0.024 C  
HETATM   15  C   UNL     1      -5.642   8.399  66.663  1.00  0.00    -0.032 C  
HETATM   16  C   UNL     1      -6.863   4.837  69.553  1.00  0.00    -0.049 C  
HETATM   17  O   UNL     1      -8.642  12.968  67.054  1.00  0.00    -0.200 OA 
HETATM   18  C   UNL     1      -8.126   5.730  69.609  1.00  0.00    -0.104 C  
HETATM   19  O   UNL     1      -5.599   9.515  67.578  1.00  0.00    -0.037 OA 
HETATM   20  C   UNL     1      -8.052  14.130  66.456  1.00  0.00     0.714 C  
HETATM   21  O   UNL     1      -8.609  15.869  68.196  1.00  0.00    -0.166 OA 
HETATM   22  C   UNL     1      -6.851   9.785  68.263  1.00  0.00    -0.068 C  
HETATM   23  C   UNL     1      -8.687  15.503  66.799  1.00  0.00    -0.267 C  
HETATM   24  C   UNL     1      -6.594  10.635  69.873  1.00  0.00    -0.137 C  
HETATM   25  C   UNL     1      -8.114  16.473  65.736  1.00  0.00     0.568 C  
HETATM   26  C   UNL     1      -8.004   9.751  67.103  1.00  0.00    -0.102 C  
HETATM   27  O   UNL     1      -6.394  16.612  68.262  1.00  0.00    -0.130 OA 
HETATM   28  C   UNL     1      -8.060   8.466  66.266  1.00  0.00    -0.105 C  
HETATM   29  C   UNL     1      -6.253  17.256  66.947  1.00  0.00    -0.185 C  
HETATM   30  O   UNL     1      -8.431  17.830  66.005  1.00  0.00    -0.496 OA 
HETATM   31  C   UNL     1      -7.457  11.560  71.071  1.00  0.00     4.624 C  
HETATM   32  C   UNL     1      -7.921  13.129  71.061  1.00  0.00     7.145 C  
HETATM   33  C   UNL     1      -7.377  18.301  66.866  1.00  0.00    -0.208 C  
HETATM   34  C   UNL     1      -6.743   8.530  65.606  1.00  0.00    -0.060 C  
HETATM   35  C   UNL     1      -9.381   8.337  65.480  1.00  0.00     0.086 C  
HETATM   36  C   UNL     1      -7.964  18.304  68.251  1.00  0.00    -0.312 C  
HETATM   37  O   UNL     1      -7.610  13.719  72.377  1.00  0.00     4.960 OA 
HETATM   38  C   UNL     1      -6.615   8.777  64.292  1.00  0.00    -0.071 C  
HETATM   39  C   UNL     1      -8.279  15.020  72.366  1.00  0.00     7.035 C  
HETATM   40  C   UNL     1      -9.684  14.615  72.025  1.00  0.00     4.771 C  
HETATM   41  C   UNL     1      -7.429  15.996  71.446  1.00  0.00     4.582 C  
HETATM   42  C   UNL     1      -7.976  16.943  70.328  1.00  0.00     2.500 C  
HETATM   43  C   UNL     1      -9.366  13.758  70.846  1.00  0.00     5.826 C  
HETATM   44  C   UNL     1     -10.187  13.978  69.801  1.00  0.00     0.570 C  
HETATM   45  C   UNL     1      -7.724  16.857  68.732  1.00  0.00    -0.247 C  
ENDROOT
BRANCH  16  46
HETATM   46  C   UNL     1      -6.963   3.751  68.470  1.00  0.00    -0.050 C  
BRANCH  46  47
HETATM   47  C   UNL     1      -5.692   2.970  68.136  1.00  0.00    -0.019 C  
HETATM   48  H   UNL     1      -4.990   1.978  66.595  1.00  0.00     0.000 HD 
HETATM   49  O   UNL     1      -5.780   2.464  66.803  1.00  0.00    -0.020 OA 
BRANCH  47  50
HETATM   50  C   UNL     1      -5.360   1.836  69.122  1.00  0.00    -0.012 C  
HETATM   51  N   UNL     1      -5.161   2.365  70.483  1.00  0.00    -0.004 NA 
HETATM   52  H1  UNL     1      -4.941   1.614  71.137  1.00  0.00     0.000 HD 
HETATM   53  H2  UNL     1      -5.962   2.913  70.795  1.00  0.00     0.000 HD 
ENDBRANCH  47  50
ENDBRANCH  46  47
ENDBRANCH  16  46
BRANCH  18  54
HETATM   54  O   UNL     1      -8.946   5.537  68.446  1.00  0.00    -0.111 OA 
HETATM   55  C   UNL     1      -9.780   4.382  68.474  1.00  0.00    -0.113 C  
ENDBRANCH  18  54
TORSDOF 4
ENDMDL
MODEL       66
REMARK 921   NORMALIZED FREE ENERGY PREDICTED BY IDOCK:   48.18 KCAL/MOL
REMARK 922        TOTAL FREE ENERGY PREDICTED BY IDOCK:   59.43 KCAL/MOL
REMARK 923 INTER-LIGAND FREE ENERGY PREDICTED BY IDOCK:   58.15 KCAL/MOL
REMARK 924 INTRA-LIGAND FREE ENERGY PREDICTED BY IDOCK:    1.28 KCAL/MOL
REMARK 927      BINDING AFFINITY PREDICTED BY RF-SCORE:    0.00 PKD
ROOT
HETATM    1  C   UNL     1     -12.396   5.153  63.535  1.00  0.00     5.531 C  
HETATM    2  O   UNL     1     -12.625   6.464  64.035  1.00  0.00     9.805 OA 
HETATM    3  C   UNL     1     -11.553   6.867  64.858  1.00  0.00    10.422 C  
HETATM    4  C   UNL     1     -11.736   8.213  65.465  1.00  0.00     9.395 C  
HETATM    5  C   UNL     1     -10.686   8.173  66.560  1.00  0.00     0.345 C  
HETATM    6  C   UNL     1      -9.172   7.914  66.075  1.00  0.00    -0.104 C  
HETATM    7  C   UNL     1      -7.594   8.612  66.433  1.00  0.00    -0.091 C  
HETATM    8  C   UNL     1      -6.720   9.601  67.561  1.00  0.00    -0.070 C  
HETATM    9  O   UNL     1      -5.701   9.070  68.055  1.00  0.00    -0.038 OA 
HETATM   10  C   UNL     1      -6.800  11.197  67.822  1.00  0.00    -0.073 C  
HETATM   11  C   UNL     1      -7.499  12.171  68.940  1.00  0.00    -0.027 C  
HETATM   12  C   UNL     1      -9.019  12.731  69.087  1.00  0.00     0.737 C  
HETATM   13  O   UNL     1      -8.896  13.861  69.982  1.00  0.00     1.520 OA 
HETATM   14  C   UNL     1     -10.031  13.268  68.011  1.00  0.00    -0.233 C  
HETATM   15  C   UNL     1     -10.778  12.331  67.026  1.00  0.00    -0.231 C  
HETATM   16  C   UNL     1      -7.605  14.457  69.845  1.00  0.00     0.342 C  
HETATM   17  O   UNL     1      -9.159   7.666  64.651  1.00  0.00     0.560 OA 
HETATM   18  C   UNL     1      -6.706  13.488  69.041  1.00  0.00    -0.112 C  
HETATM   19  O   UNL     1     -10.721  10.968  67.499  1.00  0.00    -0.211 OA 
HETATM   20  C   UNL     1     -10.219   6.865  64.110  1.00  0.00     6.462 C  
HETATM   21  O   UNL     1      -9.454   4.567  64.811  1.00  0.00    -0.159 OA 
HETATM   22  C   UNL     1      -9.411  10.347  67.398  1.00  0.00    -0.149 C  
HETATM   23  C   UNL     1      -9.872   5.407  63.711  1.00  0.00     1.386 C  
HETATM   24  C   UNL     1      -9.185   8.998  68.627  1.00  0.00    -0.136 C  
HETATM   25  C   UNL     1     -11.060   4.952  62.827  1.00  0.00     1.406 C  
HETATM   26  C   UNL     1      -8.877  10.689  65.891  1.00  0.00    -0.187 C  
HETATM   27  O   UNL     1     -11.552   4.070  65.715  1.00  0.00     1.742 OA 
HETATM   28  C   UNL     1      -8.846  12.179  65.524  1.00  0.00     0.441 C  
HETATM   29  C   UNL     1     -12.384   3.967  64.507  1.00  0.00     5.113 C  
HETATM   30  O   UNL     1     -11.017   3.566  62.523  1.00  0.00    -0.156 OA 
HETATM   31  C   UNL     1      -8.171   7.620  68.957  1.00  0.00    -0.127 C  
HETATM   32  C   UNL     1      -8.170   6.126  68.290  1.00  0.00    -0.114 C  
HETATM   33  C   UNL     1     -11.702   2.919  63.612  1.00  0.00     1.739 C  
HETATM   34  C   UNL     1     -10.287  12.489  65.584  1.00  0.00    -0.294 C  
HETATM   35  C   UNL     1      -7.985  12.457  64.275  1.00  0.00     4.393 C  
HETATM   36  C   UNL     1     -10.616   2.354  64.487  1.00  0.00     0.612 C  
HETATM   37  O   UNL     1      -8.046   5.130  69.372  1.00  0.00    -0.085 OA 
HETATM   38  C   UNL     1     -11.006  12.752  64.480  1.00  0.00    -0.370 C  
HETATM   39  C   UNL     1      -7.798   3.864  68.682  1.00  0.00    -0.067 C  
HETATM   40  C   UNL     1      -6.609   4.227  67.840  1.00  0.00    -0.043 C  
HETATM   41  C   UNL     1      -9.171   3.378  68.048  1.00  0.00    -0.238 C  
HETATM   42  C   UNL     1      -9.397   2.856  66.592  1.00  0.00    -0.081 C  
HETATM   43  C   UNL     1      -7.157   5.482  67.247  1.00  0.00    -0.074 C  
HETATM   44  C   UNL     1      -6.929   5.578  65.923  1.00  0.00    -0.066 C  
HETATM   45  C   UNL     1     -10.258   3.543  65.405  1.00  0.00     0.228 C  
ENDROOT
BRANCH  16  46
HETATM   46  C   UNL     1      -7.690  15.849  69.197  1.00  0.00    -0.220 C  
BRANCH  46  47
HETATM   47  C   UNL     1      -6.383  16.613  68.993  1.00  0.00    -0.183 C  
HETATM   48  H   UNL     1      -4.510  16.411  69.543  1.00  0.00     0.000 HD 
HETATM   49  O   UNL     1      -5.323  15.935  69.669  1.00  0.00    -0.109 OA 
BRANCH  47  50
HETATM   50  C   UNL     1      -6.433  18.092  69.417  1.00  0.00    -0.233 C  
HETATM   51  N   UNL     1      -6.975  18.930  68.332  1.00  0.00    -0.245 NA 
HETATM   52  H1  UNL     1      -7.008  19.911  68.613  1.00  0.00     0.000 HD 
HETATM   53  H2  UNL     1      -7.886  18.597  68.017  1.00  0.00     0.000 HD 
ENDBRANCH  47  50
ENDBRANCH  46  47
ENDBRANCH  16  46
BRANCH  18  54
HETATM   54  O   UNL     1      -6.422  14.010  67.734  1.00  0.00    -0.155 OA 
HETATM   55  C   UNL     1      -5.247  13.495  67.115  1.00  0.00     0.651 C  
ENDBRANCH  18  54
TORSDOF 4
ENDMDL
MODEL       67
REMARK 921   NORMALIZED FREE ENERGY PREDICTED BY IDOCK:   48.81 KCAL/MOL
REMARK 922        TOTAL FREE ENERGY PREDICTED BY IDOCK:   60.20 KCAL/MOL
REMARK 923 INTER-LIGAND FREE ENERGY PREDICTED BY IDOCK:   58.12 KCAL/MOL
REMARK 924 INTRA-LIGAND FREE ENERGY PREDICTED BY IDOCK:    2.09 KCAL/MOL
REMARK 927      BINDING AFFINITY PREDICTED BY RF-SCORE:    0.00 PKD
ROOT
HETATM    1  C   UNL     1     -11.496   3.905  66.082  1.00  0.00     4.114 C  
HETATM    2  O   UNL     1     -11.861   5.233  65.730  1.00  0.00     0.999 OA 
HETATM    3  C   UNL     1     -10.982   6.158  66.332  1.00  0.00     0.156 C  
HETATM    4  C   UNL     1     -11.324   7.579  66.054  1.00  0.00     3.805 C  
HETATM    5  C   UNL     1     -10.505   8.280  67.122  1.00  0.00    -0.386 C  
HETATM    6  C   UNL     1      -8.918   8.006  67.084  1.00  0.00    -0.135 C  
HETATM    7  C   UNL     1      -7.463   8.992  67.214  1.00  0.00    -0.084 C  
HETATM    8  C   UNL     1      -6.857  10.541  67.711  1.00  0.00    -0.073 C  
HETATM    9  O   UNL     1      -5.936  10.506  68.557  1.00  0.00    -0.044 OA 
HETATM   10  C   UNL     1      -7.040  11.997  67.026  1.00  0.00    -0.091 C  
HETATM   11  C   UNL     1      -7.974  13.316  67.300  1.00  0.00    -0.134 C  
HETATM   12  C   UNL     1      -9.512  13.655  66.892  1.00  0.00    -0.262 C  
HETATM   13  O   UNL     1      -9.602  15.094  67.014  1.00  0.00    -0.217 OA 
HETATM   14  C   UNL     1     -10.315  13.382  65.569  1.00  0.00    -0.302 C  
HETATM   15  C   UNL     1     -10.824  11.971  65.177  1.00  0.00    -0.300 C  
HETATM   16  C   UNL     1      -8.329  15.689  66.754  1.00  0.00    -0.278 C  
HETATM   17  O   UNL     1      -8.621   7.032  66.058  1.00  0.00    -0.139 OA 
HETATM   18  C   UNL     1      -7.260  14.571  66.763  1.00  0.00     1.051 C  
HETATM   19  O   UNL     1     -10.814  11.103  66.330  1.00  0.00    -0.270 OA 
HETATM   20  C   UNL     1      -9.529   5.932  65.910  1.00  0.00    -0.005 C  
HETATM   21  O   UNL     1      -8.838   4.505  67.872  1.00  0.00    -0.103 OA 
HETATM   22  C   UNL     1      -9.490  10.709  66.780  1.00  0.00    -0.162 C  
HETATM   23  C   UNL     1      -9.063   4.552  66.444  1.00  0.00    -0.122 C  
HETATM   24  C   UNL     1      -9.461  10.285  68.569  1.00  0.00    -0.158 C  
HETATM   25  C   UNL     1     -10.042   3.536  65.805  1.00  0.00     0.252 C  
HETATM   26  C   UNL     1      -8.686  10.251  65.432  1.00  0.00    -0.183 C  
HETATM   27  O   UNL     1     -11.053   4.299  68.590  1.00  0.00     2.208 OA 
HETATM   28  C   UNL     1      -8.635  11.294  64.307  1.00  0.00     0.387 C  
HETATM   29  C   UNL     1     -11.632   3.447  67.539  1.00  0.00    10.680 C  
HETATM   30  O   UNL     1      -9.895   2.227  66.332  1.00  0.00     0.425 OA 
HETATM   31  C   UNL     1      -8.484   9.456  69.749  1.00  0.00    -0.170 C  
HETATM   32  C   UNL     1      -8.304   7.855  70.036  1.00  0.00    -0.121 C  
HETATM   33  C   UNL     1     -10.756   2.186  67.487  1.00  0.00     4.809 C  
HETATM   34  C   UNL     1     -10.070  11.389  63.978  1.00  0.00    -0.369 C  
HETATM   35  C   UNL     1      -7.559  10.965  63.252  1.00  0.00     0.309 C  
HETATM   36  C   UNL     1      -9.841   2.336  68.672  1.00  0.00     0.272 C  
HETATM   37  O   UNL     1      -8.358   7.630  71.493  1.00  0.00    -0.104 OA 
HETATM   38  C   UNL     1     -10.570  10.913  62.826  1.00  0.00     0.429 C  
HETATM   39  C   UNL     1      -7.938   6.238  71.667  1.00  0.00    -0.102 C  
HETATM   40  C   UNL     1      -6.622   6.246  70.946  1.00  0.00    -0.053 C  
HETATM   41  C   UNL     1      -9.146   5.307  71.223  1.00  0.00    -0.169 C  
HETATM   42  C   UNL     1      -9.069   4.056  70.289  1.00  0.00    -0.181 C  
HETATM   43  C   UNL     1      -7.087   6.893  69.684  1.00  0.00    -0.068 C  
HETATM   44  C   UNL     1      -6.610   6.288  68.578  1.00  0.00    -0.059 C  
HETATM   45  C   UNL     1      -9.706   3.868  68.813  1.00  0.00    -0.049 C  
ENDROOT
BRANCH  16  46
HETATM   46  C   UNL     1      -8.334  16.483  65.437  1.00  0.00     1.731 C  
BRANCH  46  47
HETATM   47  C   UNL     1      -9.619  16.470  64.610  1.00  0.00     2.843 C  
HETATM   48  H   UNL     1     -10.091  16.436  62.706  1.00  0.00     0.000 HD 
HETATM   49  O   UNL     1      -9.292  16.444  63.220  1.00  0.00    10.223 OA 
BRANCH  47  50
HETATM   50  C   UNL     1     -10.587  17.628  64.914  1.00  0.00     0.976 C  
HETATM   51  N   UNL     1     -10.817  17.752  66.364  1.00  0.00    -0.063 NA 
HETATM   52  H1  UNL     1     -11.459  18.520  66.566  1.00  0.00     0.000 HD 
HETATM   53  H2  UNL     1      -9.942  17.849  66.878  1.00  0.00     0.000 HD 
ENDBRANCH  47  50
ENDBRANCH  46  47
ENDBRANCH  16  46
BRANCH  18  54
HETATM   54  O   UNL     1      -6.747  14.336  65.443  1.00  0.00     8.485 OA 
HETATM   55  C   UNL     1      -6.129  13.067  65.246  1.00  0.00     8.921 C  
ENDBRANCH  18  54
TORSDOF 4
ENDMDL
MODEL       68
REMARK 921   NORMALIZED FREE ENERGY PREDICTED BY IDOCK:   49.06 KCAL/MOL
REMARK 922        TOTAL FREE ENERGY PREDICTED BY IDOCK:   60.52 KCAL/MOL
REMARK 923 INTER-LIGAND FREE ENERGY PREDICTED BY IDOCK:   57.16 KCAL/MOL
REMARK 924 INTRA-LIGAND FREE ENERGY PREDICTED BY IDOCK:    3.35 KCAL/MOL
REMARK 927      BINDING AFFINITY PREDICTED BY RF-SCORE:    0.00 PKD
ROOT
HETATM    1  C   UNL     1     -11.563  18.257  69.762  1.00  0.00     4.744 C  
HETATM    2  O   UNL     1     -12.322  17.056  69.772  1.00  0.00     1.721 OA 
HETATM    3  C   UNL     1     -11.466  15.935  69.744  1.00  0.00    -0.342 C  
HETATM    4  C   UNL     1     -12.183  14.632  69.703  1.00  0.00    -0.325 C  
HETATM    5  C   UNL     1     -11.061  13.706  69.273  1.00  0.00    -0.241 C  
HETATM    6  C   UNL     1      -9.769  13.671  70.236  1.00  0.00     2.979 C  
HETATM    7  C   UNL     1      -8.741  12.416  70.923  1.00  0.00     9.784 C  
HETATM    8  C   UNL     1      -8.287  10.746  70.792  1.00  0.00     3.069 C  
HETATM    9  O   UNL     1      -7.064  10.538  70.639  1.00  0.00    -0.250 OA 
HETATM   10  C   UNL     1      -9.120   9.410  71.172  1.00  0.00    -0.060 C  
HETATM   11  C   UNL     1      -9.968   8.278  70.344  1.00  0.00    -0.196 C  
HETATM   12  C   UNL     1     -11.490   8.275  69.769  1.00  0.00     0.265 C  
HETATM   13  O   UNL     1     -11.782   6.874  69.547  1.00  0.00    -0.106 OA 
HETATM   14  C   UNL     1     -12.833   8.798  70.395  1.00  0.00     0.805 C  
HETATM   15  C   UNL     1     -13.178  10.307  70.489  1.00  0.00    -0.047 C  
HETATM   16  C   UNL     1     -11.043   6.068  70.466  1.00  0.00    -0.314 C  
HETATM   17  O   UNL     1      -9.929  14.646  71.290  1.00  0.00     1.592 OA 
HETATM   18  C   UNL     1      -9.965   6.955  71.132  1.00  0.00    -0.177 C  
HETATM   19  O   UNL     1     -12.331  11.065  69.598  1.00  0.00    -0.321 OA 
HETATM   20  C   UNL     1     -10.512  15.909  70.939  1.00  0.00     0.428 C  
HETATM   21  O   UNL     1      -8.547  17.019  69.814  1.00  0.00     0.606 OA 
HETATM   22  C   UNL     1     -10.943  11.161  70.018  1.00  0.00    -0.006 C  
HETATM   23  C   UNL     1      -9.557  17.127  70.843  1.00  0.00     4.194 C  
HETATM   24  C   UNL     1      -9.805  11.432  68.600  1.00  0.00    -0.199 C  
HETATM   25  C   UNL     1     -10.496  18.360  70.847  1.00  0.00     2.537 C  
HETATM   26  C   UNL     1     -10.990  11.559  71.604  1.00  0.00     4.862 C  
HETATM   27  O   UNL     1      -9.847  17.592  67.957  1.00  0.00    -0.275 OA 
HETATM   28  C   UNL     1     -11.808  10.616  72.497  1.00  0.00     2.940 C  
HETATM   29  C   UNL     1     -10.739  18.618  68.519  1.00  0.00     0.188 C  
HETATM   30  O   UNL     1      -9.811  19.571  70.567  1.00  0.00     0.658 OA 
HETATM   31  C   UNL     1      -8.184  11.962  68.246  1.00  0.00    -0.157 C  
HETATM   32  C   UNL     1      -7.553  13.472  68.196  1.00  0.00    -0.138 C  
HETATM   33  C   UNL     1      -9.820  19.687  69.131  1.00  0.00    -0.333 C  
HETATM   34  C   UNL     1     -13.153  10.825  71.930  1.00  0.00    -0.557 C  
HETATM   35  C   UNL     1     -11.496  10.812  73.995  1.00  0.00    17.494 C  
HETATM   36  C   UNL     1      -8.443  19.272  68.689  1.00  0.00    -0.403 C  
HETATM   37  O   UNL     1      -6.712  13.589  66.990  1.00  0.00    -0.048 OA 
HETATM   38  C   UNL     1     -14.117  11.476  72.601  1.00  0.00     1.229 C  
HETATM   39  C   UNL     1      -5.998  14.856  67.159  1.00  0.00     0.689 C  
HETATM   40  C   UNL     1      -5.373  14.651  68.508  1.00  0.00    -0.103 C  
HETATM   41  C   UNL     1      -7.023  16.034  66.868  1.00  0.00    -0.139 C  
HETATM   42  C   UNL     1      -7.247  17.316  67.734  1.00  0.00    -0.169 C  
HETATM   43  C   UNL     1      -6.597  14.206  69.234  1.00  0.00    -0.120 C  
HETATM   44  C   UNL     1      -6.734  14.792  70.440  1.00  0.00     0.024 C  
HETATM   45  C   UNL     1      -8.564  17.737  68.576  1.00  0.00    -0.291 C  
ENDROOT
BRANCH  16  46
HETATM   46  C   UNL     1     -11.965   5.394  71.496  1.00  0.00     0.983 C  
BRANCH  46  47
HETATM   47  C   UNL     1     -11.378   4.259  72.333  1.00  0.00     0.493 C  
HETATM   48  H   UNL     1     -10.149   4.095  73.853  1.00  0.00     0.000 HD 
HETATM   49  O   UNL     1     -10.514   4.801  73.333  1.00  0.00    -0.172 OA 
BRANCH  47  50
HETATM   50  C   UNL     1     -10.647   3.176  71.519  1.00  0.00     0.867 C  
HETATM   51  N   UNL     1      -9.574   3.769  70.702  1.00  0.00    -0.181 NA 
HETATM   52  H1  UNL     1      -9.089   3.051  70.163  1.00  0.00     0.000 HD 
HETATM   53  H2  UNL     1      -8.926   4.316  71.268  1.00  0.00     0.000 HD 
ENDBRANCH  47  50
ENDBRANCH  46  47
ENDBRANCH  16  46
BRANCH  18  54
HETATM   54  O   UNL     1     -10.271   7.188  72.516  1.00  0.00    -0.183 OA 
HETATM   55  C   UNL     1      -9.328   6.659  73.445  1.00  0.00    -0.137 C  
ENDBRANCH  18  54
TORSDOF 4
ENDMDL
MODEL       69
REMARK 921   NORMALIZED FREE ENERGY PREDICTED BY IDOCK:   49.15 KCAL/MOL
REMARK 922        TOTAL FREE ENERGY PREDICTED BY IDOCK:   60.62 KCAL/MOL
REMARK 923 INTER-LIGAND FREE ENERGY PREDICTED BY IDOCK:   58.45 KCAL/MOL
REMARK 924 INTRA-LIGAND FREE ENERGY PREDICTED BY IDOCK:    2.17 KCAL/MOL
REMARK 927      BINDING AFFINITY PREDICTED BY RF-SCORE:    0.00 PKD
ROOT
HETATM    1  C   UNL     1     -10.011   4.860  70.157  1.00  0.00    -0.255 C  
HETATM    2  O   UNL     1      -9.331   6.029  70.595  1.00  0.00    -0.158 OA 
HETATM    3  C   UNL     1      -9.168   6.930  69.522  1.00  0.00    -0.148 C  
HETATM    4  C   UNL     1      -8.419   8.164  69.884  1.00  0.00    -0.125 C  
HETATM    5  C   UNL     1      -8.061   8.691  68.507  1.00  0.00    -0.117 C  
HETATM    6  C   UNL     1      -9.302   8.987  67.523  1.00  0.00    -0.135 C  
HETATM    7  C   UNL     1      -9.768  10.292  66.434  1.00  0.00    -0.252 C  
HETATM    8  C   UNL     1      -9.181  11.689  65.587  1.00  0.00    -0.138 C  
HETATM    9  O   UNL     1      -9.363  11.676  64.350  1.00  0.00    -0.088 OA 
HETATM   10  C   UNL     1      -8.751  13.143  66.154  1.00  0.00     0.468 C  
HETATM   11  C   UNL     1      -7.338  13.905  66.484  1.00  0.00     1.846 C  
HETATM   12  C   UNL     1      -6.347  13.834  67.772  1.00  0.00    -0.162 C  
HETATM   13  O   UNL     1      -5.541  15.032  67.667  1.00  0.00    -0.284 OA 
HETATM   14  C   UNL     1      -6.655  13.776  69.312  1.00  0.00    -0.113 C  
HETATM   15  C   UNL     1      -7.185  12.497  70.010  1.00  0.00     1.177 C  
HETATM   16  C   UNL     1      -6.281  16.064  67.012  1.00  0.00     0.071 C  
HETATM   17  O   UNL     1     -10.532   8.573  68.160  1.00  0.00    -0.217 OA 
HETATM   18  C   UNL     1      -7.536  15.428  66.369  1.00  0.00     0.792 C  
HETATM   19  O   UNL     1      -6.961  11.345  69.169  1.00  0.00    -0.101 OA 
HETATM   20  C   UNL     1     -10.506   7.353  68.915  1.00  0.00    -0.203 C  
HETATM   21  O   UNL     1     -10.565   5.661  67.046  1.00  0.00    -0.249 OA 
HETATM   22  C   UNL     1      -7.807  11.283  67.990  1.00  0.00    -0.115 C  
HETATM   23  C   UNL     1     -11.179   6.111  68.276  1.00  0.00    -0.086 C  
HETATM   24  C   UNL     1      -7.037  10.314  66.631  1.00  0.00    -0.108 C  
HETATM   25  C   UNL     1     -11.337   5.108  69.446  1.00  0.00     2.002 C  
HETATM   26  C   UNL     1      -9.322  11.600  68.519  1.00  0.00    -0.169 C  
HETATM   27  O   UNL     1      -8.742   4.505  67.942  1.00  0.00    -0.102 OA 
HETATM   28  C   UNL     1      -9.490  12.916  69.290  1.00  0.00     0.843 C  
HETATM   29  C   UNL     1      -9.325   3.919  69.159  1.00  0.00    -0.170 C  
HETATM   30  O   UNL     1     -11.761   3.824  69.014  1.00  0.00     8.620 OA 
HETATM   31  C   UNL     1      -7.444   9.507  65.142  1.00  0.00    -0.109 C  
HETATM   32  C   UNL     1      -8.162   8.058  64.887  1.00  0.00    -0.134 C  
HETATM   33  C   UNL     1     -10.549   3.114  68.694  1.00  0.00     3.079 C  
HETATM   34  C   UNL     1      -8.641  12.638  70.464  1.00  0.00     6.500 C  
HETATM   35  C   UNL     1     -10.969  13.338  69.413  1.00  0.00    -0.067 C  
HETATM   36  C   UNL     1     -10.452   3.148  67.193  1.00  0.00     2.459 C  
HETATM   37  O   UNL     1      -7.423   7.349  63.824  1.00  0.00    -0.089 OA 
HETATM   38  C   UNL     1      -9.158  12.442  71.688  1.00  0.00    17.804 C  
HETATM   39  C   UNL     1      -8.269   6.203  63.489  1.00  0.00    -0.004 C  
HETATM   40  C   UNL     1      -9.570   6.887  63.187  1.00  0.00     3.287 C  
HETATM   41  C   UNL     1      -8.122   5.134  64.654  1.00  0.00    -0.119 C  
HETATM   42  C   UNL     1      -9.279   4.371  65.377  1.00  0.00    -0.153 C  
HETATM   43  C   UNL     1      -9.645   7.731  64.415  1.00  0.00     2.644 C  
HETATM   44  C   UNL     1     -10.869   7.728  64.979  1.00  0.00     7.266 C  
HETATM   45  C   UNL     1      -9.746   4.494  66.922  1.00  0.00    -0.205 C  
ENDROOT
BRANCH  16  46
HETATM   46  C   UNL     1      -6.634  17.207  67.978  1.00  0.00    -0.158 C  
BRANCH  46  47
HETATM   47  C   UNL     1      -5.694  17.448  69.159  1.00  0.00    -0.189 C  
HETATM   48  H   UNL     1      -4.576  16.352  70.340  1.00  0.00     0.000 HD 
HETATM   49  O   UNL     1      -5.160  16.202  69.606  1.00  0.00    -0.111 OA 
BRANCH  47  50
HETATM   50  C   UNL     1      -6.327  18.216  70.333  1.00  0.00     0.464 C  
HETATM   51  N   UNL     1      -7.215  17.338  71.116  1.00  0.00     4.389 NA 
HETATM   52  H1  UNL     1      -7.634  17.847  71.895  1.00  0.00     0.000 HD 
HETATM   53  H2  UNL     1      -6.732  16.497  71.432  1.00  0.00     0.000 HD 
ENDBRANCH  47  50
ENDBRANCH  46  47
ENDBRANCH  16  46
BRANCH  18  54
HETATM   54  O   UNL     1      -8.731  15.837  67.053  1.00  0.00    -0.192 OA 
HETATM   55  C   UNL     1      -9.071  17.214  66.914  1.00  0.00    -0.238 C  
ENDBRANCH  18  54
TORSDOF 4
ENDMDL
MODEL       70
REMARK 921   NORMALIZED FREE ENERGY PREDICTED BY IDOCK:   50.86 KCAL/MOL
REMARK 922        TOTAL FREE ENERGY PREDICTED BY IDOCK:   62.74 KCAL/MOL
REMARK 923 INTER-LIGAND FREE ENERGY PREDICTED BY IDOCK:   58.99 KCAL/MOL
REMARK 924 INTRA-LIGAND FREE ENERGY PREDICTED BY IDOCK:    3.75 KCAL/MOL
REMARK 927      BINDING AFFINITY PREDICTED BY RF-SCORE:    0.00 PKD
ROOT
HETATM    1  C   UNL     1     -12.167   6.602  66.533  1.00  0.00     4.614 C  
HETATM    2  O   UNL     1     -12.594   7.769  67.222  1.00  0.00     6.015 OA 
HETATM    3  C   UNL     1     -11.485   8.575  67.554  1.00  0.00     1.592 C  
HETATM    4  C   UNL     1     -11.839   9.798  68.323  1.00  0.00     1.159 C  
HETATM    5  C   UNL     1     -10.478  10.197  68.861  1.00  0.00    -0.230 C  
HETATM    6  C   UNL     1      -9.337  10.471  67.756  1.00  0.00    -0.149 C  
HETATM    7  C   UNL     1      -8.110  11.706  67.488  1.00  0.00    -0.144 C  
HETATM    8  C   UNL     1      -7.236  13.004  68.241  1.00  0.00    -0.113 C  
HETATM    9  O   UNL     1      -5.991  12.901  68.198  1.00  0.00    -0.068 OA 
HETATM   10  C   UNL     1      -7.741  14.477  68.684  1.00  0.00    -0.137 C  
HETATM   11  C   UNL     1      -8.176  15.197  70.091  1.00  0.00     0.542 C  
HETATM   12  C   UNL     1      -9.572  15.182  70.926  1.00  0.00     1.582 C  
HETATM   13  O   UNL     1      -9.473  16.329  71.803  1.00  0.00     4.876 OA 
HETATM   14  C   UNL     1     -11.066  15.260  70.445  1.00  0.00    -0.324 C  
HETATM   15  C   UNL     1     -11.790  14.066  69.771  1.00  0.00    -0.324 C  
HETATM   16  C   UNL     1      -8.663  17.339  71.199  1.00  0.00     7.613 C  
HETATM   17  O   UNL     1      -9.857  10.166  66.442  1.00  0.00    -0.200 OA 
HETATM   18  C   UNL     1      -7.928  16.713  69.990  1.00  0.00     1.426 C  
HETATM   19  O   UNL     1     -11.066  12.842  70.024  1.00  0.00     0.151 OA 
HETATM   20  C   UNL     1     -10.697   9.010  66.317  1.00  0.00     0.525 C  
HETATM   21  O   UNL     1      -8.963   7.180  66.374  1.00  0.00    -0.145 OA 
HETATM   22  C   UNL     1      -9.805  12.726  69.313  1.00  0.00     0.680 C  
HETATM   23  C   UNL     1     -10.077   7.753  65.652  1.00  0.00     1.358 C  
HETATM   24  C   UNL     1      -8.619  11.618  70.176  1.00  0.00     2.996 C  
HETATM   25  C   UNL     1     -11.291   6.854  65.310  1.00  0.00     6.860 C  
HETATM   26  C   UNL     1     -10.131  13.153  67.768  1.00  0.00    -0.226 C  
HETATM   27  O   UNL     1     -10.146   6.016  68.020  1.00  0.00    -0.136 OA 
HETATM   28  C   UNL     1     -10.779  14.532  67.587  1.00  0.00    -0.254 C  
HETATM   29  C   UNL     1     -11.326   5.555  67.273  1.00  0.00     1.092 C  
HETATM   30  O   UNL     1     -10.909   5.561  64.867  1.00  0.00     1.367 OA 
HETATM   31  C   UNL     1      -7.156  10.715  69.895  1.00  0.00    -0.133 C  
HETATM   32  C   UNL     1      -6.926   9.286  69.132  1.00  0.00    -0.058 C  
HETATM   33  C   UNL     1     -10.783   4.773  66.066  1.00  0.00    -0.158 C  
HETATM   34  C   UNL     1     -12.060  14.308  68.284  1.00  0.00    -0.278 C  
HETATM   35  C   UNL     1     -10.699  15.030  66.130  1.00  0.00    -0.328 C  
HETATM   36  C   UNL     1      -9.305   4.684  66.332  1.00  0.00    -0.149 C  
HETATM   37  O   UNL     1      -6.011   8.462  69.944  1.00  0.00    -0.025 OA 
HETATM   38  C   UNL     1     -13.227  14.234  67.623  1.00  0.00     3.258 C  
HETATM   39  C   UNL     1      -5.665   7.333  69.080  1.00  0.00    -0.019 C  
HETATM   40  C   UNL     1      -5.165   8.050  67.860  1.00  0.00    -0.033 C  
HETATM   41  C   UNL     1      -6.915   6.353  69.037  1.00  0.00    -0.072 C  
HETATM   42  C   UNL     1      -7.553   5.705  67.766  1.00  0.00    -0.089 C  
HETATM   43  C   UNL     1      -6.311   8.991  67.695  1.00  0.00    -0.056 C  
HETATM   44  C   UNL     1      -6.728   9.089  66.417  1.00  0.00    -0.075 C  
HETATM   45  C   UNL     1      -9.020   5.971  67.136  1.00  0.00    -0.114 C  
ENDROOT
BRANCH  16  46
HETATM   46  C   UNL     1      -9.495  18.570  70.803  1.00  0.00     3.674 C  
BRANCH  46  47
HETATM   47  C   UNL     1     -11.003  18.380  70.643  1.00  0.00     2.992 C  
HETATM   48  H   UNL     1     -12.582  19.538  70.515  1.00  0.00     0.000 HD 
HETATM   49  O   UNL     1     -11.644  19.657  70.614  1.00  0.00     5.335 OA 
BRANCH  47  50
HETATM   50  C   UNL     1     -11.651  17.475  71.706  1.00  0.00     2.335 C  
HETATM   51  N   UNL     1     -11.685  18.147  73.017  1.00  0.00     1.429 NA 
HETATM   52  H1  UNL     1     -12.115  17.547  73.721  1.00  0.00     0.000 HD 
HETATM   53  H2  UNL     1     -12.146  19.055  72.964  1.00  0.00     0.000 HD 
ENDBRANCH  47  50
ENDBRANCH  46  47
ENDBRANCH  16  46
BRANCH  18  54
HETATM   54  O   UNL     1      -8.437  17.230  68.751  1.00  0.00    -0.274 OA 
HETATM   55  C   UNL     1      -7.874  16.656  67.575  1.00  0.00    -0.171 C  
ENDBRANCH  18  54
TORSDOF 4
ENDMDL
MODEL       71
REMARK 921   NORMALIZED FREE ENERGY PREDICTED BY IDOCK:   61.37 KCAL/MOL
REMARK 922        TOTAL FREE ENERGY PREDICTED BY IDOCK:   75.70 KCAL/MOL
REMARK 923 INTER-LIGAND FREE ENERGY PREDICTED BY IDOCK:   75.85 KCAL/MOL
REMARK 924 INTRA-LIGAND FREE ENERGY PREDICTED BY IDOCK:   -0.15 KCAL/MOL
REMARK 927      BINDING AFFINITY PREDICTED BY RF-SCORE:    0.00 PKD
ROOT
HETATM    1  C   UNL     1      -7.020  17.923  68.945  1.00  0.00    -0.260 C  
HETATM    2  O   UNL     1      -7.683  17.173  69.954  1.00  0.00     0.680 OA 
HETATM    3  C   UNL     1      -8.352  16.070  69.383  1.00  0.00    -0.139 C  
HETATM    4  C   UNL     1      -9.116  15.256  70.367  1.00  0.00     0.939 C  
HETATM    5  C   UNL     1     -10.010  14.456  69.437  1.00  0.00     0.093 C  
HETATM    6  C   UNL     1      -9.253  13.550  68.340  1.00  0.00    -0.159 C  
HETATM    7  C   UNL     1      -9.411  11.902  67.737  1.00  0.00    -0.184 C  
HETATM    8  C   UNL     1     -10.472  10.530  67.665  1.00  0.00    -0.234 C  
HETATM    9  O   UNL     1     -10.731  10.119  66.512  1.00  0.00    -0.153 OA 
HETATM   10  C   UNL     1     -10.905   9.490  68.827  1.00  0.00    -0.173 C  
HETATM   11  C   UNL     1     -12.218   9.278  69.785  1.00  0.00     0.809 C  
HETATM   12  C   UNL     1     -12.675  10.003  71.169  1.00  0.00    -0.387 C  
HETATM   13  O   UNL     1     -13.648   9.096  71.739  1.00  0.00    -0.379 OA 
HETATM   14  C   UNL     1     -11.845  10.437  72.431  1.00  0.00     1.898 C  
HETATM   15  C   UNL     1     -10.908  11.672  72.430  1.00  0.00    10.480 C  
HETATM   16  C   UNL     1     -13.358   7.754  71.345  1.00  0.00    -0.262 C  
HETATM   17  O   UNL     1      -7.829  13.786  68.421  1.00  0.00    -0.131 OA 
HETATM   18  C   UNL     1     -12.319   7.799  70.199  1.00  0.00     0.714 C  
HETATM   19  O   UNL     1     -11.222  12.531  71.313  1.00  0.00     2.250 OA 
HETATM   20  C   UNL     1      -7.394  15.135  68.641  1.00  0.00    -0.121 C  
HETATM   21  O   UNL     1      -7.718  16.100  66.334  1.00  0.00    -0.241 OA 
HETATM   22  C   UNL     1     -10.840  12.001  70.016  1.00  0.00     0.730 C  
HETATM   23  C   UNL     1      -6.795  15.894  67.429  1.00  0.00    -0.194 C  
HETATM   24  C   UNL     1     -11.869  12.686  68.654  1.00  0.00    -0.342 C  
HETATM   25  C   UNL     1      -6.082  17.120  68.050  1.00  0.00    -0.130 C  
HETATM   26  C   UNL     1      -9.308  11.459  70.196  1.00  0.00     2.359 C  
HETATM   27  O   UNL     1      -8.905  17.923  67.188  1.00  0.00    -0.239 OA 
HETATM   28  C   UNL     1      -9.096  10.444  71.328  1.00  0.00     3.482 C  
HETATM   29  C   UNL     1      -7.849  18.668  67.892  1.00  0.00    -0.257 C  
HETATM   30  O   UNL     1      -5.633  18.047  67.073  1.00  0.00    -0.130 OA 
HETATM   31  C   UNL     1     -11.881  12.862  66.921  1.00  0.00    -0.444 C  
HETATM   32  C   UNL     1     -11.074  13.913  65.960  1.00  0.00    -0.289 C  
HETATM   33  C   UNL     1      -6.750  18.929  66.849  1.00  0.00    -0.194 C  
HETATM   34  C   UNL     1      -9.428  11.284  72.493  1.00  0.00    16.951 C  
HETATM   35  C   UNL     1      -7.755   9.692  71.197  1.00  0.00     0.365 C  
HETATM   36  C   UNL     1      -7.367  18.471  65.556  1.00  0.00     0.050 C  
HETATM   37  O   UNL     1     -12.011  14.440  64.951  1.00  0.00    -0.387 OA 
HETATM   38  C   UNL     1      -8.493  11.691  73.368  1.00  0.00    21.495 C  
HETATM   39  C   UNL     1     -11.163  15.157  63.997  1.00  0.00     0.443 C  
HETATM   40  C   UNL     1     -10.176  14.085  63.635  1.00  0.00     2.704 C  
HETATM   41  C   UNL     1     -10.722  16.525  64.671  1.00  0.00     0.147 C  
HETATM   42  C   UNL     1      -9.278  17.125  64.717  1.00  0.00     3.962 C  
HETATM   43  C   UNL     1      -9.815  13.665  65.020  1.00  0.00    -0.087 C  
HETATM   44  C   UNL     1      -8.488  13.504  65.190  1.00  0.00     3.592 C  
HETATM   45  C   UNL     1      -8.330  17.352  66.009  1.00  0.00    -0.106 C  
ENDROOT
BRANCH  16  46
HETATM   46  C   UNL     1     -12.880   6.905  72.535  1.00  0.00     0.382 C  
BRANCH  46  47
HETATM   47  C   UNL     1     -13.042   5.389  72.431  1.00  0.00     1.292 C  
HETATM   48  H   UNL     1     -14.438   4.140  71.849  1.00  0.00     0.000 HD 
HETATM   49  O   UNL     1     -14.337   5.082  71.914  1.00  0.00     2.700 OA 
BRANCH  47  50
HETATM   50  C   UNL     1     -12.791   4.627  73.744  1.00  0.00     3.691 C  
HETATM   51  N   UNL     1     -11.391   4.776  74.178  1.00  0.00    -0.225 NA 
HETATM   52  H1  UNL     1     -11.224   4.270  75.049  1.00  0.00     0.000 HD 
HETATM   53  H2  UNL     1     -11.121   5.756  74.254  1.00  0.00     0.000 HD 
ENDBRANCH  47  50
ENDBRANCH  46  47
ENDBRANCH  16  46
BRANCH  18  54
HETATM   54  O   UNL     1     -11.044   7.306  70.638  1.00  0.00    -0.250 OA 
HETATM   55  C   UNL     1     -10.617   6.093  70.025  1.00  0.00    -0.261 C  
ENDBRANCH  18  54
TORSDOF 4
ENDMDL
MODEL       72
REMARK 921   NORMALIZED FREE ENERGY PREDICTED BY IDOCK:   63.18 KCAL/MOL
REMARK 922        TOTAL FREE ENERGY PREDICTED BY IDOCK:   77.93 KCAL/MOL
REMARK 923 INTER-LIGAND FREE ENERGY PREDICTED BY IDOCK:   77.08 KCAL/MOL
REMARK 924 INTRA-LIGAND FREE ENERGY PREDICTED BY IDOCK:    0.85 KCAL/MOL
REMARK 927      BINDING AFFINITY PREDICTED BY RF-SCORE:    0.00 PKD
ROOT
HETATM    1  C   UNL     1     -10.801  17.665  66.954  1.00  0.00    -0.032 C  
HETATM    2  O   UNL     1     -10.052  16.594  66.395  1.00  0.00    -0.287 OA 
HETATM    3  C   UNL     1      -9.989  15.516  67.302  1.00  0.00    -0.238 C  
HETATM    4  C   UNL     1      -9.178  14.368  66.813  1.00  0.00    -0.287 C  
HETATM    5  C   UNL     1      -8.963  13.604  68.107  1.00  0.00    -0.191 C  
HETATM    6  C   UNL     1     -10.299  13.135  68.877  1.00  0.00    -0.048 C  
HETATM    7  C   UNL     1     -10.853  11.655  69.657  1.00  0.00    -0.001 C  
HETATM    8  C   UNL     1     -10.333  10.130  70.304  1.00  0.00    -0.174 C  
HETATM    9  O   UNL     1     -10.651   9.922  71.495  1.00  0.00    -0.024 OA 
HETATM   10  C   UNL     1      -9.812   8.802  69.540  1.00  0.00    -0.180 C  
HETATM   11  C   UNL     1      -8.355   8.113  69.241  1.00  0.00    -0.130 C  
HETATM   12  C   UNL     1      -7.229   8.415  68.106  1.00  0.00    -0.091 C  
HETATM   13  O   UNL     1      -6.414   7.219  68.087  1.00  0.00    -0.042 OA 
HETATM   14  C   UNL     1      -7.367   8.747  66.576  1.00  0.00    -0.081 C  
HETATM   15  C   UNL     1      -7.843  10.129  66.060  1.00  0.00    -0.122 C  
HETATM   16  C   UNL     1      -7.199   6.085  68.461  1.00  0.00    -0.084 C  
HETATM   17  O   UNL     1     -11.459  13.654  68.188  1.00  0.00    -0.275 OA 
HETATM   18  C   UNL     1      -8.531   6.594  69.061  1.00  0.00    -0.130 C  
HETATM   19  O   UNL     1      -7.739  11.113  67.113  1.00  0.00    -0.122 OA 
HETATM   20  C   UNL     1     -11.377  14.989  67.670  1.00  0.00    -0.334 C  
HETATM   21  O   UNL     1     -11.679  16.320  69.791  1.00  0.00    -0.237 OA 
HETATM   22  C   UNL     1      -8.712  10.961  68.181  1.00  0.00    -0.133 C  
HETATM   23  C   UNL     1     -12.143  16.096  68.440  1.00  0.00     0.419 C  
HETATM   24  C   UNL     1      -8.117  11.673  69.769  1.00  0.00     1.246 C  
HETATM   25  C   UNL     1     -12.192  17.292  67.456  1.00  0.00     2.781 C  
HETATM   26  C   UNL     1     -10.152  10.742  67.437  1.00  0.00    -0.227 C  
HETATM   27  O   UNL     1      -9.793  17.620  69.325  1.00  0.00    -0.188 OA 
HETATM   28  C   UNL     1     -10.204   9.584  66.430  1.00  0.00    -0.302 C  
HETATM   29  C   UNL     1     -10.251  18.413  68.174  1.00  0.00    -0.384 C  
HETATM   30  O   UNL     1     -12.690  18.477  68.057  1.00  0.00     4.231 OA 
HETATM   31  C   UNL     1      -8.704  12.201  71.322  1.00  0.00    12.816 C  
HETATM   32  C   UNL     1      -9.477  13.579  71.747  1.00  0.00    12.006 C  
HETATM   33  C   UNL     1     -11.536  19.120  68.633  1.00  0.00     2.777 C  
HETATM   34  C   UNL     1      -9.237  10.070  65.429  1.00  0.00    -0.259 C  
HETATM   35  C   UNL     1     -11.651   9.189  66.069  1.00  0.00     4.608 C  
HETATM   36  C   UNL     1     -11.605  18.819  70.105  1.00  0.00     6.232 C  
HETATM   37  O   UNL     1      -8.876  14.088  72.995  1.00  0.00     7.741 OA 
HETATM   38  C   UNL     1      -9.620  10.480  64.208  1.00  0.00    -0.364 C  
HETATM   39  C   UNL     1      -9.778  15.155  73.431  1.00  0.00     7.719 C  
HETATM   40  C   UNL     1     -11.089  14.425  73.458  1.00  0.00     2.228 C  
HETATM   41  C   UNL     1      -9.527  16.415  72.498  1.00  0.00    10.057 C  
HETATM   42  C   UNL     1     -10.614  17.293  71.796  1.00  0.00     3.027 C  
HETATM   43  C   UNL     1     -11.010  13.815  72.099  1.00  0.00     4.279 C  
HETATM   44  C   UNL     1     -12.164  13.916  71.411  1.00  0.00    -0.296 C  
HETATM   45  C   UNL     1     -10.904  17.447  70.211  1.00  0.00     0.968 C  
ENDROOT
BRANCH  16  46
HETATM   46  C   UNL     1      -7.418   5.133  67.274  1.00  0.00    -0.083 C  
BRANCH  46  47
HETATM   47  C   UNL     1      -7.400   5.738  65.871  1.00  0.00    -0.073 C  
HETATM   48  H   UNL     1      -8.393   5.490  64.197  1.00  0.00     0.000 HD 
HETATM   49  O   UNL     1      -8.405   5.113  65.070  1.00  0.00    -0.130 OA 
BRANCH  47  50
HETATM   50  C   UNL     1      -6.034   5.678  65.165  1.00  0.00    -0.022 C  
HETATM   51  N   UNL     1      -5.589   4.283  65.000  1.00  0.00    -0.013 NA 
HETATM   52  H1  UNL     1      -4.683   4.244  64.532  1.00  0.00     0.000 HD 
HETATM   53  H2  UNL     1      -6.287   3.719  64.516  1.00  0.00     0.000 HD 
ENDBRANCH  47  50
ENDBRANCH  46  47
ENDBRANCH  16  46
BRANCH  18  54
HETATM   54  O   UNL     1      -9.633   6.312  68.185  1.00  0.00    -0.117 OA 
HETATM   55  C   UNL     1     -10.917   6.305  68.804  1.00  0.00    -0.352 C  
ENDBRANCH  18  54
TORSDOF 4
ENDMDL
MODEL       73
REMARK 921   NORMALIZED FREE ENERGY PREDICTED BY IDOCK:   65.52 KCAL/MOL
REMARK 922        TOTAL FREE ENERGY PREDICTED BY IDOCK:   80.83 KCAL/MOL
REMARK 923 INTER-LIGAND FREE ENERGY PREDICTED BY IDOCK:   77.66 KCAL/MOL
REMARK 924 INTRA-LIGAND FREE ENERGY PREDICTED BY IDOCK:    3.17 KCAL/MOL
REMARK 927      BINDING AFFINITY PREDICTED BY RF-SCORE:    0.00 PKD
ROOT
HETATM    1  C   UNL     1     -10.789   8.691  63.182  1.00  0.00    10.350 C  
HETATM    2  O   UNL     1     -10.874  10.066  63.529  1.00  0.00     1.669 OA 
HETATM    3  C   UNL     1     -10.272  10.292  64.785  1.00  0.00    -0.168 C  
HETATM    4  C   UNL     1     -10.361  11.703  65.248  1.00  0.00    -0.316 C  
HETATM    5  C   UNL     1     -10.026  11.539  66.719  1.00  0.00    -0.235 C  
HETATM    6  C   UNL     1      -8.597  10.869  67.045  1.00  0.00    -0.136 C  
HETATM    7  C   UNL     1      -7.270  11.204  68.154  1.00  0.00    -0.080 C  
HETATM    8  C   UNL     1      -6.825  12.078  69.588  1.00  0.00     0.085 C  
HETATM    9  O   UNL     1      -6.356  11.378  70.512  1.00  0.00    -0.301 OA 
HETATM   10  C   UNL     1      -6.595  13.665  69.807  1.00  0.00    -0.009 C  
HETATM   11  C   UNL     1      -7.461  14.900  70.450  1.00  0.00     0.589 C  
HETATM   12  C   UNL     1      -8.651  15.821  69.833  1.00  0.00     0.317 C  
HETATM   13  O   UNL     1      -8.682  16.984  70.694  1.00  0.00     3.416 OA 
HETATM   14  C   UNL     1      -8.832  16.459  68.407  1.00  0.00    -0.214 C  
HETATM   15  C   UNL     1      -9.225  15.622  67.162  1.00  0.00    -0.212 C  
HETATM   16  C   UNL     1      -7.381  17.233  71.229  1.00  0.00     5.930 C  
HETATM   17  O   UNL     1      -7.963  10.464  65.811  1.00  0.00    -0.142 OA 
HETATM   18  C   UNL     1      -6.500  15.991  70.958  1.00  0.00     1.355 C  
HETATM   19  O   UNL     1      -9.768  14.349  67.573  1.00  0.00    -0.212 OA 
HETATM   20  C   UNL     1      -8.797   9.884  64.799  1.00  0.00    -0.202 C  
HETATM   21  O   UNL     1      -9.109   7.566  65.740  1.00  0.00    -0.099 OA 
HETATM   22  C   UNL     1      -8.793  13.424  68.124  1.00  0.00    -0.180 C  
HETATM   23  C   UNL     1      -8.702   8.350  64.595  1.00  0.00     0.064 C  
HETATM   24  C   UNL     1      -9.557  12.210  69.275  1.00  0.00     0.649 C  
HETATM   25  C   UNL     1      -9.385   8.095  63.229  1.00  0.00     2.093 C  
HETATM   26  C   UNL     1      -7.526  13.453  67.089  1.00  0.00     0.061 C  
HETATM   27  O   UNL     1     -11.427   7.694  65.471  1.00  0.00     5.517 OA 
HETATM   28  C   UNL     1      -6.928  14.840  66.817  1.00  0.00     1.138 C  
HETATM   29  C   UNL     1     -11.564   7.655  64.007  1.00  0.00    19.858 C  
HETATM   30  O   UNL     1      -9.570   6.714  62.957  1.00  0.00     2.113 OA 
HETATM   31  C   UNL     1      -9.236  10.677  70.036  1.00  0.00     0.604 C  
HETATM   32  C   UNL     1      -9.309   9.159  69.428  1.00  0.00    -0.160 C  
HETATM   33  C   UNL     1     -10.840   6.379  63.549  1.00  0.00     9.388 C  
HETATM   34  C   UNL     1      -8.076  15.491  66.159  1.00  0.00     0.542 C  
HETATM   35  C   UNL     1      -5.532  14.758  66.167  1.00  0.00     5.415 C  
HETATM   36  C   UNL     1     -10.507   5.674  64.835  1.00  0.00     1.828 C  
HETATM   37  O   UNL     1      -9.993   8.294  70.408  1.00  0.00    -0.186 OA 
HETATM   38  C   UNL     1      -8.072  15.790  64.849  1.00  0.00     6.494 C  
HETATM   39  C   UNL     1      -9.788   6.934  69.906  1.00  0.00    -0.165 C  
HETATM   40  C   UNL     1      -8.293   6.903  69.775  1.00  0.00    -0.132 C  
HETATM   41  C   UNL     1     -10.754   6.723  68.664  1.00  0.00    -0.279 C  
HETATM   42  C   UNL     1     -10.377   6.107  67.278  1.00  0.00    -0.272 C  
HETATM   43  C   UNL     1      -8.130   8.176  69.014  1.00  0.00    -0.115 C  
HETATM   44  C   UNL     1      -7.273   8.062  67.980  1.00  0.00    -0.094 C  
HETATM   45  C   UNL     1     -10.338   6.839  65.835  1.00  0.00     1.040 C  
ENDROOT
BRANCH  16  46
HETATM   46  C   UNL     1      -6.769  18.521  70.653  1.00  0.00     1.291 C  
BRANCH  46  47
HETATM   47  C   UNL     1      -7.332  19.040  69.330  1.00  0.00    -0.095 C  
HETATM   48  H   UNL     1      -6.614  19.845  67.691  1.00  0.00     0.000 HD 
HETATM   49  O   UNL     1      -6.264  19.522  68.514  1.00  0.00    -0.231 OA 
BRANCH  47  50
HETATM   50  C   UNL     1      -8.426  20.113  69.476  1.00  0.00     0.737 C  
HETATM   51  N   UNL     1      -9.683  19.669  68.849  1.00  0.00    -0.402 NA 
HETATM   52  H1  UNL     1     -10.408  20.380  68.946  1.00  0.00     0.000 HD 
HETATM   53  H2  UNL     1      -9.989  18.767  69.213  1.00  0.00     0.000 HD 
ENDBRANCH  47  50
ENDBRANCH  46  47
ENDBRANCH  16  46
BRANCH  18  54
HETATM   54  O   UNL     1      -5.491  16.276  69.977  1.00  0.00    -0.150 OA 
HETATM   55  C   UNL     1      -5.156  15.192  69.115  1.00  0.00    -0.094 C  
ENDBRANCH  18  54
TORSDOF 4
ENDMDL
MODEL       74
REMARK 921   NORMALIZED FREE ENERGY PREDICTED BY IDOCK:   69.91 KCAL/MOL
REMARK 922        TOTAL FREE ENERGY PREDICTED BY IDOCK:   86.25 KCAL/MOL
REMARK 923 INTER-LIGAND FREE ENERGY PREDICTED BY IDOCK:   68.68 KCAL/MOL
REMARK 924 INTRA-LIGAND FREE ENERGY PREDICTED BY IDOCK:   17.56 KCAL/MOL
REMARK 927      BINDING AFFINITY PREDICTED BY RF-SCORE:    0.00 PKD
ROOT
HETATM    1  C   UNL     1      -7.075  17.554  70.124  1.00  0.00     1.263 C  
HETATM    2  O   UNL     1      -7.121  16.529  71.106  1.00  0.00     2.886 OA 
HETATM    3  C   UNL     1      -7.986  15.494  70.694  1.00  0.00     1.773 C  
HETATM    4  C   UNL     1      -8.131  14.399  71.690  1.00  0.00     5.140 C  
HETATM    5  C   UNL     1      -9.375  13.704  71.167  1.00  0.00     7.892 C  
HETATM    6  C   UNL     1      -9.291  13.156  69.654  1.00  0.00     1.831 C  
HETATM    7  C   UNL     1      -9.734  11.666  68.824  1.00  0.00    -0.107 C  
HETATM    8  C   UNL     1     -10.677  10.214  68.955  1.00  0.00    -0.223 C  
HETATM    9  O   UNL     1     -11.493  10.025  68.026  1.00  0.00    -0.178 OA 
HETATM   10  C   UNL     1     -10.446   8.905  69.879  1.00  0.00    -0.223 C  
HETATM   11  C   UNL     1     -11.075   8.328  71.278  1.00  0.00    -0.296 C  
HETATM   12  C   UNL     1     -10.754   8.678  72.833  1.00  0.00     0.403 C  
HETATM   13  O   UNL     1     -11.291   7.553  73.569  1.00  0.00    -0.202 OA 
HETATM   14  C   UNL     1      -9.392   8.940  73.574  1.00  0.00     1.432 C  
HETATM   15  C   UNL     1      -8.593  10.259  73.411  1.00  0.00     9.358 C  
HETATM   16  C   UNL     1     -11.243   6.374  72.764  1.00  0.00    -0.227 C  
HETATM   17  O   UNL     1      -8.030  13.552  69.068  1.00  0.00     0.025 OA 
HETATM   18  C   UNL     1     -10.945   6.794  71.305  1.00  0.00    -0.249 C  
HETATM   19  O   UNL     1      -9.441  11.286  72.854  1.00  0.00    15.031 OA 
HETATM   20  C   UNL     1      -7.547  14.869  69.368  1.00  0.00    -0.162 C  
HETATM   21  O   UNL     1      -9.017  16.249  67.854  1.00  0.00    -0.186 OA 
HETATM   22  C   UNL     1      -9.782  11.096  71.454  1.00  0.00     7.488 C  
HETATM   23  C   UNL     1      -7.662  15.937  68.250  1.00  0.00    -0.137 C  
HETATM   24  C   UNL     1     -11.367  11.913  71.008  1.00  0.00     1.704 C  
HETATM   25  C   UNL     1      -6.732  17.087  68.713  1.00  0.00    -0.193 C  
HETATM   26  C   UNL     1      -8.375  10.731  70.704  1.00  0.00     2.542 C  
HETATM   27  O   UNL     1      -9.597  17.681  69.607  1.00  0.00     0.274 OA 
HETATM   28  C   UNL     1      -7.607   9.536  71.286  1.00  0.00     0.276 C  
HETATM   29  C   UNL     1      -8.331  18.391  69.848  1.00  0.00     1.472 C  
HETATM   30  O   UNL     1      -6.855  18.249  67.908  1.00  0.00    -0.206 OA 
HETATM   31  C   UNL     1     -12.272  12.448  69.619  1.00  0.00    -0.171 C  
HETATM   32  C   UNL     1     -12.079  13.774  68.678  1.00  0.00    -0.298 C  
HETATM   33  C   UNL     1      -7.929  19.006  68.499  1.00  0.00    -0.346 C  
HETATM   34  C   UNL     1      -7.292  10.061  72.628  1.00  0.00     3.271 C  
HETATM   35  C   UNL     1      -6.525   9.010  70.322  1.00  0.00    -0.043 C  
HETATM   36  C   UNL     1      -9.124  18.756  67.620  1.00  0.00    -0.304 C  
HETATM   37  O   UNL     1     -13.405  14.376  68.439  1.00  0.00     2.325 OA 
HETATM   38  C   UNL     1      -6.041  10.392  72.988  1.00  0.00     1.624 C  
HETATM   39  C   UNL     1     -13.172  15.381  67.401  1.00  0.00     3.969 C  
HETATM   40  C   UNL     1     -12.511  14.548  66.342  1.00  0.00    -0.090 C  
HETATM   41  C   UNL     1     -12.449  16.622  68.080  1.00  0.00     2.186 C  
HETATM   42  C   UNL     1     -11.191  17.380  67.545  1.00  0.00     0.230 C  
HETATM   43  C   UNL     1     -11.486  13.895  67.208  1.00  0.00    -0.369 C  
HETATM   44  C   UNL     1     -10.261  13.875  66.646  1.00  0.00    -0.276 C  
HETATM   45  C   UNL     1      -9.712  17.451  68.199  1.00  0.00    -0.291 C  
ENDROOT
BRANCH  16  46
HETATM   46  C   UNL     1     -10.217   5.363  73.303  1.00  0.00    -0.215 C  
BRANCH  46  47
HETATM   47  C   UNL     1      -8.915   5.194  72.521  1.00  0.00    -0.130 C  
HETATM   48  H   UNL     1      -8.276   5.590  70.709  1.00  0.00     0.000 HD 
HETATM   49  O   UNL     1      -9.086   5.696  71.195  1.00  0.00    -0.143 OA 
BRANCH  47  50
HETATM   50  C   UNL     1      -8.371   3.755  72.487  1.00  0.00    -0.090 C  
HETATM   51  N   UNL     1      -7.849   3.360  73.807  1.00  0.00    -0.066 NA 
HETATM   52  H1  UNL     1      -7.488   2.405  73.784  1.00  0.00     0.000 HD 
HETATM   53  H2  UNL     1      -8.546   3.481  74.541  1.00  0.00     0.000 HD 
ENDBRANCH  47  50
ENDBRANCH  46  47
ENDBRANCH  16  46
BRANCH  18  54
HETATM   54  O   UNL     1      -9.625   6.389  70.910  1.00  0.00    -0.174 OA 
HETATM   55  C   UNL     1      -8.572   7.250  71.335  1.00  0.00    -0.115 C  
ENDBRANCH  18  54
TORSDOF 4
ENDMDL
MODEL       75
REMARK 921   NORMALIZED FREE ENERGY PREDICTED BY IDOCK:   71.23 KCAL/MOL
REMARK 922        TOTAL FREE ENERGY PREDICTED BY IDOCK:   87.87 KCAL/MOL
REMARK 923 INTER-LIGAND FREE ENERGY PREDICTED BY IDOCK:   86.10 KCAL/MOL
REMARK 924 INTRA-LIGAND FREE ENERGY PREDICTED BY IDOCK:    1.77 KCAL/MOL
REMARK 927      BINDING AFFINITY PREDICTED BY RF-SCORE:    0.00 PKD
ROOT
HETATM    1  C   UNL     1      -9.161  18.687  69.381  1.00  0.00     0.325 C  
HETATM    2  O   UNL     1      -9.425  17.640  70.304  1.00  0.00     1.680 OA 
HETATM    3  C   UNL     1      -9.258  16.385  69.681  1.00  0.00     0.246 C  
HETATM    4  C   UNL     1      -9.565  15.230  70.567  1.00  0.00     0.768 C  
HETATM    5  C   UNL     1      -9.698  14.117  69.544  1.00  0.00     0.486 C  
HETATM    6  C   UNL     1      -8.408  13.859  68.614  1.00  0.00    -0.088 C  
HETATM    7  C   UNL     1      -7.514  12.445  68.060  1.00  0.00    -0.114 C  
HETATM    8  C   UNL     1      -7.588  10.720  67.880  1.00  0.00    -0.091 C  
HETATM    9  O   UNL     1      -7.393  10.298  66.719  1.00  0.00    -0.100 OA 
HETATM   10  C   UNL     1      -7.525   9.555  69.002  1.00  0.00    -0.074 C  
HETATM   11  C   UNL     1      -8.614   8.587  69.754  1.00  0.00    -0.131 C  
HETATM   12  C   UNL     1      -9.600   8.850  71.021  1.00  0.00    -0.255 C  
HETATM   13  O   UNL     1      -9.962   7.523  71.471  1.00  0.00    -0.177 OA 
HETATM   14  C   UNL     1      -9.361   9.607  72.378  1.00  0.00     2.866 C  
HETATM   15  C   UNL     1      -9.300  11.154  72.472  1.00  0.00    16.138 C  
HETATM   16  C   UNL     1      -8.908   6.603  71.180  1.00  0.00    -0.137 C  
HETATM   17  O   UNL     1      -7.399  14.852  68.903  1.00  0.00    -0.118 OA 
HETATM   18  C   UNL     1      -7.920   7.288  70.206  1.00  0.00    -0.115 C  
HETATM   19  O   UNL     1      -9.874  11.745  71.286  1.00  0.00     6.630 OA 
HETATM   20  C   UNL     1      -7.843  16.196  69.134  1.00  0.00    -0.232 C  
HETATM   21  O   UNL     1      -8.305  16.935  66.768  1.00  0.00    -0.196 OA 
HETATM   22  C   UNL     1      -9.070  11.595  70.085  1.00  0.00     3.096 C  
HETATM   23  C   UNL     1      -7.604  17.226  67.999  1.00  0.00    -0.197 C  
HETATM   24  C   UNL     1     -10.088  11.653  68.555  1.00  0.00    -0.210 C  
HETATM   25  C   UNL     1      -7.812  18.605  68.673  1.00  0.00    -0.321 C  
HETATM   26  C   UNL     1      -7.547  12.003  70.521  1.00  0.00     3.590 C  
HETATM   27  O   UNL     1     -10.427  17.720  67.355  1.00  0.00    -0.355 OA 
HETATM   28  C   UNL     1      -6.971  11.225  71.712  1.00  0.00     4.935 C  
HETATM   29  C   UNL     1     -10.097  18.891  68.183  1.00  0.00    -0.388 C  
HETATM   30  O   UNL     1      -7.827  19.675  67.741  1.00  0.00    -0.275 OA 
HETATM   31  C   UNL     1      -9.938  11.887  66.835  1.00  0.00    -0.219 C  
HETATM   32  C   UNL     1      -9.734  13.260  65.969  1.00  0.00    -0.219 C  
HETATM   33  C   UNL     1      -9.198  19.783  67.313  1.00  0.00    -0.341 C  
HETATM   34  C   UNL     1      -7.889  11.666  72.778  1.00  0.00    17.002 C  
HETATM   35  C   UNL     1      -5.439  11.370  71.819  1.00  0.00     0.363 C  
HETATM   36  C   UNL     1      -9.246  19.129  65.959  1.00  0.00    -0.109 C  
HETATM   37  O   UNL     1     -10.642  13.221  64.807  1.00  0.00    -0.341 OA 
HETATM   38  C   UNL     1      -7.492  12.481  73.769  1.00  0.00    11.206 C  
HETATM   39  C   UNL     1     -10.216  14.342  63.968  1.00  0.00     1.614 C  
HETATM   40  C   UNL     1      -8.756  14.036  63.805  1.00  0.00     9.311 C  
HETATM   41  C   UNL     1     -10.734  15.681  64.647  1.00  0.00    -0.164 C  
HETATM   42  C   UNL     1      -9.909  16.987  64.890  1.00  0.00     1.793 C  
HETATM   43  C   UNL     1      -8.433  13.818  65.245  1.00  0.00     3.438 C  
HETATM   44  C   UNL     1      -7.291  14.425  65.624  1.00  0.00     6.820 C  
HETATM   45  C   UNL     1      -9.461  17.638  66.302  1.00  0.00    -0.215 C  
ENDROOT
BRANCH  16  46
HETATM   46  C   UNL     1      -8.219   6.109  72.462  1.00  0.00    -0.108 C  
BRANCH  46  47
HETATM   47  C   UNL     1      -9.079   5.367  73.485  1.00  0.00    -0.128 C  
HETATM   48  H   UNL     1      -9.900   3.592  73.640  1.00  0.00     0.000 HD 
HETATM   49  O   UNL     1      -9.365   4.053  73.004  1.00  0.00    -0.109 OA 
BRANCH  47  50
HETATM   50  C   UNL     1     -10.378   6.093  73.875  1.00  0.00    -0.294 C  
HETATM   51  N   UNL     1     -10.119   7.515  74.162  1.00  0.00    -0.317 NA 
HETATM   52  H1  UNL     1     -10.981   7.997  74.421  1.00  0.00     0.000 HD 
HETATM   53  H2  UNL     1      -9.648   7.978  73.385  1.00  0.00     0.000 HD 
ENDBRANCH  47  50
ENDBRANCH  46  47
ENDBRANCH  16  46
BRANCH  18  54
HETATM   54  O   UNL     1      -6.673   7.578  70.856  1.00  0.00    -0.043 OA 
HETATM   55  C   UNL     1      -5.887   6.441  71.200  1.00  0.00    -0.027 C  
ENDBRANCH  18  54
TORSDOF 4
ENDMDL
MODEL       76
REMARK 921   NORMALIZED FREE ENERGY PREDICTED BY IDOCK:   72.78 KCAL/MOL
REMARK 922        TOTAL FREE ENERGY PREDICTED BY IDOCK:   89.78 KCAL/MOL
REMARK 923 INTER-LIGAND FREE ENERGY PREDICTED BY IDOCK:   89.66 KCAL/MOL
REMARK 924 INTRA-LIGAND FREE ENERGY PREDICTED BY IDOCK:    0.12 KCAL/MOL
REMARK 927      BINDING AFFINITY PREDICTED BY RF-SCORE:    0.00 PKD
ROOT
HETATM    1  C   UNL     1      -5.251   7.956  65.939  1.00  0.00    -0.025 C  
HETATM    2  O   UNL     1      -5.177   9.299  66.398  1.00  0.00    -0.039 OA 
HETATM    3  C   UNL     1      -6.471   9.845  66.526  1.00  0.00    -0.071 C  
HETATM    4  C   UNL     1      -6.483  11.269  66.956  1.00  0.00    -0.114 C  
HETATM    5  C   UNL     1      -7.907  11.658  66.604  1.00  0.00    -0.083 C  
HETATM    6  C   UNL     1      -9.068  10.790  67.308  1.00  0.00    -0.144 C  
HETATM    7  C   UNL     1     -10.591  11.142  68.120  1.00  0.00    -0.227 C  
HETATM    8  C   UNL     1     -11.802  12.362  68.365  1.00  0.00    -0.309 C  
HETATM    9  O   UNL     1     -12.968  12.021  68.067  1.00  0.00     1.683 OA 
HETATM   10  C   UNL     1     -11.737  13.733  69.223  1.00  0.00    -0.376 C  
HETATM   11  C   UNL     1     -11.536  15.324  68.884  1.00  0.00    -0.346 C  
HETATM   12  C   UNL     1     -10.200  16.208  68.598  1.00  0.00    -0.244 C  
HETATM   13  O   UNL     1     -10.627  17.574  68.811  1.00  0.00    -0.330 OA 
HETATM   14  C   UNL     1      -8.785  16.192  69.281  1.00  0.00    -0.190 C  
HETATM   15  C   UNL     1      -7.747  15.068  69.026  1.00  0.00    -0.170 C  
HETATM   16  C   UNL     1     -11.683  17.614  69.773  1.00  0.00     3.480 C  
HETATM   17  O   UNL     1      -8.471   9.720  68.075  1.00  0.00    -0.117 OA 
HETATM   18  C   UNL     1     -12.201  16.172  69.984  1.00  0.00     0.134 C  
HETATM   19  O   UNL     1      -8.098  14.331  67.835  1.00  0.00    -0.127 OA 
HETATM   20  C   UNL     1      -7.338   9.050  67.504  1.00  0.00    -0.081 C  
HETATM   21  O   UNL     1      -8.487   7.583  65.806  1.00  0.00    -0.135 OA 
HETATM   22  C   UNL     1      -9.269  13.482  67.972  1.00  0.00    -0.209 C  
HETATM   23  C   UNL     1      -7.573   7.631  66.925  1.00  0.00    -0.102 C  
HETATM   24  C   UNL     1     -10.103  13.182  66.360  1.00  0.00    -0.281 C  
HETATM   25  C   UNL     1      -6.151   7.038  66.759  1.00  0.00    -0.037 C  
HETATM   26  C   UNL     1      -9.063  12.672  69.377  1.00  0.00     1.267 C  
HETATM   27  O   UNL     1      -7.039   8.291  64.113  1.00  0.00    -0.079 OA 
HETATM   28  C   UNL     1      -8.828  13.547  70.615  1.00  0.00     5.696 C  
HETATM   29  C   UNL     1      -5.769   7.671  64.524  1.00  0.00    -0.037 C  
HETATM   30  O   UNL     1      -6.149   5.806  66.055  1.00  0.00    -0.027 OA 
HETATM   31  C   UNL     1     -11.249  12.109  65.607  1.00  0.00    -0.381 C  
HETATM   32  C   UNL     1     -11.060  10.582  65.049  1.00  0.00     0.693 C  
HETATM   33  C   UNL     1      -6.059   6.168  64.663  1.00  0.00    -0.029 C  
HETATM   34  C   UNL     1      -7.543  14.171  70.250  1.00  0.00     1.061 C  
HETATM   35  C   UNL     1      -9.032  12.768  71.931  1.00  0.00    20.110 C  
HETATM   36  C   UNL     1      -7.454   6.020  64.120  1.00  0.00    -0.079 C  
HETATM   37  O   UNL     1     -11.713  10.479  63.731  1.00  0.00     1.798 OA 
HETATM   38  C   UNL     1      -6.396  13.861  70.877  1.00  0.00     0.122 C  
HETATM   39  C   UNL     1     -11.718   9.046  63.432  1.00  0.00    14.953 C  
HETATM   40  C   UNL     1     -12.389   8.502  64.660  1.00  0.00    19.104 C  
HETATM   41  C   UNL     1     -10.243   8.631  63.016  1.00  0.00     5.459 C  
HETATM   42  C   UNL     1      -9.436   7.396  63.533  1.00  0.00     3.104 C  
HETATM   43  C   UNL     1     -11.553   9.205  65.676  1.00  0.00     5.909 C  
HETATM   44  C   UNL     1     -11.169   8.401  66.686  1.00  0.00     1.512 C  
HETATM   45  C   UNL     1      -8.098   7.386  64.443  1.00  0.00    -0.070 C  
ENDROOT
BRANCH  16  46
HETATM   46  C   UNL     1     -11.228  18.271  71.086  1.00  0.00     3.750 C  
BRANCH  46  47
HETATM   47  C   UNL     1     -10.196  19.395  70.992  1.00  0.00     2.226 C  
HETATM   48  H   UNL     1      -9.741  21.003  72.019  1.00  0.00     0.000 HD 
HETATM   49  O   UNL     1     -10.382  20.304  72.078  1.00  0.00     2.764 OA 
BRANCH  47  50
HETATM   50  C   UNL     1     -10.193  20.150  69.651  1.00  0.00     0.206 C  
HETATM   51  N   UNL     1      -9.031  19.761  68.833  1.00  0.00    -0.205 NA 
HETATM   52  H1  UNL     1      -9.028  20.262  67.944  1.00  0.00     0.000 HD 
HETATM   53  H2  UNL     1      -8.986  18.752  68.697  1.00  0.00     0.000 HD 
ENDBRANCH  47  50
ENDBRANCH  46  47
ENDBRANCH  16  46
BRANCH  18  54
HETATM   54  O   UNL     1     -11.846  15.682  71.287  1.00  0.00    -0.339 OA 
HETATM   55  C   UNL     1     -12.935  15.217  72.080  1.00  0.00    -0.370 C  
ENDBRANCH  18  54
TORSDOF 4
ENDMDL
MODEL       77
REMARK 921   NORMALIZED FREE ENERGY PREDICTED BY IDOCK:   79.37 KCAL/MOL
REMARK 922        TOTAL FREE ENERGY PREDICTED BY IDOCK:   97.92 KCAL/MOL
REMARK 923 INTER-LIGAND FREE ENERGY PREDICTED BY IDOCK:   94.66 KCAL/MOL
REMARK 924 INTRA-LIGAND FREE ENERGY PREDICTED BY IDOCK:    3.25 KCAL/MOL
REMARK 927      BINDING AFFINITY PREDICTED BY RF-SCORE:    0.00 PKD
ROOT
HETATM    1  C   UNL     1     -10.591  19.158  66.995  1.00  0.00    -0.457 C  
HETATM    2  O   UNL     1     -11.284  18.400  67.977  1.00  0.00     0.029 OA 
HETATM    3  C   UNL     1     -11.144  17.020  67.719  1.00  0.00    -0.090 C  
HETATM    4  C   UNL     1     -11.883  16.152  68.674  1.00  0.00    -0.083 C  
HETATM    5  C   UNL     1     -11.882  14.836  67.919  1.00  0.00    -0.327 C  
HETATM    6  C   UNL     1     -10.432  14.244  67.540  1.00  0.00    -0.252 C  
HETATM    7  C   UNL     1      -9.654  12.665  67.617  1.00  0.00    -0.188 C  
HETATM    8  C   UNL     1      -9.947  10.962  67.786  1.00  0.00    -0.176 C  
HETATM    9  O   UNL     1      -9.485  10.250  66.868  1.00  0.00    -0.163 OA 
HETATM   10  C   UNL     1     -10.412  10.112  69.083  1.00  0.00    -0.242 C  
HETATM   11  C   UNL     1     -11.817   9.459  69.619  1.00  0.00     0.397 C  
HETATM   12  C   UNL     1     -13.081  10.113  70.407  1.00  0.00    -0.007 C  
HETATM   13  O   UNL     1     -13.770   8.976  70.978  1.00  0.00    -0.167 OA 
HETATM   14  C   UNL     1     -13.140  11.160  71.578  1.00  0.00    -0.489 C  
HETATM   15  C   UNL     1     -12.861  12.670  71.363  1.00  0.00    -0.261 C  
HETATM   16  C   UNL     1     -12.840   7.925  71.248  1.00  0.00    -0.217 C  
HETATM   17  O   UNL     1      -9.409  15.187  67.932  1.00  0.00    -0.184 OA 
HETATM   18  C   UNL     1     -11.510   8.259  70.533  1.00  0.00    -0.175 C  
HETATM   19  O   UNL     1     -12.951  12.995  69.959  1.00  0.00     0.296 OA 
HETATM   20  C   UNL     1      -9.679  16.580  67.720  1.00  0.00    -0.235 C  
HETATM   21  O   UNL     1      -9.287  16.744  65.234  1.00  0.00    -0.090 OA 
HETATM   22  C   UNL     1     -11.860  12.483  69.149  1.00  0.00    -0.296 C  
HETATM   23  C   UNL     1      -8.949  17.270  66.538  1.00  0.00    -0.268 C  
HETATM   24  C   UNL     1     -12.350  12.246  67.392  1.00  0.00     0.626 C  
HETATM   25  C   UNL     1      -9.124  18.786  66.804  1.00  0.00    -0.312 C  
HETATM   26  C   UNL     1     -10.492  12.853  69.966  1.00  0.00     1.546 C  
HETATM   27  O   UNL     1     -11.332  17.831  64.914  1.00  0.00    -0.508 OA 
HETATM   28  C   UNL     1     -10.432  12.348  71.414  1.00  0.00     7.821 C  
HETATM   29  C   UNL     1     -11.080  19.138  65.542  1.00  0.00     0.353 C  
HETATM   30  O   UNL     1      -8.686  19.588  65.718  1.00  0.00    -0.400 OA 
HETATM   31  C   UNL     1     -11.657  12.031  65.808  1.00  0.00    -0.353 C  
HETATM   32  C   UNL     1     -10.984  13.124  64.792  1.00  0.00    -0.336 C  
HETATM   33  C   UNL     1      -9.830  19.704  64.850  1.00  0.00     2.239 C  
HETATM   34  C   UNL     1     -11.544  13.118  72.002  1.00  0.00     2.935 C  
HETATM   35  C   UNL     1      -9.000  12.383  71.986  1.00  0.00    20.923 C  
HETATM   36  C   UNL     1      -9.576  18.741  63.723  1.00  0.00    13.160 C  
HETATM   37  O   UNL     1     -11.497  12.875  63.431  1.00  0.00    -0.475 OA 
HETATM   38  C   UNL     1     -11.336  14.117  72.877  1.00  0.00     2.077 C  
HETATM   39  C   UNL     1     -10.665  13.712  62.565  1.00  0.00     6.471 C  
HETATM   40  C   UNL     1      -9.292  13.250  62.958  1.00  0.00     5.689 C  
HETATM   41  C   UNL     1     -11.138  15.217  62.742  1.00  0.00     6.476 C  
HETATM   42  C   UNL     1     -10.225  16.466  62.966  1.00  0.00    11.074 C  
HETATM   43  C   UNL     1      -9.454  13.370  64.437  1.00  0.00     1.183 C  
HETATM   44  C   UNL     1      -8.395  13.951  65.035  1.00  0.00     5.281 C  
HETATM   45  C   UNL     1     -10.121  17.407  64.279  1.00  0.00     5.101 C  
ENDROOT
BRANCH  16  46
HETATM   46  C   UNL     1     -12.655   7.707  72.758  1.00  0.00     0.337 C  
BRANCH  46  47
HETATM   47  C   UNL     1     -12.826   6.285  73.292  1.00  0.00     2.369 C  
HETATM   48  H   UNL     1     -12.070   5.206  74.746  1.00  0.00     0.000 HD 
HETATM   49  O   UNL     1     -11.964   6.090  74.414  1.00  0.00     3.170 OA 
BRANCH  47  50
HETATM   50  C   UNL     1     -12.609   5.178  72.246  1.00  0.00     1.299 C  
HETATM   51  N   UNL     1     -12.217   5.753  70.947  1.00  0.00     0.956 NA 
HETATM   52  H1  UNL     1     -12.073   5.019  70.253  1.00  0.00     0.000 HD 
HETATM   53  H2  UNL     1     -11.398   6.355  71.033  1.00  0.00     0.000 HD 
ENDBRANCH  47  50
ENDBRANCH  46  47
ENDBRANCH  16  46
BRANCH  18  54
HETATM   54  O   UNL     1     -10.484   8.592  71.481  1.00  0.00    -0.227 OA 
HETATM   55  C   UNL     1      -9.884   7.483  72.145  1.00  0.00    -0.169 C  
ENDBRANCH  18  54
TORSDOF 4
ENDMDL
MODEL       78
REMARK 921   NORMALIZED FREE ENERGY PREDICTED BY IDOCK:   79.76 KCAL/MOL
REMARK 922        TOTAL FREE ENERGY PREDICTED BY IDOCK:   98.39 KCAL/MOL
REMARK 923 INTER-LIGAND FREE ENERGY PREDICTED BY IDOCK:   97.79 KCAL/MOL
REMARK 924 INTRA-LIGAND FREE ENERGY PREDICTED BY IDOCK:    0.60 KCAL/MOL
REMARK 927      BINDING AFFINITY PREDICTED BY RF-SCORE:    0.00 PKD
ROOT
HETATM    1  C   UNL     1     -12.019  18.356  70.755  1.00  0.00     9.213 C  
HETATM    2  O   UNL     1     -12.372  17.330  69.838  1.00  0.00     2.876 OA 
HETATM    3  C   UNL     1     -11.426  16.285  69.884  1.00  0.00    -0.196 C  
HETATM    4  C   UNL     1     -11.695  15.188  68.915  1.00  0.00    -0.357 C  
HETATM    5  C   UNL     1     -10.354  14.478  68.914  1.00  0.00    -0.237 C  
HETATM    6  C   UNL     1      -9.846  13.932  70.342  1.00  0.00     2.638 C  
HETATM    7  C   UNL     1      -9.130  12.437  70.940  1.00  0.00     9.945 C  
HETATM    8  C   UNL     1      -8.329  10.973  70.458  1.00  0.00     2.898 C  
HETATM    9  O   UNL     1      -7.217  10.774  70.994  1.00  0.00     0.672 OA 
HETATM   10  C   UNL     1      -8.918   9.667  69.703  1.00  0.00    -0.215 C  
HETATM   11  C   UNL     1      -8.892   9.082  68.172  1.00  0.00    -0.133 C  
HETATM   12  C   UNL     1      -9.792   9.437  66.864  1.00  0.00    -0.201 C  
HETATM   13  O   UNL     1      -9.598   8.306  65.983  1.00  0.00    -0.180 OA 
HETATM   14  C   UNL     1     -11.331   9.715  66.714  1.00  0.00     1.020 C  
HETATM   15  C   UNL     1     -11.989  11.043  67.170  1.00  0.00     0.958 C  
HETATM   16  C   UNL     1      -9.340   7.127  66.748  1.00  0.00    -0.161 C  
HETATM   17  O   UNL     1     -10.772  14.343  71.372  1.00  0.00     0.986 OA 
HETATM   18  C   UNL     1      -9.039   7.550  68.205  1.00  0.00    -0.132 C  
HETATM   19  O   UNL     1     -10.979  12.060  67.347  1.00  0.00    -0.236 OA 
HETATM   20  C   UNL     1     -11.320  15.665  71.279  1.00  0.00    -0.390 C  
HETATM   21  O   UNL     1      -9.359  17.027  72.092  1.00  0.00     9.033 OA 
HETATM   22  C   UNL     1     -10.120  11.866  68.503  1.00  0.00    -0.206 C  
HETATM   23  C   UNL     1     -10.765  16.732  72.258  1.00  0.00     2.879 C  
HETATM   24  C   UNL     1      -8.477  12.664  68.290  1.00  0.00    -0.163 C  
HETATM   25  C   UNL     1     -11.789  17.893  72.190  1.00  0.00     3.987 C  
HETATM   26  C   UNL     1     -11.126  11.518  69.745  1.00  0.00    -0.156 C  
HETATM   27  O   UNL     1      -9.495  18.453  70.245  1.00  0.00     1.542 OA 
HETATM   28  C   UNL     1     -12.073  10.333  69.514  1.00  0.00    -0.025 C  
HETATM   29  C   UNL     1     -10.746  19.177  70.514  1.00  0.00     2.447 C  
HETATM   30  O   UNL     1     -11.348  19.054  72.878  1.00  0.00     2.999 OA 
HETATM   31  C   UNL     1      -7.095  13.188  69.213  1.00  0.00     0.086 C  
HETATM   32  C   UNL     1      -6.891  14.515  70.148  1.00  0.00    -0.026 C  
HETATM   33  C   UNL     1     -10.582  19.798  71.911  1.00  0.00     4.247 C  
HETATM   34  C   UNL     1     -12.882  10.861  68.400  1.00  0.00     2.758 C  
HETATM   35  C   UNL     1     -12.698   9.819  70.828  1.00  0.00    -0.251 C  
HETATM   36  C   UNL     1      -9.142  19.532  72.254  1.00  0.00     4.591 C  
HETATM   37  O   UNL     1      -5.571  15.102  69.847  1.00  0.00    -0.108 OA 
HETATM   38  C   UNL     1     -14.171  11.208  68.557  1.00  0.00    11.694 C  
HETATM   39  C   UNL     1      -5.368  16.109  70.889  1.00  0.00    -0.082 C  
HETATM   40  C   UNL     1      -5.571  15.284  72.126  1.00  0.00     0.441 C  
HETATM   41  C   UNL     1      -6.285  17.359  70.541  1.00  0.00     0.617 C  
HETATM   42  C   UNL     1      -7.225  18.132  71.522  1.00  0.00     5.725 C  
HETATM   43  C   UNL     1      -6.861  14.644  71.733  1.00  0.00     1.699 C  
HETATM   44  C   UNL     1      -7.768  14.639  72.728  1.00  0.00     6.160 C  
HETATM   45  C   UNL     1      -8.841  18.221  71.497  1.00  0.00     9.675 C  
ENDROOT
BRANCH  16  46
HETATM   46  C   UNL     1     -10.506   6.128  66.657  1.00  0.00    -0.267 C  
BRANCH  46  47
HETATM   47  C   UNL     1     -10.355   4.954  65.691  1.00  0.00    -0.124 C  
HETATM   48  H   UNL     1      -9.844   3.063  65.811  1.00  0.00     0.000 HD 
HETATM   49  O   UNL     1      -9.937   3.794  66.412  1.00  0.00    -0.124 OA 
BRANCH  47  50
HETATM   50  C   UNL     1      -9.413   5.219  64.503  1.00  0.00     0.430 C  
HETATM   51  N   UNL     1      -8.052   5.530  64.973  1.00  0.00    -0.113 NA 
HETATM   52  H1  UNL     1      -7.427   5.705  64.185  1.00  0.00     0.000 HD 
HETATM   53  H2  UNL     1      -7.688   4.801  65.587  1.00  0.00     0.000 HD 
ENDBRANCH  47  50
ENDBRANCH  46  47
ENDBRANCH  16  46
BRANCH  18  54
HETATM   54  O   UNL     1     -10.104   7.162  69.086  1.00  0.00    -0.174 OA 
HETATM   55  C   UNL     1      -9.909   5.927  69.770  1.00  0.00    -0.169 C  
ENDBRANCH  18  54
TORSDOF 4
ENDMDL
MODEL       79
REMARK 921   NORMALIZED FREE ENERGY PREDICTED BY IDOCK:   81.32 KCAL/MOL
REMARK 922        TOTAL FREE ENERGY PREDICTED BY IDOCK:  100.32 KCAL/MOL
REMARK 923 INTER-LIGAND FREE ENERGY PREDICTED BY IDOCK:   98.33 KCAL/MOL
REMARK 924 INTRA-LIGAND FREE ENERGY PREDICTED BY IDOCK:    1.99 KCAL/MOL
REMARK 927      BINDING AFFINITY PREDICTED BY RF-SCORE:    0.00 PKD
ROOT
HETATM    1  C   UNL     1     -12.301  17.511  69.941  1.00  0.00     6.524 C  
HETATM    2  O   UNL     1     -12.537  16.162  69.561  1.00  0.00     0.013 OA 
HETATM    3  C   UNL     1     -11.603  15.758  68.584  1.00  0.00    -0.386 C  
HETATM    4  C   UNL     1     -11.810  14.369  68.094  1.00  0.00    -0.362 C  
HETATM    5  C   UNL     1     -10.971  14.389  66.829  1.00  0.00    -0.314 C  
HETATM    6  C   UNL     1      -9.413  14.750  67.024  1.00  0.00    -0.231 C  
HETATM    7  C   UNL     1      -7.884  14.106  66.431  1.00  0.00     1.373 C  
HETATM    8  C   UNL     1      -7.164  13.089  65.222  1.00  0.00     7.254 C  
HETATM    9  O   UNL     1      -6.279  13.635  64.527  1.00  0.00    14.898 OA 
HETATM   10  C   UNL     1      -7.196  11.478  65.066  1.00  0.00     1.595 C  
HETATM   11  C   UNL     1      -8.021  10.402  64.145  1.00  0.00    -0.073 C  
HETATM   12  C   UNL     1      -9.509   9.763  64.300  1.00  0.00    -0.129 C  
HETATM   13  O   UNL     1      -9.478   8.585  63.460  1.00  0.00     1.274 OA 
HETATM   14  C   UNL     1     -10.286   9.249  65.566  1.00  0.00     0.376 C  
HETATM   15  C   UNL     1     -10.902  10.210  66.615  1.00  0.00    -0.014 C  
HETATM   16  C   UNL     1      -8.150   8.061  63.399  1.00  0.00    -0.101 C  
HETATM   17  O   UNL     1      -9.167  15.088  68.408  1.00  0.00    -0.181 OA 
HETATM   18  C   UNL     1      -7.183   9.121  63.977  1.00  0.00    -0.096 C  
HETATM   19  O   UNL     1     -11.007  11.541  66.066  1.00  0.00    -0.291 OA 
HETATM   20  C   UNL     1     -10.162  15.871  69.083  1.00  0.00    -0.234 C  
HETATM   21  O   UNL     1      -9.665  18.154  68.134  1.00  0.00    -0.296 OA 
HETATM   22  C   UNL     1      -9.738  12.229  65.899  1.00  0.00    -0.235 C  
HETATM   23  C   UNL     1      -9.836  17.366  69.334  1.00  0.00     0.042 C  
HETATM   24  C   UNL     1      -9.808  13.506  64.578  1.00  0.00     0.181 C  
HETATM   25  C   UNL     1     -10.876  17.820  70.388  1.00  0.00     1.641 C  
HETATM   26  C   UNL     1      -8.931  12.009  67.304  1.00  0.00    -0.180 C  
HETATM   27  O   UNL     1     -11.913  18.492  67.589  1.00  0.00     1.617 OA 
HETATM   28  C   UNL     1      -8.751  10.549  67.741  1.00  0.00    -0.122 C  
HETATM   29  C   UNL     1     -12.527  18.633  68.919  1.00  0.00     8.682 C  
HETATM   30  O   UNL     1     -10.862  19.223  70.605  1.00  0.00     1.774 OA 
HETATM   31  C   UNL     1      -8.948  14.906  63.999  1.00  0.00     8.606 C  
HETATM   32  C   UNL     1      -8.917  16.438  64.572  1.00  0.00     5.519 C  
HETATM   33  C   UNL     1     -11.762  19.766  69.620  1.00  0.00     5.700 C  
HETATM   34  C   UNL     1     -10.160  10.168  67.954  1.00  0.00    -0.207 C  
HETATM   35  C   UNL     1      -7.671  10.392  68.831  1.00  0.00    -0.111 C  
HETATM   36  C   UNL     1     -10.879  20.325  68.537  1.00  0.00     0.397 C  
HETATM   37  O   UNL     1      -9.041  17.368  63.433  1.00  0.00    13.194 OA 
HETATM   38  C   UNL     1     -10.660   9.942  69.181  1.00  0.00    -0.240 C  
HETATM   39  C   UNL     1      -8.750  18.686  63.999  1.00  0.00    10.793 C  
HETATM   40  C   UNL     1      -7.414  18.434  64.634  1.00  0.00     3.256 C  
HETATM   41  C   UNL     1     -10.018  19.145  64.838  1.00  0.00     2.630 C  
HETATM   42  C   UNL     1     -10.018  19.748  66.280  1.00  0.00    -0.581 C  
HETATM   43  C   UNL     1      -7.777  17.195  65.383  1.00  0.00     1.582 C  
HETATM   44  C   UNL     1      -7.317  17.194  66.649  1.00  0.00    -0.285 C  
HETATM   45  C   UNL     1     -10.617  19.099  67.636  1.00  0.00    -0.451 C  
ENDROOT
BRANCH  16  46
HETATM   46  C   UNL     1      -8.041   6.711  64.127  1.00  0.00    -0.031 C  
BRANCH  46  47
HETATM   47  C   UNL     1      -9.315   5.878  64.265  1.00  0.00     1.059 C  
HETATM   48  H   UNL     1     -10.628   5.066  63.055  1.00  0.00     0.000 HD 
HETATM   49  O   UNL     1      -9.835   5.583  62.968  1.00  0.00     0.968 OA 
BRANCH  47  50
HETATM   50  C   UNL     1     -10.402   6.515  65.150  1.00  0.00     2.988 C  
HETATM   51  N   UNL     1      -9.913   6.704  66.527  1.00  0.00    -0.356 NA 
HETATM   52  H1  UNL     1     -10.634   7.126  67.114  1.00  0.00     0.000 HD 
HETATM   53  H2  UNL     1      -9.047   7.242  66.550  1.00  0.00     0.000 HD 
ENDBRANCH  47  50
ENDBRANCH  46  47
ENDBRANCH  16  46
BRANCH  18  54
HETATM   54  O   UNL     1      -6.646   8.697  65.239  1.00  0.00    -0.063 OA 
HETATM   55  C   UNL     1      -5.285   9.050  65.471  1.00  0.00    -0.037 C  
ENDBRANCH  18  54
TORSDOF 4
ENDMDL
MODEL       80
REMARK 921   NORMALIZED FREE ENERGY PREDICTED BY IDOCK:   89.90 KCAL/MOL
REMARK 922        TOTAL FREE ENERGY PREDICTED BY IDOCK:  110.90 KCAL/MOL
REMARK 923 INTER-LIGAND FREE ENERGY PREDICTED BY IDOCK:  100.89 KCAL/MOL
REMARK 924 INTRA-LIGAND FREE ENERGY PREDICTED BY IDOCK:   10.01 KCAL/MOL
REMARK 927      BINDING AFFINITY PREDICTED BY RF-SCORE:    0.00 PKD
ROOT
HETATM    1  C   UNL     1      -6.191  14.364  71.028  1.00  0.00    -0.012 C  
HETATM    2  O   UNL     1      -6.604  13.084  71.486  1.00  0.00     1.273 OA 
HETATM    3  C   UNL     1      -7.634  12.578  70.665  1.00  0.00     4.482 C  
HETATM    4  C   UNL     1      -8.161  11.259  71.106  1.00  0.00     6.456 C  
HETATM    5  C   UNL     1      -9.459  11.197  70.323  1.00  0.00     2.110 C  
HETATM    6  C   UNL     1      -9.321  11.305  68.722  1.00  0.00    -0.128 C  
HETATM    7  C   UNL     1     -10.002  10.456  67.336  1.00  0.00    -0.226 C  
HETATM    8  C   UNL     1     -11.275   9.388  66.831  1.00  0.00     0.755 C  
HETATM    9  O   UNL     1     -11.990   9.817  65.899  1.00  0.00     3.521 OA 
HETATM   10  C   UNL     1     -11.482   7.809  67.120  1.00  0.00     1.346 C  
HETATM   11  C   UNL     1     -12.401   6.911  68.138  1.00  0.00     4.081 C  
HETATM   12  C   UNL     1     -12.202   6.505  69.700  1.00  0.00     0.831 C  
HETATM   13  O   UNL     1     -13.081   5.370  69.886  1.00  0.00     7.295 OA 
HETATM   14  C   UNL     1     -10.921   6.067  70.499  1.00  0.00    -0.388 C  
HETATM   15  C   UNL     1      -9.814   7.070  70.917  1.00  0.00    -0.185 C  
HETATM   16  C   UNL     1     -13.217   4.649  68.661  1.00  0.00    23.396 C  
HETATM   17  O   UNL     1      -7.940  11.547  68.373  1.00  0.00    -0.129 OA 
HETATM   18  C   UNL     1     -12.648   5.523  67.518  1.00  0.00     9.715 C  
HETATM   19  O   UNL     1     -10.314   8.422  70.833  1.00  0.00    -0.189 OA 
HETATM   20  C   UNL     1      -7.196  12.447  69.206  1.00  0.00     0.143 C  
HETATM   21  O   UNL     1      -8.090  14.660  68.395  1.00  0.00    -0.133 OA 
HETATM   22  C   UNL     1     -10.514   8.911  69.480  1.00  0.00    -0.226 C  
HETATM   23  C   UNL     1      -6.910  13.862  68.640  1.00  0.00    -0.101 C  
HETATM   24  C   UNL     1     -11.788  10.234  69.399  1.00  0.00    -0.109 C  
HETATM   25  C   UNL     1      -5.797  14.430  69.556  1.00  0.00    -0.099 C  
HETATM   26  C   UNL     1      -9.153   8.514  68.664  1.00  0.00    -0.139 C  
HETATM   27  O   UNL     1      -8.524  15.364  70.581  1.00  0.00     1.067 OA 
HETATM   28  C   UNL     1      -8.774   7.027  68.698  1.00  0.00    -0.123 C  
HETATM   29  C   UNL     1      -7.165  15.546  71.114  1.00  0.00     2.212 C  
HETATM   30  O   UNL     1      -5.535  15.804  69.314  1.00  0.00    -0.105 OA 
HETATM   31  C   UNL     1     -12.357  11.506  68.354  1.00  0.00     0.396 C  
HETATM   32  C   UNL     1     -11.736  12.992  68.062  1.00  0.00    -0.355 C  
HETATM   33  C   UNL     1      -6.461  16.518  70.155  1.00  0.00     0.211 C  
HETATM   34  C   UNL     1      -8.511   6.861  70.140  1.00  0.00    -0.140 C  
HETATM   35  C   UNL     1      -7.738   6.662  67.615  1.00  0.00    -0.107 C  
HETATM   36  C   UNL     1      -7.562  16.976  69.237  1.00  0.00    -0.055 C  
HETATM   37  O   UNL     1     -12.837  13.973  68.082  1.00  0.00     0.634 OA 
HETATM   38  C   UNL     1      -7.272   6.667  70.621  1.00  0.00    -0.074 C  
HETATM   39  C   UNL     1     -12.242  15.207  67.567  1.00  0.00     0.397 C  
HETATM   40  C   UNL     1     -11.674  14.726  66.264  1.00  0.00    -0.260 C  
HETATM   41  C   UNL     1     -11.333  15.824  68.714  1.00  0.00    -0.362 C  
HETATM   42  C   UNL     1      -9.873  16.362  68.564  1.00  0.00    -0.231 C  
HETATM   43  C   UNL     1     -10.952  13.530  66.787  1.00  0.00    -0.297 C  
HETATM   44  C   UNL     1      -9.708  13.407  66.284  1.00  0.00    -0.280 C  
HETATM   45  C   UNL     1      -8.514  15.760  69.206  1.00  0.00    -0.258 C  
ENDROOT
BRANCH  16  46
HETATM   46  C   UNL     1     -12.540   3.271  68.736  1.00  0.00    25.554 C  
BRANCH  46  47
HETATM   47  C   UNL     1     -11.014   3.230  68.678  1.00  0.00     5.532 C  
HETATM   48  H   UNL     1      -9.576   4.424  68.079  1.00  0.00     0.000 HD 
HETATM   49  O   UNL     1     -10.525   4.449  68.116  1.00  0.00     0.215 OA 
BRANCH  47  50
HETATM   50  C   UNL     1     -10.434   2.020  67.925  1.00  0.00     3.005 C  
HETATM   51  N   UNL     1      -9.279   2.418  67.100  1.00  0.00    -0.308 NA 
HETATM   52  H1  UNL     1      -8.895   1.616  66.601  1.00  0.00     0.000 HD 
HETATM   53  H2  UNL     1      -8.567   2.895  67.653  1.00  0.00     0.000 HD 
ENDBRANCH  47  50
ENDBRANCH  46  47
ENDBRANCH  16  46
BRANCH  18  54
HETATM   54  O   UNL     1     -11.425   4.972  67.006  1.00  0.00     1.402 OA 
HETATM   55  C   UNL     1     -10.525   5.915  66.432  1.00  0.00    -0.117 C  
ENDBRANCH  18  54
TORSDOF 4
ENDMDL
MODEL       81
REMARK 921   NORMALIZED FREE ENERGY PREDICTED BY IDOCK:   90.50 KCAL/MOL
REMARK 922        TOTAL FREE ENERGY PREDICTED BY IDOCK:  111.65 KCAL/MOL
REMARK 923 INTER-LIGAND FREE ENERGY PREDICTED BY IDOCK:  105.09 KCAL/MOL
REMARK 924 INTRA-LIGAND FREE ENERGY PREDICTED BY IDOCK:    6.56 KCAL/MOL
REMARK 927      BINDING AFFINITY PREDICTED BY RF-SCORE:    0.00 PKD
ROOT
HETATM    1  C   UNL     1      -5.869   7.751  68.527  1.00  0.00    -0.031 C  
HETATM    2  O   UNL     1      -5.861   8.939  69.306  1.00  0.00    -0.035 OA 
HETATM    3  C   UNL     1      -6.857   9.828  68.853  1.00  0.00    -0.054 C  
HETATM    4  C   UNL     1      -6.885  11.123  69.586  1.00  0.00    -0.117 C  
HETATM    5  C   UNL     1      -7.721  11.965  68.640  1.00  0.00    -0.113 C  
HETATM    6  C   UNL     1      -9.197  11.405  68.318  1.00  0.00    -0.183 C  
HETATM    7  C   UNL     1     -10.817  12.093  68.227  1.00  0.00    -0.256 C  
HETATM    8  C   UNL     1     -11.705  13.580  68.100  1.00  0.00    -0.361 C  
HETATM    9  O   UNL     1     -12.495  13.646  67.133  1.00  0.00    -0.263 OA 
HETATM   10  C   UNL     1     -11.938  14.746  69.198  1.00  0.00    -0.317 C  
HETATM   11  C   UNL     1     -11.309  16.232  69.486  1.00  0.00    -0.276 C  
HETATM   12  C   UNL     1      -9.945  16.701  70.237  1.00  0.00     0.946 C  
HETATM   13  O   UNL     1     -10.176  18.094  70.555  1.00  0.00     1.264 OA 
HETATM   14  C   UNL     1      -9.251  16.173  71.545  1.00  0.00     5.601 C  
HETATM   15  C   UNL     1      -8.476  14.831  71.595  1.00  0.00     4.850 C  
HETATM   16  C   UNL     1     -11.572  18.328  70.749  1.00  0.00     5.656 C  
HETATM   17  O   UNL     1      -9.372  10.116  68.950  1.00  0.00    -0.160 OA 
HETATM   18  C   UNL     1     -12.347  17.094  70.229  1.00  0.00     4.509 C  
HETATM   19  O   UNL     1      -8.159  14.392  70.256  1.00  0.00     0.787 OA 
HETATM   20  C   UNL     1      -8.256   9.215  68.930  1.00  0.00    -0.112 C  
HETATM   21  O   UNL     1      -8.382   8.390  66.550  1.00  0.00    -0.106 OA 
HETATM   22  C   UNL     1      -9.300  13.925  69.487  1.00  0.00     0.870 C  
HETATM   23  C   UNL     1      -8.331   8.018  67.947  1.00  0.00    -0.129 C  
HETATM   24  C   UNL     1      -9.035  14.097  67.676  1.00  0.00    -0.192 C  
HETATM   25  C   UNL     1      -7.220   7.050  68.426  1.00  0.00    -0.088 C  
HETATM   26  C   UNL     1     -10.119  12.918  70.482  1.00  0.00     4.448 C  
HETATM   27  O   UNL     1      -6.114   8.838  66.203  1.00  0.00    -0.050 OA 
HETATM   28  C   UNL     1     -10.531  13.518  71.834  1.00  0.00     7.283 C  
HETATM   29  C   UNL     1      -5.473   7.817  67.047  1.00  0.00    -0.032 C  
HETATM   30  O   UNL     1      -7.003   5.975  67.525  1.00  0.00    -0.065 OA 
HETATM   31  C   UNL     1      -9.659  13.525  66.154  1.00  0.00    -0.219 C  
HETATM   32  C   UNL     1      -9.433  12.095  65.389  1.00  0.00    -0.021 C  
HETATM   33  C   UNL     1      -6.036   6.466  66.577  1.00  0.00    -0.028 C  
HETATM   34  C   UNL     1      -9.202  13.766  72.422  1.00  0.00    12.206 C  
HETATM   35  C   UNL     1     -11.612  12.675  72.542  1.00  0.00     5.341 C  
HETATM   36  C   UNL     1      -6.825   6.816  65.346  1.00  0.00    -0.051 C  
HETATM   37  O   UNL     1      -9.170  12.363  63.963  1.00  0.00     0.362 OA 
HETATM   38  C   UNL     1      -8.734  13.048  73.456  1.00  0.00    17.535 C  
HETATM   39  C   UNL     1      -9.236  11.048  63.322  1.00  0.00    -0.275 C  
HETATM   40  C   UNL     1     -10.589  10.580  63.773  1.00  0.00     0.309 C  
HETATM   41  C   UNL     1      -7.903  10.265  63.682  1.00  0.00    -0.125 C  
HETATM   42  C   UNL     1      -7.791   8.788  64.185  1.00  0.00    -0.139 C  
HETATM   43  C   UNL     1     -10.427  10.864  65.228  1.00  0.00    -0.299 C  
HETATM   44  C   UNL     1     -10.869   9.859  66.010  1.00  0.00     0.314 C  
HETATM   45  C   UNL     1      -7.292   8.260  65.632  1.00  0.00    -0.072 C  
ENDROOT
BRANCH  16  46
HETATM   46  C   UNL     1     -11.894  18.645  72.219  1.00  0.00     7.176 C  
BRANCH  46  47
HETATM   47  C   UNL     1     -10.868  18.227  73.272  1.00  0.00     2.790 C  
HETATM   48  H   UNL     1     -10.023  19.043  74.844  1.00  0.00     0.000 HD 
HETATM   49  O   UNL     1     -10.661  19.302  74.189  1.00  0.00     2.469 OA 
BRANCH  47  50
HETATM   50  C   UNL     1      -9.525  17.740  72.700  1.00  0.00    11.920 C  
HETATM   51  N   UNL     1      -8.449  17.879  73.697  1.00  0.00    12.314 NA 
HETATM   52  H1  UNL     1      -7.558  17.556  73.317  1.00  0.00     0.000 HD 
HETATM   53  H2  UNL     1      -8.680  17.405  74.570  1.00  0.00     0.000 HD 
ENDBRANCH  47  50
ENDBRANCH  46  47
ENDBRANCH  16  46
BRANCH  18  54
HETATM   54  O   UNL     1     -12.934  16.359  71.314  1.00  0.00     0.295 OA 
HETATM   55  C   UNL     1     -14.062  15.560  70.967  1.00  0.00     0.011 C  
ENDBRANCH  18  54
TORSDOF 4
ENDMDL
MODEL       82
REMARK 921   NORMALIZED FREE ENERGY PREDICTED BY IDOCK:   90.96 KCAL/MOL
REMARK 922        TOTAL FREE ENERGY PREDICTED BY IDOCK:  112.22 KCAL/MOL
REMARK 923 INTER-LIGAND FREE ENERGY PREDICTED BY IDOCK:  105.16 KCAL/MOL
REMARK 924 INTRA-LIGAND FREE ENERGY PREDICTED BY IDOCK:    7.05 KCAL/MOL
REMARK 927      BINDING AFFINITY PREDICTED BY RF-SCORE:    0.00 PKD
ROOT
HETATM    1  C   UNL     1     -12.012  16.301  67.263  1.00  0.00     1.077 C  
HETATM    2  O   UNL     1     -10.938  15.371  67.272  1.00  0.00    -0.316 OA 
HETATM    3  C   UNL     1     -11.034  14.523  68.395  1.00  0.00    -0.245 C  
HETATM    4  C   UNL     1      -9.917  13.547  68.508  1.00  0.00    -0.202 C  
HETATM    5  C   UNL     1     -10.074  13.104  69.951  1.00  0.00     1.763 C  
HETATM    6  C   UNL     1     -11.500  12.460  70.337  1.00  0.00     0.376 C  
HETATM    7  C   UNL     1     -12.044  11.051  71.246  1.00  0.00    -0.280 C  
HETATM    8  C   UNL     1     -11.552   9.846  72.394  1.00  0.00     1.413 C  
HETATM    9  O   UNL     1     -12.252   9.780  73.428  1.00  0.00     2.347 OA 
HETATM   10  C   UNL     1     -10.563   8.577  72.209  1.00  0.00    -0.408 C  
HETATM   11  C   UNL     1      -9.006   8.235  72.588  1.00  0.00    -0.316 C  
HETATM   12  C   UNL     1      -7.606   8.604  71.844  1.00  0.00    -0.064 C  
HETATM   13  O   UNL     1      -6.653   7.667  72.399  1.00  0.00    -0.053 OA 
HETATM   14  C   UNL     1      -7.216   8.612  70.321  1.00  0.00    -0.049 C  
HETATM   15  C   UNL     1      -7.694   9.716  69.343  1.00  0.00    -0.101 C  
HETATM   16  C   UNL     1      -7.314   6.457  72.773  1.00  0.00    -0.090 C  
HETATM   17  O   UNL     1     -12.388  12.540  69.200  1.00  0.00    -0.084 OA 
HETATM   18  C   UNL     1      -8.840   6.713  72.755  1.00  0.00    -0.122 C  
HETATM   19  O   UNL     1      -8.161  10.865  70.083  1.00  0.00     0.407 OA 
HETATM   20  C   UNL     1     -12.347  13.738  68.413  1.00  0.00     0.051 C  
HETATM   21  O   UNL     1     -13.644  15.305  69.904  1.00  0.00     0.509 OA 
HETATM   22  C   UNL     1      -9.421  10.667  70.777  1.00  0.00     2.441 C  
HETATM   23  C   UNL     1     -13.523  14.735  68.580  1.00  0.00     4.034 C  
HETATM   24  C   UNL     1      -9.595  11.776  72.233  1.00  0.00    18.499 C  
HETATM   25  C   UNL     1     -13.404  15.686  67.362  1.00  0.00     4.856 C  
HETATM   26  C   UNL     1     -10.418   9.964  69.687  1.00  0.00    -0.273 C  
HETATM   27  O   UNL     1     -11.973  16.933  69.761  1.00  0.00     0.807 OA 
HETATM   28  C   UNL     1      -9.891   8.670  69.050  1.00  0.00    -0.184 C  
HETATM   29  C   UNL     1     -12.095  17.369  68.361  1.00  0.00     2.390 C  
HETATM   30  O   UNL     1     -14.285  16.795  67.444  1.00  0.00     7.569 OA 
HETATM   31  C   UNL     1     -10.801  12.406  73.321  1.00  0.00    16.011 C  
HETATM   32  C   UNL     1     -11.901  13.599  73.103  1.00  0.00     2.404 C  
HETATM   33  C   UNL     1     -13.559  17.799  68.179  1.00  0.00     9.350 C  
HETATM   34  C   UNL     1      -8.718   9.197  68.329  1.00  0.00    -0.129 C  
HETATM   35  C   UNL     1     -11.007   7.866  68.352  1.00  0.00     0.150 C  
HETATM   36  C   UNL     1     -14.121  17.757  69.574  1.00  0.00    16.677 C  
HETATM   37  O   UNL     1     -11.907  14.456  74.304  1.00  0.00    -0.035 OA 
HETATM   38  C   UNL     1      -8.680   9.274  66.989  1.00  0.00    -0.131 C  
HETATM   39  C   UNL     1     -13.074  15.322  74.134  1.00  0.00     0.431 C  
HETATM   40  C   UNL     1     -14.155  14.303  73.919  1.00  0.00     5.166 C  
HETATM   41  C   UNL     1     -12.711  16.418  73.044  1.00  0.00    -0.285 C  
HETATM   42  C   UNL     1     -13.589  16.855  71.826  1.00  0.00     5.402 C  
HETATM   43  C   UNL     1     -13.470  13.501  72.864  1.00  0.00    -0.160 C  
HETATM   44  C   UNL     1     -14.281  13.184  71.836  1.00  0.00     0.208 C  
HETATM   45  C   UNL     1     -13.287  16.647  70.250  1.00  0.00     5.004 C  
ENDROOT
BRANCH  16  46
HETATM   46  C   UNL     1      -6.907   5.285  71.866  1.00  0.00    -0.065 C  
BRANCH  46  47
HETATM   47  C   UNL     1      -7.862   4.902  70.736  1.00  0.00    -0.078 C  
HETATM   48  H   UNL     1      -9.093   3.425  70.347  1.00  0.00     0.000 HD 
HETATM   49  O   UNL     1      -8.499   3.663  71.050  1.00  0.00    -0.069 OA 
BRANCH  47  50
HETATM   50  C   UNL     1      -7.211   4.836  69.343  1.00  0.00    -0.052 C  
HETATM   51  N   UNL     1      -7.186   3.451  68.840  1.00  0.00    -0.049 NA 
HETATM   52  H1  UNL     1      -6.755   3.408  67.917  1.00  0.00     0.000 HD 
HETATM   53  H2  UNL     1      -8.116   3.032  68.842  1.00  0.00     0.000 HD 
ENDBRANCH  47  50
ENDBRANCH  46  47
ENDBRANCH  16  46
BRANCH  18  54
HETATM   54  O   UNL     1      -9.468   6.012  71.672  1.00  0.00    -0.149 OA 
HETATM   55  C   UNL     1     -10.039   6.839  70.661  1.00  0.00    -0.187 C  
ENDBRANCH  18  54
TORSDOF 4
ENDMDL
MODEL       83
REMARK 921   NORMALIZED FREE ENERGY PREDICTED BY IDOCK:   92.97 KCAL/MOL
REMARK 922        TOTAL FREE ENERGY PREDICTED BY IDOCK:  114.69 KCAL/MOL
REMARK 923 INTER-LIGAND FREE ENERGY PREDICTED BY IDOCK:  104.24 KCAL/MOL
REMARK 924 INTRA-LIGAND FREE ENERGY PREDICTED BY IDOCK:   10.46 KCAL/MOL
REMARK 927      BINDING AFFINITY PREDICTED BY RF-SCORE:    0.00 PKD
ROOT
HETATM    1  C   UNL     1      -5.852  13.158  64.450  1.00  0.00    13.873 C  
HETATM    2  O   UNL     1      -5.539  11.796  64.707  1.00  0.00     1.205 OA 
HETATM    3  C   UNL     1      -6.150  11.372  65.906  1.00  0.00     0.263 C  
HETATM    4  C   UNL     1      -5.833   9.966  66.277  1.00  0.00    -0.059 C  
HETATM    5  C   UNL     1      -6.261   9.955  67.733  1.00  0.00    -0.055 C  
HETATM    6  C   UNL     1      -7.800  10.338  68.017  1.00  0.00    -0.100 C  
HETATM    7  C   UNL     1      -9.097   9.691  69.018  1.00  0.00    -0.148 C  
HETATM    8  C   UNL     1      -9.447   8.645  70.360  1.00  0.00    -0.170 C  
HETATM    9  O   UNL     1     -10.077   9.178  71.299  1.00  0.00    -0.283 OA 
HETATM   10  C   UNL     1      -9.400   7.030  70.457  1.00  0.00    -0.159 C  
HETATM   11  C   UNL     1      -8.359   5.919  71.065  1.00  0.00    -0.123 C  
HETATM   12  C   UNL     1      -6.996   5.270  70.460  1.00  0.00    -0.052 C  
HETATM   13  O   UNL     1      -6.799   4.067  71.240  1.00  0.00    -0.030 OA 
HETATM   14  C   UNL     1      -6.636   4.787  69.008  1.00  0.00    -0.045 C  
HETATM   15  C   UNL     1      -6.340   5.773  67.849  1.00  0.00    -0.041 C  
HETATM   16  C   UNL     1      -8.058   3.554  71.678  1.00  0.00    -0.065 C  
HETATM   17  O   UNL     1      -8.437  10.720  66.777  1.00  0.00    -0.128 OA 
HETATM   18  C   UNL     1      -9.133   4.641  71.439  1.00  0.00    -0.131 C  
HETATM   19  O   UNL     1      -6.053   7.086  68.377  1.00  0.00    -0.031 OA 
HETATM   20  C   UNL     1      -7.673  11.513  65.859  1.00  0.00     0.354 C  
HETATM   21  O   UNL     1      -7.825  13.771  66.972  1.00  0.00    -0.071 OA 
HETATM   22  C   UNL     1      -7.203   7.781  68.929  1.00  0.00    -0.081 C  
HETATM   23  C   UNL     1      -8.031  13.019  65.754  1.00  0.00     2.619 C  
HETATM   24  C   UNL     1      -6.723   9.016  70.204  1.00  0.00    -0.047 C  
HETATM   25  C   UNL     1      -7.340  13.494  64.452  1.00  0.00    15.792 C  
HETATM   26  C   UNL     1      -8.394   7.611  67.821  1.00  0.00    -0.118 C  
HETATM   27  O   UNL     1      -5.511  14.071  66.836  1.00  0.00     0.425 OA 
HETATM   28  C   UNL     1      -8.721   6.167  67.419  1.00  0.00    -0.104 C  
HETATM   29  C   UNL     1      -5.314  14.245  65.388  1.00  0.00    12.034 C  
HETATM   30  O   UNL     1      -7.392  14.903  64.286  1.00  0.00    13.593 OA 
HETATM   31  C   UNL     1      -7.348  10.406  71.047  1.00  0.00     1.369 C  
HETATM   32  C   UNL     1      -7.519  11.956  70.549  1.00  0.00     3.137 C  
HETATM   33  C   UNL     1      -6.232  15.407  64.975  1.00  0.00    12.938 C  
HETATM   34  C   UNL     1      -7.445   5.779  66.789  1.00  0.00    -0.084 C  
HETATM   35  C   UNL     1     -10.077   6.054  66.693  1.00  0.00    -0.226 C  
HETATM   36  C   UNL     1      -6.745  15.942  66.284  1.00  0.00     1.580 C  
HETATM   37  O   UNL     1      -7.047  12.849  71.624  1.00  0.00     3.879 OA 
HETATM   38  C   UNL     1      -7.334   5.586  65.464  1.00  0.00    -0.073 C  
HETATM   39  C   UNL     1      -7.468  14.186  71.205  1.00  0.00     2.897 C  
HETATM   40  C   UNL     1      -8.937  13.967  70.986  1.00  0.00     6.137 C  
HETATM   41  C   UNL     1      -6.497  14.659  70.041  1.00  0.00    -0.168 C  
HETATM   42  C   UNL     1      -6.912  15.305  68.679  1.00  0.00    -0.110 C  
HETATM   43  C   UNL     1      -8.834  12.748  70.132  1.00  0.00     4.215 C  
HETATM   44  C   UNL     1      -9.647  12.789  69.059  1.00  0.00     0.379 C  
HETATM   45  C   UNL     1      -6.751  14.691  67.190  1.00  0.00     0.423 C  
ENDROOT
BRANCH  16  46
HETATM   46  C   UNL     1      -8.402   2.228  70.980  1.00  0.00    -0.074 C  
BRANCH  46  47
HETATM   47  C   UNL     1      -9.770   2.118  70.308  1.00  0.00     0.067 C  
HETATM   48  H   UNL     1     -10.959   3.301  69.288  1.00  0.00     0.000 HD 
HETATM   49  O   UNL     1     -10.108   3.369  69.706  1.00  0.00     0.226 OA 
BRANCH  47  50
HETATM   50  C   UNL     1     -10.903   1.644  71.235  1.00  0.00     1.251 C  
HETATM   51  N   UNL     1     -12.160   1.478  70.485  1.00  0.00     6.501 NA 
HETATM   52  H1  UNL     1     -12.912   1.163  71.100  1.00  0.00     0.000 HD 
HETATM   53  H2  UNL     1     -12.043   0.856  69.685  1.00  0.00     0.000 HD 
ENDBRANCH  47  50
ENDBRANCH  46  47
ENDBRANCH  16  46
BRANCH  18  54
HETATM   54  O   UNL     1     -10.027   4.261  70.382  1.00  0.00    -0.211 OA 
HETATM   55  C   UNL     1     -11.319   4.858  70.433  1.00  0.00     2.067 C  
ENDBRANCH  18  54
TORSDOF 4
ENDMDL
MODEL       84
REMARK 921   NORMALIZED FREE ENERGY PREDICTED BY IDOCK:   93.97 KCAL/MOL
REMARK 922        TOTAL FREE ENERGY PREDICTED BY IDOCK:  115.93 KCAL/MOL
REMARK 923 INTER-LIGAND FREE ENERGY PREDICTED BY IDOCK:  110.84 KCAL/MOL
REMARK 924 INTRA-LIGAND FREE ENERGY PREDICTED BY IDOCK:    5.09 KCAL/MOL
REMARK 927      BINDING AFFINITY PREDICTED BY RF-SCORE:    0.00 PKD
ROOT
HETATM    1  C   UNL     1      -6.536  17.566  66.513  1.00  0.00    -0.234 C  
HETATM    2  O   UNL     1      -6.285  16.169  66.578  1.00  0.00    -0.158 OA 
HETATM    3  C   UNL     1      -7.105  15.570  67.557  1.00  0.00    -0.191 C  
HETATM    4  C   UNL     1      -6.871  14.110  67.725  1.00  0.00    -0.188 C  
HETATM    5  C   UNL     1      -7.553  13.867  69.059  1.00  0.00    -0.002 C  
HETATM    6  C   UNL     1      -9.115  14.255  69.131  1.00  0.00     0.163 C  
HETATM    7  C   UNL     1     -10.577  13.499  69.761  1.00  0.00     0.543 C  
HETATM    8  C   UNL     1     -11.170  12.253  70.815  1.00  0.00     1.787 C  
HETATM    9  O   UNL     1     -11.954  12.642  71.709  1.00  0.00     0.778 OA 
HETATM   10  C   UNL     1     -11.154  10.644  70.634  1.00  0.00    -0.064 C  
HETATM   11  C   UNL     1     -10.249   9.405  71.210  1.00  0.00    -0.340 C  
HETATM   12  C   UNL     1      -8.805   8.816  70.749  1.00  0.00    -0.191 C  
HETATM   13  O   UNL     1      -8.761   7.491  71.328  1.00  0.00    -0.124 OA 
HETATM   14  C   UNL     1      -8.195   8.575  69.321  1.00  0.00    -0.115 C  
HETATM   15  C   UNL     1      -7.687   9.733  68.423  1.00  0.00    -0.081 C  
HETATM   16  C   UNL     1     -10.083   6.961  71.440  1.00  0.00    -0.185 C  
HETATM   17  O   UNL     1      -9.517  14.870  67.886  1.00  0.00    -0.196 OA 
HETATM   18  C   UNL     1     -11.089   8.114  71.212  1.00  0.00    -0.248 C  
HETATM   19  O   UNL     1      -7.489  10.923  69.215  1.00  0.00    -0.123 OA 
HETATM   20  C   UNL     1      -8.593  15.778  67.270  1.00  0.00    -0.188 C  
HETATM   21  O   UNL     1      -8.924  17.815  68.718  1.00  0.00    -0.277 OA 
HETATM   22  C   UNL     1      -8.713  11.558  69.671  1.00  0.00     1.179 C  
HETATM   23  C   UNL     1      -8.914  17.291  67.370  1.00  0.00    -0.222 C  
HETATM   24  C   UNL     1      -8.460  12.537  71.207  1.00  0.00    12.673 C  
HETATM   25  C   UNL     1      -7.997  17.956  66.313  1.00  0.00    -0.244 C  
HETATM   26  C   UNL     1      -9.687  11.629  68.358  1.00  0.00    -0.199 C  
HETATM   27  O   UNL     1      -6.621  18.042  69.045  1.00  0.00    -0.234 OA 
HETATM   28  C   UNL     1      -9.948  10.288  67.658  1.00  0.00    -0.212 C  
HETATM   29  C   UNL     1      -6.166  18.454  67.707  1.00  0.00    -0.185 C  
HETATM   30  O   UNL     1      -8.007  19.373  66.391  1.00  0.00    -0.278 OA 
HETATM   31  C   UNL     1      -9.214  13.786  72.158  1.00  0.00    11.687 C  
HETATM   32  C   UNL     1      -9.280  15.403  71.918  1.00  0.00     5.177 C  
HETATM   33  C   UNL     1      -6.984  19.705  67.350  1.00  0.00    -0.206 C  
HETATM   34  C   UNL     1      -8.584   9.964  67.203  1.00  0.00    -0.125 C  
HETATM   35  C   UNL     1     -11.153  10.356  66.697  1.00  0.00     0.039 C  
HETATM   36  C   UNL     1      -7.720  20.027  68.622  1.00  0.00    -0.150 C  
HETATM   37  O   UNL     1      -9.002  16.080  73.199  1.00  0.00    11.354 OA 
HETATM   38  C   UNL     1      -8.238   9.997  65.905  1.00  0.00    -0.128 C  
HETATM   39  C   UNL     1      -9.329  17.485  72.954  1.00  0.00    13.469 C  
HETATM   40  C   UNL     1     -10.736  17.364  72.446  1.00  0.00     3.378 C  
HETATM   41  C   UNL     1      -8.161  18.111  72.080  1.00  0.00    12.152 C  
HETATM   42  C   UNL     1      -8.320  18.997  70.801  1.00  0.00     3.464 C  
HETATM   43  C   UNL     1     -10.492  16.306  71.423  1.00  0.00     1.522 C  
HETATM   44  C   UNL     1     -11.099  16.563  70.248  1.00  0.00    -0.171 C  
HETATM   45  C   UNL     1      -7.899  18.641  69.279  1.00  0.00     0.070 C  
ENDROOT
BRANCH  16  46
HETATM   46  C   UNL     1     -10.307   5.788  70.472  1.00  0.00    -0.312 C  
BRANCH  46  47
HETATM   47  C   UNL     1     -11.324   4.722  70.877  1.00  0.00     1.727 C  
HETATM   48  H   UNL     1     -11.366   3.174  72.082  1.00  0.00     0.000 HD 
HETATM   49  O   UNL     1     -10.733   3.837  71.830  1.00  0.00     0.224 OA 
BRANCH  47  50
HETATM   50  C   UNL     1     -11.922   3.928  69.702  1.00  0.00    12.802 C  
HETATM   51  N   UNL     1     -13.380   4.125  69.624  1.00  0.00    22.188 NA 
HETATM   52  H1  UNL     1     -13.777   3.599  68.845  1.00  0.00     0.000 HD 
HETATM   53  H2  UNL     1     -13.625   5.114  69.574  1.00  0.00     0.000 HD 
ENDBRANCH  47  50
ENDBRANCH  46  47
ENDBRANCH  16  46
BRANCH  18  54
HETATM   54  O   UNL     1     -11.781   7.956  69.964  1.00  0.00     0.038 OA 
HETATM   55  C   UNL     1     -11.678   6.665  69.370  1.00  0.00    -0.006 C  
ENDBRANCH  18  54
TORSDOF 4
ENDMDL
MODEL       85
REMARK 921   NORMALIZED FREE ENERGY PREDICTED BY IDOCK:  101.63 KCAL/MOL
REMARK 922        TOTAL FREE ENERGY PREDICTED BY IDOCK:  125.38 KCAL/MOL
REMARK 923 INTER-LIGAND FREE ENERGY PREDICTED BY IDOCK:  101.26 KCAL/MOL
REMARK 924 INTRA-LIGAND FREE ENERGY PREDICTED BY IDOCK:   24.12 KCAL/MOL
REMARK 927      BINDING AFFINITY PREDICTED BY RF-SCORE:    0.00 PKD
ROOT
HETATM    1  C   UNL     1     -12.536  13.337  73.596  1.00  0.00     3.768 C  
HETATM    2  O   UNL     1     -12.765  12.115  72.908  1.00  0.00     1.051 OA 
HETATM    3  C   UNL     1     -12.351  12.226  71.564  1.00  0.00     0.163 C  
HETATM    4  C   UNL     1     -12.601  11.002  70.756  1.00  0.00    -0.463 C  
HETATM    5  C   UNL     1     -12.451  11.556  69.351  1.00  0.00    -0.003 C  
HETATM    6  C   UNL     1     -11.033  12.241  69.013  1.00  0.00    -0.201 C  
HETATM    7  C   UNL     1      -9.890  12.182  67.673  1.00  0.00    -0.194 C  
HETATM    8  C   UNL     1      -9.701  11.726  66.009  1.00  0.00    -0.232 C  
HETATM    9  O   UNL     1      -9.307  12.638  65.249  1.00  0.00     0.109 OA 
HETATM   10  C   UNL     1      -9.617  10.255  65.338  1.00  0.00    -0.310 C  
HETATM   11  C   UNL     1     -10.645   9.275  64.520  1.00  0.00     3.737 C  
HETATM   12  C   UNL     1     -11.808   8.260  65.032  1.00  0.00    13.763 C  
HETATM   13  O   UNL     1     -12.035   7.382  63.904  1.00  0.00    18.318 OA 
HETATM   14  C   UNL     1     -11.846   7.259  66.244  1.00  0.00     4.597 C  
HETATM   15  C   UNL     1     -12.012   7.731  67.712  1.00  0.00     3.223 C  
HETATM   16  C   UNL     1     -10.837   7.248  63.138  1.00  0.00    13.423 C  
HETATM   17  O   UNL     1     -10.215  12.268  70.204  1.00  0.00     1.665 OA 
HETATM   18  C   UNL     1      -9.840   8.337  63.602  1.00  0.00     4.240 C  
HETATM   19  O   UNL     1     -12.511   9.085  67.743  1.00  0.00     4.839 OA 
HETATM   20  C   UNL     1     -10.865  12.572  71.445  1.00  0.00     5.644 C  
HETATM   21  O   UNL     1     -11.129  15.070  71.220  1.00  0.00    -0.270 OA 
HETATM   22  C   UNL     1     -11.551  10.093  67.326  1.00  0.00     1.008 C  
HETATM   23  C   UNL     1     -10.633  13.986  72.039  1.00  0.00     4.654 C  
HETATM   24  C   UNL     1     -12.370  11.603  66.669  1.00  0.00     1.508 C  
HETATM   25  C   UNL     1     -11.112  13.875  73.508  1.00  0.00     4.465 C  
HETATM   26  C   UNL     1     -10.166   9.737  68.119  1.00  0.00    -0.220 C  
HETATM   27  O   UNL     1     -13.396  14.950  71.779  1.00  0.00    -0.314 OA 
HETATM   28  C   UNL     1      -9.639   8.310  67.917  1.00  0.00    -0.176 C  
HETATM   29  C   UNL     1     -13.336  14.585  73.203  1.00  0.00    -0.270 C  
HETATM   30  O   UNL     1     -11.159  15.132  74.165  1.00  0.00     1.177 OA 
HETATM   31  C   UNL     1     -12.042  13.276  66.310  1.00  0.00    -0.472 C  
HETATM   32  C   UNL     1     -11.925  14.567  67.308  1.00  0.00    -0.344 C  
HETATM   33  C   UNL     1     -12.468  15.660  73.877  1.00  0.00    -0.630 C  
HETATM   34  C   UNL     1     -10.735   7.540  68.535  1.00  0.00    -0.115 C  
HETATM   35  C   UNL     1      -8.167   8.162  68.355  1.00  0.00    -0.129 C  
HETATM   36  C   UNL     1     -12.257  16.682  72.794  1.00  0.00    -0.178 C  
HETATM   37  O   UNL     1     -12.668  15.692  66.709  1.00  0.00     1.615 OA 
HETATM   38  C   UNL     1     -10.581   6.890  69.701  1.00  0.00    -0.258 C  
HETATM   39  C   UNL     1     -12.301  16.852  67.523  1.00  0.00     2.673 C  
HETATM   40  C   UNL     1     -10.803  16.796  67.438  1.00  0.00    -0.176 C  
HETATM   41  C   UNL     1     -13.079  16.743  68.903  1.00  0.00     4.471 C  
HETATM   42  C   UNL     1     -12.479  16.939  70.334  1.00  0.00     3.531 C  
HETATM   43  C   UNL     1     -10.634  15.358  67.796  1.00  0.00    -0.274 C  
HETATM   44  C   UNL     1      -9.643  15.152  68.686  1.00  0.00    -0.213 C  
HETATM   45  C   UNL     1     -12.305  15.835  71.504  1.00  0.00    -0.455 C  
ENDROOT
BRANCH  16  46
HETATM   46  C   UNL     1     -10.249   5.831  63.250  1.00  0.00     3.154 C  
BRANCH  46  47
HETATM   47  C   UNL     1      -8.887   5.684  63.926  1.00  0.00     0.294 C  
HETATM   48  H   UNL     1      -7.572   6.875  64.764  1.00  0.00     0.000 HD 
HETATM   49  O   UNL     1      -8.420   6.967  64.344  1.00  0.00     0.056 OA 
BRANCH  47  50
HETATM   50  C   UNL     1      -7.821   4.976  63.070  1.00  0.00    -0.074 C  
HETATM   51  N   UNL     1      -6.472   5.203  63.618  1.00  0.00    -0.026 NA 
HETATM   52  H1  UNL     1      -5.766   4.733  63.050  1.00  0.00     0.000 HD 
HETATM   53  H2  UNL     1      -6.412   4.927  64.598  1.00  0.00     0.000 HD 
ENDBRANCH  47  50
ENDBRANCH  46  47
ENDBRANCH  16  46
BRANCH  18  54
HETATM   54  O   UNL     1      -8.735   7.757  64.312  1.00  0.00     0.209 OA 
HETATM   55  C   UNL     1      -7.877   6.929  63.533  1.00  0.00    -0.103 C  
ENDBRANCH  18  54
TORSDOF 4
ENDMDL
MODEL       86
REMARK 921   NORMALIZED FREE ENERGY PREDICTED BY IDOCK:  107.07 KCAL/MOL
REMARK 922        TOTAL FREE ENERGY PREDICTED BY IDOCK:  132.10 KCAL/MOL
REMARK 923 INTER-LIGAND FREE ENERGY PREDICTED BY IDOCK:  129.65 KCAL/MOL
REMARK 924 INTRA-LIGAND FREE ENERGY PREDICTED BY IDOCK:    2.45 KCAL/MOL
REMARK 927      BINDING AFFINITY PREDICTED BY RF-SCORE:    0.00 PKD
ROOT
HETATM    1  C   UNL     1      -9.398  19.450  70.011  1.00  0.00     0.829 C  
HETATM    2  O   UNL     1     -10.044  18.257  70.433  1.00  0.00     1.157 OA 
HETATM    3  C   UNL     1      -9.410  17.131  69.868  1.00  0.00     1.171 C  
HETATM    4  C   UNL     1     -10.056  15.838  70.220  1.00  0.00     0.032 C  
HETATM    5  C   UNL     1      -9.440  14.922  69.179  1.00  0.00    -0.158 C  
HETATM    6  C   UNL     1      -7.831  14.831  69.186  1.00  0.00    -0.141 C  
HETATM    7  C   UNL     1      -6.639  13.537  69.090  1.00  0.00    -0.109 C  
HETATM    8  C   UNL     1      -6.408  11.870  68.664  1.00  0.00    -0.058 C  
HETATM    9  O   UNL     1      -5.521  11.658  67.808  1.00  0.00    -0.045 OA 
HETATM   10  C   UNL     1      -6.899  10.527  69.422  1.00  0.00    -0.088 C  
HETATM   11  C   UNL     1      -8.111   9.441  69.225  1.00  0.00    -0.105 C  
HETATM   12  C   UNL     1      -9.677   9.478  69.665  1.00  0.00    -0.200 C  
HETATM   13  O   UNL     1     -10.092   8.092  69.617  1.00  0.00    -0.189 OA 
HETATM   14  C   UNL     1     -10.369   9.985  70.982  1.00  0.00     0.203 C  
HETATM   15  C   UNL     1     -10.539  11.491  71.309  1.00  0.00     4.899 C  
HETATM   16  C   UNL     1      -8.980   7.238  69.892  1.00  0.00    -0.142 C  
HETATM   17  O   UNL     1      -7.301  15.759  70.159  1.00  0.00     0.130 OA 
HETATM   18  C   UNL     1      -7.687   8.084  69.816  1.00  0.00    -0.101 C  
HETATM   19  O   UNL     1     -10.359  12.281  70.113  1.00  0.00     1.440 OA 
HETATM   20  C   UNL     1      -7.934  17.042  70.262  1.00  0.00     2.608 C  
HETATM   21  O   UNL     1      -6.983  18.183  68.225  1.00  0.00    -0.219 OA 
HETATM   22  C   UNL     1      -8.990  12.344  69.631  1.00  0.00     2.006 C  
HETATM   23  C   UNL     1      -7.181  18.254  69.656  1.00  0.00     0.286 C  
HETATM   24  C   UNL     1      -8.905  12.669  67.823  1.00  0.00    -0.179 C  
HETATM   25  C   UNL     1      -7.892  19.494  70.254  1.00  0.00     1.083 C  
HETATM   26  C   UNL     1      -8.075  12.671  70.946  1.00  0.00     7.806 C  
HETATM   27  O   UNL     1      -9.109  18.852  67.521  1.00  0.00    -0.278 OA 
HETATM   28  C   UNL     1      -8.236  11.696  72.121  1.00  0.00    15.776 C  
HETATM   29  C   UNL     1      -9.459  19.860  68.534  1.00  0.00    -0.242 C  
HETATM   30  O   UNL     1      -7.466  20.711  69.660  1.00  0.00     0.647 OA 
HETATM   31  C   UNL     1      -7.792  13.200  66.592  1.00  0.00     0.561 C  
HETATM   32  C   UNL     1      -7.262  14.704  66.225  1.00  0.00     2.967 C  
HETATM   33  C   UNL     1      -8.320  20.891  68.514  1.00  0.00     1.039 C  
HETATM   34  C   UNL     1      -9.647  11.943  72.469  1.00  0.00    21.044 C  
HETATM   35  C   UNL     1      -7.090  11.822  73.146  1.00  0.00    10.614 C  
HETATM   36  C   UNL     1      -7.488  20.484  67.329  1.00  0.00    -0.384 C  
HETATM   37  O   UNL     1      -7.296  14.868  64.759  1.00  0.00     9.998 OA 
HETATM   38  C   UNL     1     -10.003  12.572  73.601  1.00  0.00    22.372 C  
HETATM   39  C   UNL     1      -6.578  16.119  64.511  1.00  0.00    11.930 C  
HETATM   40  C   UNL     1      -5.282  15.848  65.218  1.00  0.00     6.751 C  
HETATM   41  C   UNL     1      -7.535  17.318  64.921  1.00  0.00     4.024 C  
HETATM   42  C   UNL     1      -7.158  18.562  65.790  1.00  0.00    -0.255 C  
HETATM   43  C   UNL     1      -5.853  15.381  66.515  1.00  0.00     2.226 C  
HETATM   44  C   UNL     1      -5.229  15.913  67.584  1.00  0.00    -0.125 C  
HETATM   45  C   UNL     1      -7.705  18.957  67.262  1.00  0.00    -0.234 C  
ENDROOT
BRANCH  16  46
HETATM   46  C   UNL     1      -9.135   6.527  71.247  1.00  0.00    -0.148 C  
BRANCH  46  47
HETATM   47  C   UNL     1      -8.565   5.115  71.372  1.00  0.00    -0.128 C  
HETATM   48  H   UNL     1      -9.162   3.292  70.959  1.00  0.00     0.000 HD 
HETATM   49  O   UNL     1      -9.517   4.170  70.880  1.00  0.00    -0.135 OA 
BRANCH  47  50
HETATM   50  C   UNL     1      -8.109   4.732  72.792  1.00  0.00    -0.101 C  
HETATM   51  N   UNL     1      -6.849   3.969  72.750  1.00  0.00    -0.045 NA 
HETATM   52  H1  UNL     1      -6.547   3.716  73.692  1.00  0.00     0.000 HD 
HETATM   53  H2  UNL     1      -6.120   4.472  72.244  1.00  0.00     0.000 HD 
ENDBRANCH  47  50
ENDBRANCH  46  47
ENDBRANCH  16  46
BRANCH  18  54
HETATM   54  O   UNL     1      -7.106   8.257  71.117  1.00  0.00    -0.050 OA 
HETATM   55  C   UNL     1      -8.028   8.552  72.162  1.00  0.00    -0.088 C  
ENDBRANCH  18  54
TORSDOF 4
ENDMDL
MODEL       87
REMARK 921   NORMALIZED FREE ENERGY PREDICTED BY IDOCK:  107.48 KCAL/MOL
REMARK 922        TOTAL FREE ENERGY PREDICTED BY IDOCK:  132.60 KCAL/MOL
REMARK 923 INTER-LIGAND FREE ENERGY PREDICTED BY IDOCK:  123.45 KCAL/MOL
REMARK 924 INTRA-LIGAND FREE ENERGY PREDICTED BY IDOCK:    9.15 KCAL/MOL
REMARK 927      BINDING AFFINITY PREDICTED BY RF-SCORE:    0.00 PKD
ROOT
HETATM    1  C   UNL     1      -9.773   4.122  72.871  1.00  0.00    -0.132 C  
HETATM    2  O   UNL     1      -9.076   5.360  72.849  1.00  0.00    -0.126 OA 
HETATM    3  C   UNL     1      -9.530   6.158  71.778  1.00  0.00    -0.150 C  
HETATM    4  C   UNL     1      -8.815   7.457  71.651  1.00  0.00    -0.125 C  
HETATM    5  C   UNL     1      -9.213   7.861  70.243  1.00  0.00    -0.152 C  
HETATM    6  C   UNL     1     -10.795   7.996  69.970  1.00  0.00    -0.235 C  
HETATM    7  C   UNL     1     -11.842   9.163  69.165  1.00  0.00     1.051 C  
HETATM    8  C   UNL     1     -11.864  10.496  68.053  1.00  0.00     0.414 C  
HETATM    9  O   UNL     1     -12.616  10.351  67.064  1.00  0.00     3.834 OA 
HETATM   10  C   UNL     1     -11.349  12.018  68.246  1.00  0.00    -0.342 C  
HETATM   11  C   UNL     1     -10.027  12.878  67.799  1.00  0.00    -0.230 C  
HETATM   12  C   UNL     1      -8.537  12.983  68.444  1.00  0.00    -0.116 C  
HETATM   13  O   UNL     1      -7.994  14.203  67.885  1.00  0.00    -0.129 OA 
HETATM   14  C   UNL     1      -8.062  13.064  69.940  1.00  0.00     2.214 C  
HETATM   15  C   UNL     1      -8.072  11.836  70.887  1.00  0.00     6.783 C  
HETATM   16  C   UNL     1      -9.047  15.127  67.609  1.00  0.00    -0.180 C  
HETATM   17  O   UNL     1     -11.524   7.588  71.150  1.00  0.00    -0.262 OA 
HETATM   18  C   UNL     1     -10.393  14.370  67.699  1.00  0.00    -0.237 C  
HETATM   19  O   UNL     1      -8.176  10.618  70.117  1.00  0.00     0.207 OA 
HETATM   20  C   UNL     1     -11.028   6.452  71.872  1.00  0.00    -0.253 C  
HETATM   21  O   UNL     1     -11.823   4.582  70.379  1.00  0.00     4.527 OA 
HETATM   22  C   UNL     1      -9.475  10.398  69.505  1.00  0.00    -0.139 C  
HETATM   23  C   UNL     1     -11.809   5.121  71.721  1.00  0.00     0.988 C  
HETATM   24  C   UNL     1      -9.367   9.338  68.007  1.00  0.00    -0.145 C  
HETATM   25  C   UNL     1     -11.294   4.233  72.881  1.00  0.00     0.040 C  
HETATM   26  C   UNL     1     -10.571  10.692  70.683  1.00  0.00     0.543 C  
HETATM   27  O   UNL     1      -9.697   3.612  70.346  1.00  0.00    -0.189 OA 
HETATM   28  C   UNL     1     -10.467  12.068  71.354  1.00  0.00     7.420 C  
HETATM   29  C   UNL     1      -9.569   3.121  71.728  1.00  0.00    -0.157 C  
HETATM   30  O   UNL     1     -11.755   2.894  72.793  1.00  0.00     0.472 OA 
HETATM   31  C   UNL     1     -10.364   8.368  66.959  1.00  0.00    -0.385 C  
HETATM   32  C   UNL     1     -10.981   6.868  67.177  1.00  0.00    -0.357 C  
HETATM   33  C   UNL     1     -10.787   2.216  71.969  1.00  0.00     0.612 C  
HETATM   34  C   UNL     1      -9.137  11.949  71.981  1.00  0.00    18.878 C  
HETATM   35  C   UNL     1     -11.736  12.428  72.153  1.00  0.00     3.579 C  
HETATM   36  C   UNL     1     -11.426   2.105  70.611  1.00  0.00     5.834 C  
HETATM   37  O   UNL     1     -10.783   6.094  65.937  1.00  0.00     0.396 OA 
HETATM   38  C   UNL     1      -8.983  11.852  73.312  1.00  0.00    24.421 C  
HETATM   39  C   UNL     1     -11.577   4.879  66.128  1.00  0.00     1.954 C  
HETATM   40  C   UNL     1     -12.920   5.466  66.454  1.00  0.00    10.340 C  
HETATM   41  C   UNL     1     -10.792   3.940  67.140  1.00  0.00     2.491 C  
HETATM   42  C   UNL     1     -11.386   3.198  68.381  1.00  0.00     9.268 C  
HETATM   43  C   UNL     1     -12.472   6.423  67.508  1.00  0.00     5.947 C  
HETATM   44  C   UNL     1     -13.269   6.417  68.594  1.00  0.00    10.558 C  
HETATM   45  C   UNL     1     -11.062   3.451  69.947  1.00  0.00     5.450 C  
ENDROOT
BRANCH  16  46
HETATM   46  C   UNL     1      -8.995  16.342  68.550  1.00  0.00    -0.224 C  
BRANCH  46  47
HETATM   47  C   UNL     1     -10.143  17.348  68.468  1.00  0.00    -0.352 C  
HETATM   48  H   UNL     1     -11.469  18.104  69.701  1.00  0.00     0.000 HD 
HETATM   49  O   UNL     1     -10.755  17.478  69.752  1.00  0.00     0.095 OA 
BRANCH  47  50
HETATM   50  C   UNL     1     -11.201  17.026  67.397  1.00  0.00     0.194 C  
HETATM   51  N   UNL     1     -11.000  17.856  66.196  1.00  0.00     0.098 NA 
HETATM   52  H1  UNL     1     -11.702  17.643  65.486  1.00  0.00     0.000 HD 
HETATM   53  H2  UNL     1     -10.053  17.766  65.829  1.00  0.00     0.000 HD 
ENDBRANCH  47  50
ENDBRANCH  46  47
ENDBRANCH  16  46
BRANCH  18  54
HETATM   54  O   UNL     1     -11.144  14.786  68.850  1.00  0.00    -0.231 OA 
HETATM   55  C   UNL     1     -10.403  15.504  69.833  1.00  0.00    -0.312 C  
ENDBRANCH  18  54
TORSDOF 4
ENDMDL
MODEL       88
REMARK 921   NORMALIZED FREE ENERGY PREDICTED BY IDOCK:  109.59 KCAL/MOL
REMARK 922        TOTAL FREE ENERGY PREDICTED BY IDOCK:  135.20 KCAL/MOL
REMARK 923 INTER-LIGAND FREE ENERGY PREDICTED BY IDOCK:  133.11 KCAL/MOL
REMARK 924 INTRA-LIGAND FREE ENERGY PREDICTED BY IDOCK:    2.08 KCAL/MOL
REMARK 927      BINDING AFFINITY PREDICTED BY RF-SCORE:    0.00 PKD
ROOT
HETATM    1  C   UNL     1      -8.147   3.620  67.944  1.00  0.00    -0.084 C  
HETATM    2  O   UNL     1      -7.644   4.912  68.257  1.00  0.00    -0.077 OA 
HETATM    3  C   UNL     1      -8.547   5.906  67.826  1.00  0.00    -0.105 C  
HETATM    4  C   UNL     1      -8.073   7.295  68.072  1.00  0.00    -0.120 C  
HETATM    5  C   UNL     1      -9.008   8.076  67.167  1.00  0.00    -0.150 C  
HETATM    6  C   UNL     1     -10.582   7.899  67.460  1.00  0.00    -0.242 C  
HETATM    7  C   UNL     1     -11.971   8.975  67.591  1.00  0.00     3.886 C  
HETATM    8  C   UNL     1     -12.548  10.573  67.231  1.00  0.00     5.415 C  
HETATM    9  O   UNL     1     -13.595  10.619  66.548  1.00  0.00    11.518 OA 
HETATM   10  C   UNL     1     -12.162  11.993  67.905  1.00  0.00     0.280 C  
HETATM   11  C   UNL     1     -11.201  13.261  67.507  1.00  0.00    -0.309 C  
HETATM   12  C   UNL     1      -9.598  13.493  67.663  1.00  0.00    -0.222 C  
HETATM   13  O   UNL     1      -9.436  14.927  67.557  1.00  0.00    -0.197 OA 
HETATM   14  C   UNL     1      -8.610  13.132  68.831  1.00  0.00     0.277 C  
HETATM   15  C   UNL     1      -8.136  11.681  69.106  1.00  0.00     0.195 C  
HETATM   16  C   UNL     1     -10.607  15.590  68.035  1.00  0.00    -0.270 C  
HETATM   17  O   UNL     1     -10.770   6.914  68.502  1.00  0.00    -0.211 OA 
HETATM   18  C   UNL     1     -11.734  14.540  68.179  1.00  0.00    -0.337 C  
HETATM   19  O   UNL     1      -8.391  10.850  67.953  1.00  0.00    -0.115 OA 
HETATM   20  C   UNL     1      -9.924   5.757  68.476  1.00  0.00    -0.154 C  
HETATM   21  O   UNL     1     -11.016   4.435  66.628  1.00  0.00     0.607 OA 
HETATM   22  C   UNL     1      -9.793  10.552  67.719  1.00  0.00    -0.165 C  
HETATM   23  C   UNL     1     -10.559   4.425  68.000  1.00  0.00     0.825 C  
HETATM   24  C   UNL     1     -10.141  10.184  65.952  1.00  0.00    -0.325 C  
HETATM   25  C   UNL     1      -9.557   3.332  68.449  1.00  0.00    -0.065 C  
HETATM   26  C   UNL     1     -10.395  10.103  69.172  1.00  0.00    -0.237 C  
HETATM   27  O   UNL     1      -8.967   4.115  65.551  1.00  0.00    -0.122 OA 
HETATM   28  C   UNL     1     -10.194  11.112  70.310  1.00  0.00     1.222 C  
HETATM   29  C   UNL     1      -8.280   3.199  66.475  1.00  0.00    -0.090 C  
HETATM   30  O   UNL     1      -9.873   2.050  67.927  1.00  0.00     0.016 OA 
HETATM   31  C   UNL     1     -11.349   9.452  64.932  1.00  0.00     6.221 C  
HETATM   32  C   UNL     1     -11.677   7.874  64.648  1.00  0.00    16.058 C  
HETATM   33  C   UNL     1      -9.217   1.992  66.646  1.00  0.00     0.015 C  
HETATM   34  C   UNL     1      -8.722  11.110  70.400  1.00  0.00     2.904 C  
HETATM   35  C   UNL     1     -11.103  10.818  71.521  1.00  0.00     1.795 C  
HETATM   36  C   UNL     1     -10.301   2.234  65.631  1.00  0.00     1.728 C  
HETATM   37  O   UNL     1     -11.876   7.690  63.197  1.00  0.00    18.608 OA 
HETATM   38  C   UNL     1      -8.072  10.570  71.445  1.00  0.00     4.098 C  
HETATM   39  C   UNL     1     -12.408   6.333  63.067  1.00  0.00    11.002 C  
HETATM   40  C   UNL     1     -13.586   6.399  63.995  1.00  0.00    11.671 C  
HETATM   41  C   UNL     1     -11.208   5.317  63.288  1.00  0.00     3.191 C  
HETATM   42  C   UNL     1     -11.212   4.045  64.197  1.00  0.00     0.306 C  
HETATM   43  C   UNL     1     -12.881   6.978  65.175  1.00  0.00    13.910 C  
HETATM   44  C   UNL     1     -13.209   6.370  66.332  1.00  0.00    11.969 C  
HETATM   45  C   UNL     1     -10.357   3.774  65.544  1.00  0.00     0.182 C  
ENDROOT
BRANCH  16  46
HETATM   46  C   UNL     1     -10.336  16.342  69.348  1.00  0.00    -0.278 C  
BRANCH  46  47
HETATM   47  C   UNL     1     -11.546  16.809  70.156  1.00  0.00     0.633 C  
HETATM   48  H   UNL     1     -12.764  18.348  70.142  1.00  0.00     0.000 HD 
HETATM   49  O   UNL     1     -12.012  18.057  69.639  1.00  0.00     4.095 OA 
BRANCH  47  50
HETATM   50  C   UNL     1     -11.303  16.911  71.672  1.00  0.00     0.615 C  
HETATM   51  N   UNL     1     -11.899  18.143  72.218  1.00  0.00     3.183 NA 
HETATM   52  H1  UNL     1     -11.738  18.210  73.223  1.00  0.00     0.000 HD 
HETATM   53  H2  UNL     1     -12.891  18.215  71.990  1.00  0.00     0.000 HD 
ENDBRANCH  47  50
ENDBRANCH  46  47
ENDBRANCH  16  46
BRANCH  18  54
HETATM   54  O   UNL     1     -12.040  14.297  69.561  1.00  0.00    -0.313 OA 
HETATM   55  C   UNL     1     -12.924  13.207  69.807  1.00  0.00     0.870 C  
ENDBRANCH  18  54
TORSDOF 4
ENDMDL
MODEL       89
REMARK 921   NORMALIZED FREE ENERGY PREDICTED BY IDOCK:  120.64 KCAL/MOL
REMARK 922        TOTAL FREE ENERGY PREDICTED BY IDOCK:  148.83 KCAL/MOL
REMARK 923 INTER-LIGAND FREE ENERGY PREDICTED BY IDOCK:  147.00 KCAL/MOL
REMARK 924 INTRA-LIGAND FREE ENERGY PREDICTED BY IDOCK:    1.82 KCAL/MOL
REMARK 927      BINDING AFFINITY PREDICTED BY RF-SCORE:    0.00 PKD
ROOT
HETATM    1  C   UNL     1     -14.152  18.014  71.446  1.00  0.00    20.710 C  
HETATM    2  O   UNL     1     -14.351  16.682  70.992  1.00  0.00     3.384 OA 
HETATM    3  C   UNL     1     -13.183  16.200  70.363  1.00  0.00     1.632 C  
HETATM    4  C   UNL     1     -13.322  14.825  69.812  1.00  0.00     0.927 C  
HETATM    5  C   UNL     1     -12.120  14.769  68.887  1.00  0.00    -0.240 C  
HETATM    6  C   UNL     1     -10.687  15.017  69.580  1.00  0.00    -0.256 C  
HETATM    7  C   UNL     1      -9.100  14.256  69.503  1.00  0.00     0.551 C  
HETATM    8  C   UNL     1      -8.104  13.176  68.577  1.00  0.00    -0.087 C  
HETATM    9  O   UNL     1      -7.005  13.648  68.213  1.00  0.00    -0.086 OA 
HETATM   10  C   UNL     1      -8.202  11.570  68.396  1.00  0.00    -0.152 C  
HETATM   11  C   UNL     1      -8.761  10.549  67.243  1.00  0.00    -0.126 C  
HETATM   12  C   UNL     1     -10.262  10.023  66.900  1.00  0.00    -0.238 C  
HETATM   13  O   UNL     1     -10.047   8.837  66.098  1.00  0.00    -0.269 OA 
HETATM   14  C   UNL     1     -11.441   9.580  67.839  1.00  0.00     0.649 C  
HETATM   15  C   UNL     1     -12.292  10.595  68.647  1.00  0.00     0.675 C  
HETATM   16  C   UNL     1      -8.814   8.216  66.462  1.00  0.00    -0.149 C  
HETATM   17  O   UNL     1     -10.877  15.350  70.973  1.00  0.00    -0.317 OA 
HETATM   18  C   UNL     1      -8.010   9.208  67.336  1.00  0.00    -0.103 C  
HETATM   19  O   UNL     1     -12.116  11.925  68.112  1.00  0.00    -0.516 OA 
HETATM   20  C   UNL     1     -11.976  16.211  71.302  1.00  0.00    -0.353 C  
HETATM   21  O   UNL     1     -11.034  18.441  70.597  1.00  0.00     1.883 OA 
HETATM   22  C   UNL     1     -10.815  12.515  68.374  1.00  0.00    -0.243 C  
HETATM   23  C   UNL     1     -11.640  17.680  71.667  1.00  0.00     2.883 C  
HETATM   24  C   UNL     1     -10.360  13.780  67.119  1.00  0.00    -0.261 C  
HETATM   25  C   UNL     1     -12.929  18.221  72.334  1.00  0.00    12.633 C  
HETATM   26  C   UNL     1     -10.523  12.251  69.961  1.00  0.00     1.488 C  
HETATM   27  O   UNL     1     -12.954  18.939  69.360  1.00  0.00    13.353 OA 
HETATM   28  C   UNL     1     -10.601  10.785  70.412  1.00  0.00     0.343 C  
HETATM   29  C   UNL     1     -13.953  19.138  70.422  1.00  0.00    28.495 C  
HETATM   30  O   UNL     1     -12.883  19.621  72.564  1.00  0.00    16.704 OA 
HETATM   31  C   UNL     1      -9.259  15.107  66.870  1.00  0.00    -0.259 C  
HETATM   32  C   UNL     1      -9.303  16.639  67.444  1.00  0.00    -0.222 C  
HETATM   33  C   UNL     1     -13.374  20.219  71.349  1.00  0.00    24.185 C  
HETATM   34  C   UNL     1     -12.027  10.512  70.153  1.00  0.00    -0.398 C  
HETATM   35  C   UNL     1      -9.946  10.561  71.790  1.00  0.00     5.077 C  
HETATM   36  C   UNL     1     -12.150  20.700  70.618  1.00  0.00    10.010 C  
HETATM   37  O   UNL     1      -8.984  17.563  66.339  1.00  0.00    -0.279 OA 
HETATM   38  C   UNL     1     -12.911  10.337  71.149  1.00  0.00    -0.503 C  
HETATM   39  C   UNL     1      -8.795  18.862  66.987  1.00  0.00    -0.294 C  
HETATM   40  C   UNL     1      -7.759  18.518  68.016  1.00  0.00    -0.281 C  
HETATM   41  C   UNL     1     -10.229  19.422  67.378  1.00  0.00    -0.530 C  
HETATM   42  C   UNL     1     -10.651  20.038  68.752  1.00  0.00     0.007 C  
HETATM   43  C   UNL     1      -8.434  17.317  68.590  1.00  0.00    -0.260 C  
HETATM   44  C   UNL     1      -8.409  17.295  69.937  1.00  0.00     1.614 C  
HETATM   45  C   UNL     1     -11.702  19.449  69.832  1.00  0.00     6.853 C  
ENDROOT
BRANCH  16  46
HETATM   46  C   UNL     1      -9.044   6.869  67.166  1.00  0.00    -0.137 C  
BRANCH  46  47
HETATM   47  C   UNL     1      -7.930   6.347  68.073  1.00  0.00    -0.109 C  
HETATM   48  H   UNL     1      -5.981   6.151  67.971  1.00  0.00     0.000 HD 
HETATM   49  O   UNL     1      -6.673   6.476  67.407  1.00  0.00    -0.061 OA 
BRANCH  47  50
HETATM   50  C   UNL     1      -8.132   4.904  68.569  1.00  0.00    -0.085 C  
HETATM   51  N   UNL     1      -7.827   3.935  67.501  1.00  0.00    -0.085 NA 
HETATM   52  H1  UNL     1      -7.961   2.978  67.830  1.00  0.00     0.000 HD 
HETATM   53  H2  UNL     1      -6.892   4.075  67.120  1.00  0.00     0.000 HD 
ENDBRANCH  47  50
ENDBRANCH  46  47
ENDBRANCH  16  46
BRANCH  18  54
HETATM   54  O   UNL     1      -7.942   8.758  68.698  1.00  0.00    -0.104 OA 
HETATM   55  C   UNL     1      -6.782   9.166  69.417  1.00  0.00    -0.048 C  
ENDBRANCH  18  54
TORSDOF 4
ENDMDL
MODEL       90
REMARK 921   NORMALIZED FREE ENERGY PREDICTED BY IDOCK:  137.00 KCAL/MOL
REMARK 922        TOTAL FREE ENERGY PREDICTED BY IDOCK:  169.02 KCAL/MOL
REMARK 923 INTER-LIGAND FREE ENERGY PREDICTED BY IDOCK:  167.58 KCAL/MOL
REMARK 924 INTRA-LIGAND FREE ENERGY PREDICTED BY IDOCK:    1.43 KCAL/MOL
REMARK 927      BINDING AFFINITY PREDICTED BY RF-SCORE:    0.00 PKD
ROOT
HETATM    1  C   UNL     1     -10.869  19.094  68.635  1.00  0.00     0.599 C  
HETATM    2  O   UNL     1     -11.745  18.044  68.247  1.00  0.00     1.137 OA 
HETATM    3  C   UNL     1     -11.025  17.021  67.595  1.00  0.00    -0.164 C  
HETATM    4  C   UNL     1     -11.878  15.902  67.111  1.00  0.00     0.610 C  
HETATM    5  C   UNL     1     -10.927  15.223  66.142  1.00  0.00    -0.307 C  
HETATM    6  C   UNL     1      -9.532  14.712  66.767  1.00  0.00    -0.260 C  
HETATM    7  C   UNL     1      -8.564  13.244  66.662  1.00  0.00     0.054 C  
HETATM    8  C   UNL     1      -8.313  11.791  65.745  1.00  0.00     0.385 C  
HETATM    9  O   UNL     1      -7.149  11.626  65.318  1.00  0.00     1.078 OA 
HETATM   10  C   UNL     1      -9.228  10.459  65.639  1.00  0.00    -0.220 C  
HETATM   11  C   UNL     1     -10.294   9.849  64.554  1.00  0.00     0.721 C  
HETATM   12  C   UNL     1     -11.869  10.161  64.293  1.00  0.00     5.501 C  
HETATM   13  O   UNL     1     -12.336   9.019  63.537  1.00  0.00    14.582 OA 
HETATM   14  C   UNL     1     -13.055  10.402  65.297  1.00  0.00    10.424 C  
HETATM   15  C   UNL     1     -13.220  11.722  66.092  1.00  0.00     5.717 C  
HETATM   16  C   UNL     1     -11.575   7.859  63.878  1.00  0.00    20.266 C  
HETATM   17  O   UNL     1      -9.447  15.121  68.151  1.00  0.00    -0.196 OA 
HETATM   18  C   UNL     1     -10.330   8.314  64.676  1.00  0.00     5.180 C  
HETATM   19  O   UNL     1     -12.420  12.765  65.493  1.00  0.00    -0.573 OA 
HETATM   20  C   UNL     1      -9.931  16.429  68.485  1.00  0.00    -0.239 C  
HETATM   21  O   UNL     1      -8.023  17.848  67.646  1.00  0.00    -0.214 OA 
HETATM   22  C   UNL     1     -10.987  12.609  65.678  1.00  0.00    -0.280 C  
HETATM   23  C   UNL     1      -8.872  17.524  68.771  1.00  0.00    -0.215 C  
HETATM   24  C   UNL     1     -10.021  13.440  64.352  1.00  0.00     0.038 C  
HETATM   25  C   UNL     1      -9.665  18.661  69.465  1.00  0.00     0.251 C  
HETATM   26  C   UNL     1     -10.783  12.260  67.263  1.00  0.00    -0.263 C  
HETATM   27  O   UNL     1      -9.485  19.238  66.465  1.00  0.00    -0.326 OA 
HETATM   28  C   UNL     1     -11.574  11.050  67.779  1.00  0.00    -0.277 C  
HETATM   29  C   UNL     1     -10.181  19.939  67.556  1.00  0.00    -0.422 C  
HETATM   30  O   UNL     1      -8.896  19.843  69.631  1.00  0.00     0.201 OA 
HETATM   31  C   UNL     1      -8.413  14.011  64.002  1.00  0.00     9.755 C  
HETATM   32  C   UNL     1      -7.636  15.359  64.509  1.00  0.00    13.275 C  
HETATM   33  C   UNL     1      -9.080  20.587  68.411  1.00  0.00     0.374 C  
HETATM   34  C   UNL     1     -12.951  11.542  67.589  1.00  0.00     4.506 C  
HETATM   35  C   UNL     1     -11.050  10.546  69.139  1.00  0.00    -0.302 C  
HETATM   36  C   UNL     1      -7.826  20.360  67.612  1.00  0.00    -0.298 C  
HETATM   37  O   UNL     1      -6.952  15.969  63.354  1.00  0.00    16.666 OA 
HETATM   38  C   UNL     1     -13.744  11.862  68.625  1.00  0.00     7.485 C  
HETATM   39  C   UNL     1      -6.090  16.999  63.936  1.00  0.00     7.953 C  
HETATM   40  C   UNL     1      -5.319  16.191  64.939  1.00  0.00     7.440 C  
HETATM   41  C   UNL     1      -7.012  18.221  64.359  1.00  0.00     3.227 C  
HETATM   42  C   UNL     1      -6.982  18.990  65.720  1.00  0.00    -0.302 C  
HETATM   43  C   UNL     1      -6.479  15.515  65.590  1.00  0.00     6.669 C  
HETATM   44  C   UNL     1      -6.394  15.507  66.935  1.00  0.00     0.577 C  
HETATM   45  C   UNL     1      -8.125  19.042  66.865  1.00  0.00    -0.265 C  
ENDROOT
BRANCH  16  46
HETATM   46  C   UNL     1     -12.421   6.833  64.649  1.00  0.00    13.530 C  
BRANCH  46  47
HETATM   47  C   UNL     1     -11.718   5.572  65.150  1.00  0.00     3.045 C  
HETATM   48  H   UNL     1     -11.044   3.906  64.364  1.00  0.00     0.000 HD 
HETATM   49  O   UNL     1     -11.481   4.691  64.052  1.00  0.00     0.493 OA 
BRANCH  47  50
HETATM   50  C   UNL     1     -12.455   4.836  66.283  1.00  0.00     8.006 C  
HETATM   51  N   UNL     1     -11.658   4.849  67.523  1.00  0.00     2.625 NA 
HETATM   52  H1  UNL     1     -12.147   4.361  68.274  1.00  0.00     0.000 HD 
HETATM   53  H2  UNL     1     -11.401   5.798  67.795  1.00  0.00     0.000 HD 
ENDBRANCH  47  50
ENDBRANCH  46  47
ENDBRANCH  16  46
BRANCH  18  54
HETATM   54  O   UNL     1     -10.425   7.917  66.053  1.00  0.00     0.510 OA 
HETATM   55  C   UNL     1      -9.346   8.336  66.883  1.00  0.00    -0.176 C  
ENDBRANCH  18  54
TORSDOF 4
ENDMDL
