MODEL        1
REMARK 921   NORMALIZED FREE ENERGY PREDICTED BY IDOCK:   -6.65 KCAL/MOL
REMARK 922        TOTAL FREE ENERGY PREDICTED BY IDOCK:  -12.06 KCAL/MOL
REMARK 923 INTER-LIGAND FREE ENERGY PREDICTED BY IDOCK:  -10.92 KCAL/MOL
REMARK 924 INTRA-LIGAND FREE ENERGY PREDICTED BY IDOCK:   -1.14 KCAL/MOL
REMARK 927      BINDING AFFINITY PREDICTED BY RF-SCORE:    0.00 PKD
ROOT
HETATM    1  C   UNL     1     -10.429  19.692  65.983  1.00  0.00    -0.523 C  
HETATM    2  O   UNL     1     -10.298  19.302  67.345  1.00  0.00    -0.379 OA 
ENDROOT
BRANCH   2   3
HETATM    3  C   UNL     1      -9.022  18.718  67.590  1.00  0.00    -0.279 C  
BRANCH   3   4
HETATM    4  C   UNL     1      -9.178  17.431  68.396  1.00  0.00    -0.277 C  
BRANCH   4   5
HETATM    5  O   UNL     1     -10.503  16.964  68.174  1.00  0.00    -0.315 OA 
BRANCH   5   6
HETATM    6  C   UNL     1     -11.094  16.110  69.055  1.00  0.00    -0.336 A  
HETATM    7  C   UNL     1     -11.381  16.466  70.379  1.00  0.00    -0.209 A  
HETATM    8  C   UNL     1     -11.964  15.585  71.277  1.00  0.00    -0.388 A  
HETATM    9  C   UNL     1     -12.320  14.299  70.848  1.00  0.00    -0.429 A  
HETATM   10  C   UNL     1     -12.059  13.943  69.497  1.00  0.00    -0.393 A  
HETATM   11  C   UNL     1     -12.923  13.481  71.831  1.00  0.00    -0.337 A  
HETATM   12  N   UNL     1     -13.097  13.915  73.094  1.00  0.00    -0.477 NA 
HETATM   13  C   UNL     1     -11.433  14.826  68.607  1.00  0.00    -0.302 A  
HETATM   14  N   UNL     1     -12.158  16.021  72.521  1.00  0.00    -0.495 NA 
HETATM   15  C   UNL     1     -12.709  15.160  73.376  1.00  0.00    -0.537 A  
BRANCH  11  16
HETATM   16  N   UNL     1     -13.416  12.200  71.470  1.00  0.00    -0.017 NA 
HETATM   17  H   UNL     1     -14.358  12.193  71.081  1.00  0.00     0.000 HD 
BRANCH  16  18
HETATM   18  C   UNL     1     -12.798  10.929  71.566  1.00  0.00    -0.454 A  
HETATM   19  C   UNL     1     -11.678  10.648  70.764  1.00  0.00    -0.435 A  
HETATM   20  C   UNL     1     -11.660   8.342  71.504  1.00  0.00    -0.338 A  
HETATM   21  C   UNL     1     -11.115   9.364  70.730  1.00  0.00    -0.365 A  
HETATM   22  C   UNL     1     -13.332   9.877  72.325  1.00  0.00    -0.429 A  
HETATM   23  C   UNL     1     -12.765   8.600  72.308  1.00  0.00    -0.450 A  
BRANCH  21  24
HETATM   24  C   UNL     1     -10.001   9.077  69.877  1.00  0.00    -0.203 C  
HETATM   25  C   UNL     1      -9.090   8.785  69.151  1.00  0.00    -0.141 C  
ENDBRANCH  21  24
ENDBRANCH  16  18
ENDBRANCH  11  16
BRANCH  13  26
HETATM   26  O   UNL     1     -11.231  14.274  67.362  1.00  0.00    -0.293 OA 
BRANCH  26  27
HETATM   27  C   UNL     1     -12.365  13.733  66.685  1.00  0.00    -0.357 C  
BRANCH  27  28
HETATM   28  C   UNL     1     -11.963  12.566  65.788  1.00  0.00    -0.420 C  
BRANCH  28  29
HETATM   29  O   UNL     1     -12.974  12.415  64.788  1.00  0.00    -0.786 OA 
HETATM   30  C   UNL     1     -12.426  12.117  63.514  1.00  0.00    -0.555 C  
ENDBRANCH  28  29
ENDBRANCH  27  28
ENDBRANCH  26  27
ENDBRANCH  13  26
ENDBRANCH   5   6
ENDBRANCH   4   5
ENDBRANCH   3   4
ENDBRANCH   2   3
TORSDOF 11
ENDMDL
MODEL        2
REMARK 921   NORMALIZED FREE ENERGY PREDICTED BY IDOCK:   -6.60 KCAL/MOL
REMARK 922        TOTAL FREE ENERGY PREDICTED BY IDOCK:  -11.98 KCAL/MOL
REMARK 923 INTER-LIGAND FREE ENERGY PREDICTED BY IDOCK:  -10.81 KCAL/MOL
REMARK 924 INTRA-LIGAND FREE ENERGY PREDICTED BY IDOCK:   -1.16 KCAL/MOL
REMARK 927      BINDING AFFINITY PREDICTED BY RF-SCORE:    0.00 PKD
ROOT
HETATM    1  C   UNL     1      -7.923  16.683  66.276  1.00  0.00    -0.305 C  
HETATM    2  O   UNL     1      -8.736  17.756  65.813  1.00  0.00    -0.502 OA 
ENDROOT
BRANCH   2   3
HETATM    3  C   UNL     1      -9.546  18.274  66.863  1.00  0.00    -0.296 C  
BRANCH   3   4
HETATM    4  C   UNL     1      -9.455  17.373  68.092  1.00  0.00    -0.288 C  
BRANCH   4   5
HETATM    5  O   UNL     1     -10.773  16.910  68.363  1.00  0.00    -0.344 OA 
BRANCH   5   6
HETATM    6  C   UNL     1     -11.045  15.576  68.399  1.00  0.00    -0.315 A  
HETATM    7  C   UNL     1     -10.616  14.689  67.405  1.00  0.00    -0.265 A  
HETATM    8  C   UNL     1     -10.915  13.335  67.437  1.00  0.00    -0.271 A  
HETATM    9  C   UNL     1     -11.641  12.815  68.517  1.00  0.00    -0.358 A  
HETATM   10  C   UNL     1     -12.054  13.707  69.544  1.00  0.00    -0.368 A  
HETATM   11  C   UNL     1     -11.881  11.422  68.467  1.00  0.00    -0.294 A  
HETATM   12  N   UNL     1     -11.466  10.676  67.426  1.00  0.00    -0.410 NA 
HETATM   13  C   UNL     1     -11.781  15.080  69.484  1.00  0.00    -0.322 A  
HETATM   14  N   UNL     1     -10.484  12.591  66.419  1.00  0.00    -0.244 NA 
HETATM   15  C   UNL     1     -10.788  11.294  66.457  1.00  0.00    -0.265 A  
BRANCH  11  16
HETATM   16  N   UNL     1     -12.516  10.781  69.563  1.00  0.00    -0.596 NA 
HETATM   17  H   UNL     1     -13.525  10.912  69.615  1.00  0.00     0.000 HD 
BRANCH  16  18
HETATM   18  C   UNL     1     -11.960   9.987  70.596  1.00  0.00    -0.313 A  
HETATM   19  C   UNL     1     -10.571   9.776  70.627  1.00  0.00    -0.382 A  
HETATM   20  C   UNL     1     -10.795   8.214  72.464  1.00  0.00    -0.431 A  
HETATM   21  C   UNL     1      -9.992   8.894  71.551  1.00  0.00    -0.391 A  
HETATM   22  C   UNL     1     -12.744   9.280  71.519  1.00  0.00    -0.426 A  
HETATM   23  C   UNL     1     -12.171   8.412  72.453  1.00  0.00    -0.430 A  
BRANCH  21  24
HETATM   24  C   UNL     1      -8.580   8.652  71.547  1.00  0.00    -0.256 C  
HETATM   25  C   UNL     1      -7.394   8.472  71.596  1.00  0.00    -0.118 C  
ENDBRANCH  21  24
ENDBRANCH  16  18
ENDBRANCH  11  16
BRANCH  13  26
HETATM   26  O   UNL     1     -12.305  15.774  70.552  1.00  0.00    -0.402 OA 
BRANCH  26  27
HETATM   27  C   UNL     1     -12.633  15.033  71.726  1.00  0.00    -0.341 C  
BRANCH  27  28
HETATM   28  C   UNL     1     -13.899  15.577  72.381  1.00  0.00    -0.568 C  
BRANCH  28  29
HETATM   29  O   UNL     1     -13.517  16.229  73.596  1.00  0.00    -0.653 OA 
HETATM   30  C   UNL     1     -12.361  15.646  74.176  1.00  0.00    -0.662 C  
ENDBRANCH  28  29
ENDBRANCH  27  28
ENDBRANCH  26  27
ENDBRANCH  13  26
ENDBRANCH   5   6
ENDBRANCH   4   5
ENDBRANCH   3   4
ENDBRANCH   2   3
TORSDOF 11
ENDMDL
MODEL        3
REMARK 921   NORMALIZED FREE ENERGY PREDICTED BY IDOCK:   -6.59 KCAL/MOL
REMARK 922        TOTAL FREE ENERGY PREDICTED BY IDOCK:  -11.97 KCAL/MOL
REMARK 923 INTER-LIGAND FREE ENERGY PREDICTED BY IDOCK:  -10.69 KCAL/MOL
REMARK 924 INTRA-LIGAND FREE ENERGY PREDICTED BY IDOCK:   -1.28 KCAL/MOL
REMARK 927      BINDING AFFINITY PREDICTED BY RF-SCORE:    0.00 PKD
ROOT
HETATM    1  C   UNL     1      -7.326  20.628  66.984  1.00  0.00    -0.316 C  
HETATM    2  O   UNL     1      -8.330  20.172  66.085  1.00  0.00    -0.295 OA 
ENDROOT
BRANCH   2   3
HETATM    3  C   UNL     1      -9.632  20.367  66.629  1.00  0.00    -0.340 C  
BRANCH   3   4
HETATM    4  C   UNL     1     -10.586  19.296  66.108  1.00  0.00    -0.459 C  
BRANCH   4   5
HETATM    5  O   UNL     1      -9.791  18.170  65.755  1.00  0.00    -0.527 OA 
BRANCH   5   6
HETATM    6  C   UNL     1     -10.181  16.911  66.096  1.00  0.00    -0.341 A  
HETATM    7  C   UNL     1     -10.842  16.056  65.206  1.00  0.00    -0.376 A  
HETATM    8  C   UNL     1     -11.254  14.782  65.567  1.00  0.00    -0.346 A  
HETATM    9  C   UNL     1     -10.972  14.304  66.854  1.00  0.00    -0.304 A  
HETATM   10  C   UNL     1     -10.275  15.158  67.752  1.00  0.00    -0.236 A  
HETATM   11  C   UNL     1     -11.419  12.990  67.121  1.00  0.00    -0.331 A  
HETATM   12  N   UNL     1     -12.099  12.280  66.200  1.00  0.00    -0.627 NA 
HETATM   13  C   UNL     1      -9.896  16.459  67.392  1.00  0.00    -0.244 A  
HETATM   14  N   UNL     1     -11.907  14.069  64.649  1.00  0.00    -0.396 NA 
HETATM   15  C   UNL     1     -12.307  12.851  65.013  1.00  0.00    -0.485 A  
BRANCH  11  16
HETATM   16  N   UNL     1     -11.090  12.376  68.358  1.00  0.00    -0.233 NA 
HETATM   17  H   UNL     1     -10.141  12.007  68.419  1.00  0.00     0.000 HD 
BRANCH  16  18
HETATM   18  C   UNL     1     -11.878  12.197  69.521  1.00  0.00    -0.321 A  
HETATM   19  C   UNL     1     -12.247  13.323  70.279  1.00  0.00    -0.391 A  
HETATM   20  C   UNL     1     -13.229  11.917  71.988  1.00  0.00    -0.461 A  
HETATM   21  C   UNL     1     -12.914  13.185  71.505  1.00  0.00    -0.412 A  
HETATM   22  C   UNL     1     -12.198  10.935  70.039  1.00  0.00    -0.422 A  
HETATM   23  C   UNL     1     -12.878  10.791  71.251  1.00  0.00    -0.540 A  
BRANCH  21  24
HETATM   24  C   UNL     1     -13.246  14.334  72.291  1.00  0.00    -0.508 C  
HETATM   25  C   UNL     1     -13.522  15.330  72.903  1.00  0.00    -0.611 C  
ENDBRANCH  21  24
ENDBRANCH  16  18
ENDBRANCH  11  16
BRANCH  13  26
HETATM   26  O   UNL     1      -9.272  17.134  68.417  1.00  0.00    -0.250 OA 
BRANCH  26  27
HETATM   27  C   UNL     1      -7.855  17.285  68.345  1.00  0.00    -0.254 C  
BRANCH  27  28
HETATM   28  C   UNL     1      -7.147  16.186  69.131  1.00  0.00    -0.209 C  
BRANCH  28  29
HETATM   29  O   UNL     1      -6.193  16.811  69.994  1.00  0.00    -0.214 OA 
HETATM   30  C   UNL     1      -6.031  18.190  69.703  1.00  0.00    -0.244 C  
ENDBRANCH  28  29
ENDBRANCH  27  28
ENDBRANCH  26  27
ENDBRANCH  13  26
ENDBRANCH   5   6
ENDBRANCH   4   5
ENDBRANCH   3   4
ENDBRANCH   2   3
TORSDOF 11
ENDMDL
MODEL        4
REMARK 921   NORMALIZED FREE ENERGY PREDICTED BY IDOCK:   -6.57 KCAL/MOL
REMARK 922        TOTAL FREE ENERGY PREDICTED BY IDOCK:  -11.93 KCAL/MOL
REMARK 923 INTER-LIGAND FREE ENERGY PREDICTED BY IDOCK:  -10.51 KCAL/MOL
REMARK 924 INTRA-LIGAND FREE ENERGY PREDICTED BY IDOCK:   -1.42 KCAL/MOL
REMARK 927      BINDING AFFINITY PREDICTED BY RF-SCORE:    0.00 PKD
ROOT
HETATM    1  C   UNL     1      -8.149  19.065  66.323  1.00  0.00    -0.285 C  
HETATM    2  O   UNL     1      -8.975  20.182  66.629  1.00  0.00    -0.338 OA 
ENDROOT
BRANCH   2   3
HETATM    3  C   UNL     1      -9.578  20.037  67.911  1.00  0.00    -0.367 C  
BRANCH   3   4
HETATM    4  C   UNL     1      -9.287  18.649  68.476  1.00  0.00    -0.346 C  
BRANCH   4   5
HETATM    5  O   UNL     1     -10.545  18.029  68.717  1.00  0.00    -0.249 OA 
BRANCH   5   6
HETATM    6  C   UNL     1     -10.819  16.796  68.210  1.00  0.00    -0.366 A  
HETATM    7  C   UNL     1     -10.529  16.439  66.887  1.00  0.00    -0.289 A  
HETATM    8  C   UNL     1     -10.830  15.188  66.371  1.00  0.00    -0.326 A  
HETATM    9  C   UNL     1     -11.411  14.221  67.202  1.00  0.00    -0.377 A  
HETATM   10  C   UNL     1     -11.681  14.569  68.554  1.00  0.00    -0.353 A  
HETATM   11  C   UNL     1     -11.665  12.972  66.590  1.00  0.00    -0.381 A  
HETATM   12  N   UNL     1     -11.394  12.763  65.287  1.00  0.00    -0.295 NA 
HETATM   13  C   UNL     1     -11.409  15.848  69.057  1.00  0.00    -0.371 A  
HETATM   14  N   UNL     1     -10.541  14.971  65.089  1.00  0.00    -0.392 NA 
HETATM   15  C   UNL     1     -10.846  13.768  64.603  1.00  0.00    -0.406 A  
BRANCH  11  16
HETATM   16  N   UNL     1     -12.154  11.894  67.373  1.00  0.00    -0.523 NA 
HETATM   17  H   UNL     1     -13.129  11.647  67.208  1.00  0.00     0.000 HD 
BRANCH  16  18
HETATM   18  C   UNL     1     -11.494  11.108  68.349  1.00  0.00    -0.306 A  
HETATM   19  C   UNL     1     -12.219  10.647  69.463  1.00  0.00    -0.230 A  
HETATM   20  C   UNL     1     -10.206   9.752  70.469  1.00  0.00    -0.321 A  
HETATM   21  C   UNL     1     -11.580   9.978  70.516  1.00  0.00    -0.403 A  
HETATM   22  C   UNL     1     -10.112  10.877  68.335  1.00  0.00    -0.196 A  
HETATM   23  C   UNL     1      -9.472  10.195  69.374  1.00  0.00    -0.240 A  
BRANCH  21  24
HETATM   24  C   UNL     1     -12.318   9.551  71.667  1.00  0.00    -0.480 C  
HETATM   25  C   UNL     1     -12.925   9.242  72.656  1.00  0.00    -0.282 C  
ENDBRANCH  21  24
ENDBRANCH  16  18
ENDBRANCH  11  16
BRANCH  13  26
HETATM   26  O   UNL     1     -11.785  15.994  70.374  1.00  0.00    -0.348 OA 
BRANCH  26  27
HETATM   27  C   UNL     1     -13.024  15.411  70.778  1.00  0.00    -0.453 C  
BRANCH  27  28
HETATM   28  C   UNL     1     -13.207  15.506  72.289  1.00  0.00    -0.448 C  
BRANCH  28  29
HETATM   29  O   UNL     1     -13.847  14.304  72.728  1.00  0.00    -0.612 OA 
HETATM   30  C   UNL     1     -13.303  13.150  72.106  1.00  0.00    -0.524 C  
ENDBRANCH  28  29
ENDBRANCH  27  28
ENDBRANCH  26  27
ENDBRANCH  13  26
ENDBRANCH   5   6
ENDBRANCH   4   5
ENDBRANCH   3   4
ENDBRANCH   2   3
TORSDOF 11
ENDMDL
MODEL        5
REMARK 921   NORMALIZED FREE ENERGY PREDICTED BY IDOCK:   -6.47 KCAL/MOL
REMARK 922        TOTAL FREE ENERGY PREDICTED BY IDOCK:  -11.76 KCAL/MOL
REMARK 923 INTER-LIGAND FREE ENERGY PREDICTED BY IDOCK:  -10.82 KCAL/MOL
REMARK 924 INTRA-LIGAND FREE ENERGY PREDICTED BY IDOCK:   -0.94 KCAL/MOL
REMARK 927      BINDING AFFINITY PREDICTED BY RF-SCORE:    0.00 PKD
ROOT
HETATM    1  C   UNL     1     -11.112   7.584  72.613  1.00  0.00    -0.347 C  
HETATM    2  O   UNL     1     -12.275   7.952  71.882  1.00  0.00    -0.292 OA 
ENDROOT
BRANCH   2   3
HETATM    3  C   UNL     1     -12.503   9.357  71.956  1.00  0.00    -0.365 C  
BRANCH   3   4
HETATM    4  C   UNL     1     -11.646  10.085  70.924  1.00  0.00    -0.378 C  
BRANCH   4   5
HETATM    5  O   UNL     1     -12.539  10.801  70.077  1.00  0.00    -0.308 OA 
BRANCH   5   6
HETATM    6  C   UNL     1     -12.129  11.928  69.433  1.00  0.00    -0.216 A  
HETATM    7  C   UNL     1     -11.632  11.914  68.125  1.00  0.00    -0.400 A  
HETATM    8  C   UNL     1     -11.197  13.063  67.482  1.00  0.00    -0.284 A  
HETATM    9  C   UNL     1     -11.289  14.297  68.139  1.00  0.00    -0.313 A  
HETATM   10  C   UNL     1     -11.822  14.321  69.457  1.00  0.00    -0.378 A  
HETATM   11  C   UNL     1     -10.837  15.412  67.396  1.00  0.00    -0.309 A  
HETATM   12  N   UNL     1     -10.322  15.268  66.160  1.00  0.00    -0.286 NA 
HETATM   13  C   UNL     1     -12.222  13.149  70.114  1.00  0.00    -0.290 A  
HETATM   14  N   UNL     1     -10.710  12.926  66.249  1.00  0.00    -0.272 NA 
HETATM   15  C   UNL     1     -10.285  14.037  65.648  1.00  0.00    -0.334 A  
BRANCH  11  16
HETATM   16  N   UNL     1     -10.985  16.718  67.932  1.00  0.00    -0.308 NA 
HETATM   17  H   UNL     1     -11.747  16.827  68.601  1.00  0.00     0.000 HD 
BRANCH  16  18
HETATM   18  C   UNL     1     -10.237  17.894  67.680  1.00  0.00    -0.365 A  
HETATM   19  C   UNL     1      -8.981  18.051  68.292  1.00  0.00    -0.288 A  
HETATM   20  C   UNL     1      -8.790  20.310  67.439  1.00  0.00    -0.442 A  
HETATM   21  C   UNL     1      -8.264  19.251  68.176  1.00  0.00    -0.354 A  
HETATM   22  C   UNL     1     -10.746  18.981  66.955  1.00  0.00    -0.516 A  
HETATM   23  C   UNL     1     -10.028  20.173  66.822  1.00  0.00    -0.604 A  
BRANCH  21  24
HETATM   24  C   UNL     1      -7.005  19.418  68.839  1.00  0.00    -0.384 C  
HETATM   25  C   UNL     1      -5.946  19.502  69.398  1.00  0.00    -0.300 C  
ENDBRANCH  21  24
ENDBRANCH  16  18
ENDBRANCH  11  16
BRANCH  13  26
HETATM   26  O   UNL     1     -12.665  13.383  71.397  1.00  0.00    -0.350 OA 
BRANCH  26  27
HETATM   27  C   UNL     1     -12.457  14.685  71.942  1.00  0.00    -0.341 C  
BRANCH  27  28
HETATM   28  C   UNL     1     -13.785  15.364  72.262  1.00  0.00    -0.526 C  
BRANCH  28  29
HETATM   29  O   UNL     1     -13.589  16.185  73.417  1.00  0.00    -0.615 OA 
HETATM   30  C   UNL     1     -12.510  15.733  74.219  1.00  0.00    -0.654 C  
ENDBRANCH  28  29
ENDBRANCH  27  28
ENDBRANCH  26  27
ENDBRANCH  13  26
ENDBRANCH   5   6
ENDBRANCH   4   5
ENDBRANCH   3   4
ENDBRANCH   2   3
TORSDOF 11
ENDMDL
MODEL        6
REMARK 921   NORMALIZED FREE ENERGY PREDICTED BY IDOCK:   -6.44 KCAL/MOL
REMARK 922        TOTAL FREE ENERGY PREDICTED BY IDOCK:  -11.72 KCAL/MOL
REMARK 923 INTER-LIGAND FREE ENERGY PREDICTED BY IDOCK:  -10.35 KCAL/MOL
REMARK 924 INTRA-LIGAND FREE ENERGY PREDICTED BY IDOCK:   -1.37 KCAL/MOL
REMARK 927      BINDING AFFINITY PREDICTED BY RF-SCORE:    0.00 PKD
ROOT
HETATM    1  C   UNL     1      -8.104  18.634  66.306  1.00  0.00    -0.244 C  
HETATM    2  O   UNL     1      -9.183  19.561  66.291  1.00  0.00    -0.353 OA 
ENDROOT
BRANCH   2   3
HETATM    3  C   UNL     1      -9.861  19.577  67.544  1.00  0.00    -0.358 C  
BRANCH   3   4
HETATM    4  C   UNL     1      -9.542  18.309  68.332  1.00  0.00    -0.335 C  
BRANCH   4   5
HETATM    5  O   UNL     1     -10.784  17.677  68.618  1.00  0.00    -0.289 OA 
BRANCH   5   6
HETATM    6  C   UNL     1     -10.991  16.373  68.288  1.00  0.00    -0.355 A  
HETATM    7  C   UNL     1     -10.564  15.821  67.074  1.00  0.00    -0.316 A  
HETATM    8  C   UNL     1     -10.796  14.496  66.736  1.00  0.00    -0.305 A  
HETATM    9  C   UNL     1     -11.447  13.656  67.649  1.00  0.00    -0.357 A  
HETATM   10  C   UNL     1     -11.856  14.203  68.895  1.00  0.00    -0.382 A  
HETATM   11  C   UNL     1     -11.622  12.320  67.220  1.00  0.00    -0.357 A  
HETATM   12  N   UNL     1     -11.218  11.917  66.000  1.00  0.00    -0.329 NA 
HETATM   13  C   UNL     1     -11.652  15.553  69.213  1.00  0.00    -0.357 A  
HETATM   14  N   UNL     1     -10.375  14.090  65.539  1.00  0.00    -0.322 NA 
HETATM   15  C   UNL     1     -10.615  12.817  65.223  1.00  0.00    -0.290 A  
BRANCH  11  16
HETATM   16  N   UNL     1     -12.175  11.365  68.112  1.00  0.00    -0.523 NA 
HETATM   17  H   UNL     1     -13.137  11.092  67.911  1.00  0.00     0.000 HD 
BRANCH  16  18
HETATM   18  C   UNL     1     -11.596  10.732  69.239  1.00  0.00    -0.305 A  
HETATM   19  C   UNL     1     -10.250  10.328  69.182  1.00  0.00    -0.234 A  
HETATM   20  C   UNL     1     -10.430   9.238  71.337  1.00  0.00    -0.408 A  
HETATM   21  C   UNL     1      -9.672   9.584  70.221  1.00  0.00    -0.314 A  
HETATM   22  C   UNL     1     -12.337  10.359  70.369  1.00  0.00    -0.370 A  
HETATM   23  C   UNL     1     -11.761   9.632  71.415  1.00  0.00    -0.478 A  
BRANCH  21  24
HETATM   24  C   UNL     1      -8.313   9.140  70.134  1.00  0.00    -0.174 C  
HETATM   25  C   UNL     1      -7.164   8.795  70.111  1.00  0.00    -0.054 C  
ENDBRANCH  21  24
ENDBRANCH  16  18
ENDBRANCH  11  16
BRANCH  13  26
HETATM   26  O   UNL     1     -12.161  15.893  70.447  1.00  0.00    -0.372 OA 
BRANCH  26  27
HETATM   27  C   UNL     1     -13.341  15.219  70.885  1.00  0.00    -0.419 C  
BRANCH  27  28
HETATM   28  C   UNL     1     -13.669  15.574  72.331  1.00  0.00    -0.559 C  
BRANCH  28  29
HETATM   29  O   UNL     1     -13.484  14.396  73.123  1.00  0.00    -0.625 OA 
HETATM   30  C   UNL     1     -13.553  13.212  72.345  1.00  0.00    -0.567 C  
ENDBRANCH  28  29
ENDBRANCH  27  28
ENDBRANCH  26  27
ENDBRANCH  13  26
ENDBRANCH   5   6
ENDBRANCH   4   5
ENDBRANCH   3   4
ENDBRANCH   2   3
TORSDOF 11
ENDMDL
MODEL        7
REMARK 921   NORMALIZED FREE ENERGY PREDICTED BY IDOCK:   -6.38 KCAL/MOL
REMARK 922        TOTAL FREE ENERGY PREDICTED BY IDOCK:  -11.62 KCAL/MOL
REMARK 923 INTER-LIGAND FREE ENERGY PREDICTED BY IDOCK:  -10.41 KCAL/MOL
REMARK 924 INTRA-LIGAND FREE ENERGY PREDICTED BY IDOCK:   -1.21 KCAL/MOL
REMARK 927      BINDING AFFINITY PREDICTED BY RF-SCORE:    0.00 PKD
ROOT
HETATM    1  C   UNL     1     -11.548   6.656  69.977  1.00  0.00    -0.362 C  
HETATM    2  O   UNL     1     -11.859   7.138  71.279  1.00  0.00    -0.285 OA 
ENDROOT
BRANCH   2   3
HETATM    3  C   UNL     1     -13.268   7.167  71.491  1.00  0.00    -0.360 C  
BRANCH   3   4
HETATM    4  C   UNL     1     -13.728   8.593  71.782  1.00  0.00    -0.417 C  
BRANCH   4   5
HETATM    5  O   UNL     1     -12.557   9.401  71.837  1.00  0.00    -0.358 OA 
BRANCH   5   6
HETATM    6  C   UNL     1     -12.593  10.702  71.439  1.00  0.00    -0.421 A  
HETATM    7  C   UNL     1     -13.190  11.712  72.204  1.00  0.00    -0.327 A  
HETATM    8  C   UNL     1     -13.241  13.032  71.782  1.00  0.00    -0.392 A  
HETATM    9  C   UNL     1     -12.644  13.391  70.567  1.00  0.00    -0.281 A  
HETATM   10  C   UNL     1     -12.011  12.375  69.801  1.00  0.00    -0.359 A  
HETATM   11  C   UNL     1     -12.735  14.762  70.232  1.00  0.00    -0.276 A  
HETATM   12  N   UNL     1     -13.387  15.635  71.023  1.00  0.00    -0.568 NA 
HETATM   13  C   UNL     1     -11.998  11.036  70.215  1.00  0.00    -0.365 A  
HETATM   14  N   UNL     1     -13.866  13.902  72.576  1.00  0.00    -0.680 NA 
HETATM   15  C   UNL     1     -13.917  15.165  72.153  1.00  0.00    -0.533 A  
BRANCH  11  16
HETATM   16  N   UNL     1     -12.071  15.246  69.074  1.00  0.00    -0.567 NA 
HETATM   17  H   UNL     1     -12.559  15.078  68.194  1.00  0.00     0.000 HD 
BRANCH  16  18
HETATM   18  C   UNL     1     -10.835  15.925  68.952  1.00  0.00    -0.274 A  
HETATM   19  C   UNL     1     -10.792  17.154  68.271  1.00  0.00    -0.314 A  
HETATM   20  C   UNL     1      -8.377  17.226  68.441  1.00  0.00    -0.261 A  
HETATM   21  C   UNL     1      -9.573  17.798  68.013  1.00  0.00    -0.291 A  
HETATM   22  C   UNL     1      -9.615  15.368  69.359  1.00  0.00    -0.270 A  
HETATM   23  C   UNL     1      -8.398  16.013  69.121  1.00  0.00    -0.244 A  
BRANCH  21  24
HETATM   24  C   UNL     1      -9.536  19.028  67.280  1.00  0.00    -0.353 C  
HETATM   25  C   UNL     1      -9.560  20.064  66.674  1.00  0.00    -0.548 C  
ENDBRANCH  21  24
ENDBRANCH  16  18
ENDBRANCH  11  16
BRANCH  13  26
HETATM   26  O   UNL     1     -11.375  10.205  69.311  1.00  0.00    -0.217 OA 
BRANCH  26  27
HETATM   27  C   UNL     1     -11.186  10.693  67.984  1.00  0.00    -0.307 C  
BRANCH  27  28
HETATM   28  C   UNL     1      -9.884  10.168  67.388  1.00  0.00    -0.187 C  
BRANCH  28  29
HETATM   29  O   UNL     1     -10.206   9.469  66.181  1.00  0.00    -0.273 OA 
HETATM   30  C   UNL     1      -9.853  10.209  65.024  1.00  0.00    -0.322 C  
ENDBRANCH  28  29
ENDBRANCH  27  28
ENDBRANCH  26  27
ENDBRANCH  13  26
ENDBRANCH   5   6
ENDBRANCH   4   5
ENDBRANCH   3   4
ENDBRANCH   2   3
TORSDOF 11
ENDMDL
MODEL        8
REMARK 921   NORMALIZED FREE ENERGY PREDICTED BY IDOCK:   -6.36 KCAL/MOL
REMARK 922        TOTAL FREE ENERGY PREDICTED BY IDOCK:  -11.58 KCAL/MOL
REMARK 923 INTER-LIGAND FREE ENERGY PREDICTED BY IDOCK:  -10.29 KCAL/MOL
REMARK 924 INTRA-LIGAND FREE ENERGY PREDICTED BY IDOCK:   -1.29 KCAL/MOL
REMARK 927      BINDING AFFINITY PREDICTED BY RF-SCORE:    0.00 PKD
ROOT
HETATM    1  C   UNL     1     -11.703   6.296  71.918  1.00  0.00    -0.316 C  
HETATM    2  O   UNL     1     -12.516   7.153  71.126  1.00  0.00    -0.358 OA 
ENDROOT
BRANCH   2   3
HETATM    3  C   UNL     1     -13.842   7.224  71.644  1.00  0.00    -0.349 C  
BRANCH   3   4
HETATM    4  C   UNL     1     -14.318   8.674  71.675  1.00  0.00    -0.368 C  
BRANCH   4   5
HETATM    5  O   UNL     1     -13.244   9.451  72.193  1.00  0.00    -0.403 OA 
BRANCH   5   6
HETATM    6  C   UNL     1     -12.922  10.650  71.634  1.00  0.00    -0.477 A  
HETATM    7  C   UNL     1     -13.461  11.863  72.079  1.00  0.00    -0.336 A  
HETATM    8  C   UNL     1     -13.145  13.078  71.492  1.00  0.00    -0.310 A  
HETATM    9  C   UNL     1     -12.223  13.114  70.437  1.00  0.00    -0.389 A  
HETATM   10  C   UNL     1     -11.650  11.889  70.000  1.00  0.00    -0.301 A  
HETATM   11  C   UNL     1     -11.954  14.401  69.915  1.00  0.00    -0.335 A  
HETATM   12  N   UNL     1     -12.580  15.494  70.389  1.00  0.00    -0.418 NA 
HETATM   13  C   UNL     1     -12.006  10.660  70.574  1.00  0.00    -0.352 A  
HETATM   14  N   UNL     1     -13.746  14.165  71.976  1.00  0.00    -0.420 NA 
HETATM   15  C   UNL     1     -13.440  15.325  71.394  1.00  0.00    -0.505 A  
BRANCH  11  16
HETATM   16  N   UNL     1     -10.957  14.557  68.916  1.00  0.00    -0.247 NA 
HETATM   17  H   UNL     1      -9.997  14.449  69.243  1.00  0.00     0.000 HD 
BRANCH  16  18
HETATM   18  C   UNL     1     -11.092  14.839  67.535  1.00  0.00    -0.319 A  
HETATM   19  C   UNL     1     -11.628  13.857  66.683  1.00  0.00    -0.392 A  
HETATM   20  C   UNL     1     -11.162  15.216  64.734  1.00  0.00    -0.396 A  
HETATM   21  C   UNL     1     -11.660  14.041  65.294  1.00  0.00    -0.339 A  
HETATM   22  C   UNL     1     -10.587  16.005  66.942  1.00  0.00    -0.300 A  
HETATM   23  C   UNL     1     -10.632  16.202  65.559  1.00  0.00    -0.394 A  
BRANCH  21  24
HETATM   24  C   UNL     1     -12.168  13.017  64.431  1.00  0.00    -0.471 C  
HETATM   25  C   UNL     1     -12.567  12.184  63.664  1.00  0.00    -0.616 C  
ENDBRANCH  21  24
ENDBRANCH  16  18
ENDBRANCH  11  16
BRANCH  13  26
HETATM   26  O   UNL     1     -11.373   9.592  69.979  1.00  0.00    -0.233 OA 
BRANCH  26  27
HETATM   27  C   UNL     1      -9.946   9.605  69.940  1.00  0.00    -0.241 C  
BRANCH  27  28
HETATM   28  C   UNL     1      -9.415   8.550  68.975  1.00  0.00    -0.150 C  
BRANCH  28  29
HETATM   29  O   UNL     1     -10.533   7.807  68.481  1.00  0.00    -0.202 OA 
HETATM   30  C   UNL     1     -10.506   7.673  67.069  1.00  0.00    -0.349 C  
ENDBRANCH  28  29
ENDBRANCH  27  28
ENDBRANCH  26  27
ENDBRANCH  13  26
ENDBRANCH   5   6
ENDBRANCH   4   5
ENDBRANCH   3   4
ENDBRANCH   2   3
TORSDOF 11
ENDMDL
MODEL        9
REMARK 921   NORMALIZED FREE ENERGY PREDICTED BY IDOCK:   -6.24 KCAL/MOL
REMARK 922        TOTAL FREE ENERGY PREDICTED BY IDOCK:  -11.39 KCAL/MOL
REMARK 923 INTER-LIGAND FREE ENERGY PREDICTED BY IDOCK:  -10.21 KCAL/MOL
REMARK 924 INTRA-LIGAND FREE ENERGY PREDICTED BY IDOCK:   -1.18 KCAL/MOL
REMARK 927      BINDING AFFINITY PREDICTED BY RF-SCORE:    0.00 PKD
ROOT
HETATM    1  C   UNL     1      -8.264  19.155  68.518  1.00  0.00    -0.364 C  
HETATM    2  O   UNL     1      -9.133  19.262  67.397  1.00  0.00    -0.288 OA 
ENDROOT
BRANCH   2   3
HETATM    3  C   UNL     1     -10.411  18.704  67.685  1.00  0.00    -0.423 C  
BRANCH   3   4
HETATM    4  C   UNL     1     -10.255  17.417  68.491  1.00  0.00    -0.369 C  
BRANCH   4   5
HETATM    5  O   UNL     1     -11.149  16.465  67.927  1.00  0.00    -0.326 OA 
BRANCH   5   6
HETATM    6  C   UNL     1     -11.517  15.358  68.629  1.00  0.00    -0.346 A  
HETATM    7  C   UNL     1     -12.169  15.427  69.866  1.00  0.00    -0.363 A  
HETATM    8  C   UNL     1     -12.522  14.295  70.585  1.00  0.00    -0.358 A  
HETATM    9  C   UNL     1     -12.257  13.028  70.049  1.00  0.00    -0.306 A  
HETATM   10  C   UNL     1     -11.622  12.952  68.779  1.00  0.00    -0.351 A  
HETATM   11  C   UNL     1     -12.669  11.937  70.849  1.00  0.00    -0.209 A  
HETATM   12  N   UNL     1     -13.238  12.127  72.054  1.00  0.00    -0.471 NA 
HETATM   13  C   UNL     1     -11.233  14.101  68.077  1.00  0.00    -0.281 A  
HETATM   14  N   UNL     1     -13.107  14.482  71.768  1.00  0.00    -0.327 NA 
HETATM   15  C   UNL     1     -13.430  13.385  72.453  1.00  0.00    -0.584 A  
BRANCH  11  16
HETATM   16  N   UNL     1     -12.542  10.614  70.349  1.00  0.00    -0.384 NA 
HETATM   17  H   UNL     1     -13.385  10.231  69.923  1.00  0.00     0.000 HD 
BRANCH  16  18
HETATM   18  C   UNL     1     -11.423   9.746  70.350  1.00  0.00    -0.280 A  
HETATM   19  C   UNL     1     -10.926   9.271  71.576  1.00  0.00    -0.446 A  
HETATM   20  C   UNL     1      -9.047   8.219  70.467  1.00  0.00    -0.154 A  
HETATM   21  C   UNL     1      -9.745   8.517  71.636  1.00  0.00    -0.322 A  
HETATM   22  C   UNL     1     -10.693   9.442  69.193  1.00  0.00    -0.216 A  
HETATM   23  C   UNL     1      -9.525   8.676  69.244  1.00  0.00    -0.158 A  
BRANCH  21  24
HETATM   24  C   UNL     1      -9.222   8.074  72.893  1.00  0.00    -0.332 C  
HETATM   25  C   UNL     1      -8.837   7.690  73.964  1.00  0.00    -0.305 C  
ENDBRANCH  21  24
ENDBRANCH  16  18
ENDBRANCH  11  16
BRANCH  13  26
HETATM   26  O   UNL     1     -10.595  13.810  66.892  1.00  0.00    -0.273 OA 
BRANCH  26  27
HETATM   27  C   UNL     1     -11.348  13.139  65.882  1.00  0.00    -0.311 C  
BRANCH  27  28
HETATM   28  C   UNL     1     -12.406  14.060  65.284  1.00  0.00    -0.465 C  
BRANCH  28  29
HETATM   29  O   UNL     1     -12.698  13.592  63.964  1.00  0.00    -0.660 OA 
HETATM   30  C   UNL     1     -11.844  12.529  63.573  1.00  0.00    -0.534 C  
ENDBRANCH  28  29
ENDBRANCH  27  28
ENDBRANCH  26  27
ENDBRANCH  13  26
ENDBRANCH   5   6
ENDBRANCH   4   5
ENDBRANCH   3   4
ENDBRANCH   2   3
TORSDOF 11
ENDMDL
MODEL       10
REMARK 921   NORMALIZED FREE ENERGY PREDICTED BY IDOCK:   -6.23 KCAL/MOL
REMARK 922        TOTAL FREE ENERGY PREDICTED BY IDOCK:  -11.37 KCAL/MOL
REMARK 923 INTER-LIGAND FREE ENERGY PREDICTED BY IDOCK:  -10.29 KCAL/MOL
REMARK 924 INTRA-LIGAND FREE ENERGY PREDICTED BY IDOCK:   -1.08 KCAL/MOL
REMARK 927      BINDING AFFINITY PREDICTED BY RF-SCORE:    0.00 PKD
ROOT
HETATM    1  C   UNL     1     -10.503  18.934  66.088  1.00  0.00    -0.457 C  
HETATM    2  O   UNL     1      -9.630  17.857  65.769  1.00  0.00    -0.514 OA 
ENDROOT
BRANCH   2   3
HETATM    3  C   UNL     1     -10.282  16.602  65.939  1.00  0.00    -0.340 C  
BRANCH   3   4
HETATM    4  C   UNL     1     -10.619  16.378  67.410  1.00  0.00    -0.306 C  
BRANCH   4   5
HETATM    5  O   UNL     1      -9.976  15.171  67.803  1.00  0.00    -0.223 OA 
BRANCH   5   6
HETATM    6  C   UNL     1     -10.637  14.242  68.546  1.00  0.00    -0.257 A  
HETATM    7  C   UNL     1     -11.434  14.580  69.647  1.00  0.00    -0.332 A  
HETATM    8  C   UNL     1     -12.088  13.626  70.412  1.00  0.00    -0.351 A  
HETATM    9  C   UNL     1     -11.989  12.273  70.060  1.00  0.00    -0.379 A  
HETATM   10  C   UNL     1     -11.205  11.928  68.926  1.00  0.00    -0.310 A  
HETATM   11  C   UNL     1     -12.704  11.380  70.891  1.00  0.00    -0.303 A  
HETATM   12  N   UNL     1     -13.393  11.818  71.961  1.00  0.00    -0.438 NA 
HETATM   13  C   UNL     1     -10.515  12.894  68.181  1.00  0.00    -0.237 A  
HETATM   14  N   UNL     1     -12.790  14.060  71.458  1.00  0.00    -0.345 NA 
HETATM   15  C   UNL     1     -13.405  13.132  72.191  1.00  0.00    -0.524 A  
BRANCH  11  16
HETATM   16  N   UNL     1     -12.754  10.001  70.557  1.00  0.00    -0.529 NA 
HETATM   17  H   UNL     1     -13.176   9.790  69.654  1.00  0.00     0.000 HD 
BRANCH  16  18
HETATM   18  C   UNL     1     -12.307   8.873  71.288  1.00  0.00    -0.291 A  
HETATM   19  C   UNL     1     -11.100   8.955  72.004  1.00  0.00    -0.421 A  
HETATM   20  C   UNL     1     -11.209   6.601  72.562  1.00  0.00    -0.302 A  
HETATM   21  C   UNL     1     -10.553   7.828  72.634  1.00  0.00    -0.377 A  
HETATM   22  C   UNL     1     -12.938   7.623  71.223  1.00  0.00    -0.287 A  
HETATM   23  C   UNL     1     -12.407   6.500  71.863  1.00  0.00    -0.339 A  
BRANCH  21  24
HETATM   24  C   UNL     1      -9.301   7.910  73.324  1.00  0.00    -0.351 C  
HETATM   25  C   UNL     1      -8.260   8.035  73.910  1.00  0.00    -0.306 C  
ENDBRANCH  21  24
ENDBRANCH  16  18
ENDBRANCH  11  16
BRANCH  13  26
HETATM   26  O   UNL     1      -9.781  12.349  67.152  1.00  0.00    -0.201 OA 
BRANCH  26  27
HETATM   27  C   UNL     1     -10.078  12.782  65.825  1.00  0.00    -0.286 C  
BRANCH  27  28
HETATM   28  C   UNL     1     -11.062  11.834  65.147  1.00  0.00    -0.282 C  
BRANCH  28  29
HETATM   29  O   UNL     1     -12.382  12.218  65.543  1.00  0.00    -0.602 OA 
HETATM   30  C   UNL     1     -12.672  13.563  65.200  1.00  0.00    -0.399 C  
ENDBRANCH  28  29
ENDBRANCH  27  28
ENDBRANCH  26  27
ENDBRANCH  13  26
ENDBRANCH   5   6
ENDBRANCH   4   5
ENDBRANCH   3   4
ENDBRANCH   2   3
TORSDOF 11
ENDMDL
MODEL       11
REMARK 921   NORMALIZED FREE ENERGY PREDICTED BY IDOCK:   -6.21 KCAL/MOL
REMARK 922        TOTAL FREE ENERGY PREDICTED BY IDOCK:  -11.34 KCAL/MOL
REMARK 923 INTER-LIGAND FREE ENERGY PREDICTED BY IDOCK:  -10.13 KCAL/MOL
REMARK 924 INTRA-LIGAND FREE ENERGY PREDICTED BY IDOCK:   -1.21 KCAL/MOL
REMARK 927      BINDING AFFINITY PREDICTED BY RF-SCORE:    0.00 PKD
ROOT
HETATM    1  C   UNL     1     -10.759  17.692  65.391  1.00  0.00     0.042 C  
HETATM    2  O   UNL     1     -11.247  16.808  64.388  1.00  0.00    -1.112 OA 
ENDROOT
BRANCH   2   3
HETATM    3  C   UNL     1     -11.084  15.448  64.781  1.00  0.00    -0.403 C  
BRANCH   3   4
HETATM    4  C   UNL     1     -12.303  14.630  64.364  1.00  0.00    -0.398 C  
BRANCH   4   5
HETATM    5  O   UNL     1     -12.778  13.971  65.533  1.00  0.00    -0.520 OA 
BRANCH   5   6
HETATM    6  C   UNL     1     -12.014  13.036  66.161  1.00  0.00    -0.427 A  
HETATM    7  C   UNL     1     -11.376  11.995  65.476  1.00  0.00    -0.381 A  
HETATM    8  C   UNL     1     -10.616  11.034  66.125  1.00  0.00    -0.228 A  
HETATM    9  C   UNL     1     -10.439  11.116  67.513  1.00  0.00    -0.239 A  
HETATM   10  C   UNL     1     -11.060  12.189  68.209  1.00  0.00    -0.288 A  
HETATM   11  C   UNL     1      -9.635  10.100  68.080  1.00  0.00    -0.139 A  
HETATM   12  N   UNL     1      -9.118   9.112  67.325  1.00  0.00    -0.126 NA 
HETATM   13  C   UNL     1     -11.859  13.133  67.551  1.00  0.00    -0.360 A  
HETATM   14  N   UNL     1     -10.084  10.068  65.376  1.00  0.00    -0.296 NA 
HETATM   15  C   UNL     1      -9.365   9.145  66.015  1.00  0.00    -0.238 A  
BRANCH  11  16
HETATM   16  N   UNL     1      -9.309  10.154  69.461  1.00  0.00    -0.258 NA 
HETATM   17  H   UNL     1      -8.596  10.840  69.710  1.00  0.00     0.000 HD 
BRANCH  16  18
HETATM   18  C   UNL     1      -9.822   9.402  70.545  1.00  0.00    -0.270 A  
HETATM   19  C   UNL     1     -11.213   9.344  70.743  1.00  0.00    -0.367 A  
HETATM   20  C   UNL     1     -10.921   8.140  72.824  1.00  0.00    -0.401 A  
HETATM   21  C   UNL     1     -11.759   8.722  71.874  1.00  0.00    -0.429 A  
HETATM   22  C   UNL     1      -9.004   8.819  71.523  1.00  0.00    -0.306 A  
HETATM   23  C   UNL     1      -9.543   8.182  72.644  1.00  0.00    -0.352 A  
BRANCH  21  24
HETATM   24  C   UNL     1     -13.175   8.706  72.089  1.00  0.00    -0.420 C  
HETATM   25  C   UNL     1     -14.369   8.694  72.213  1.00  0.00    -0.486 C  
ENDBRANCH  21  24
ENDBRANCH  16  18
ENDBRANCH  11  16
BRANCH  13  26
HETATM   26  O   UNL     1     -12.404  14.061  68.410  1.00  0.00    -0.254 OA 
BRANCH  26  27
HETATM   27  C   UNL     1     -11.626  14.455  69.539  1.00  0.00    -0.304 C  
BRANCH  27  28
HETATM   28  C   UNL     1     -12.509  15.042  70.635  1.00  0.00    -0.365 C  
BRANCH  28  29
HETATM   29  O   UNL     1     -12.904  13.971  71.498  1.00  0.00    -0.328 OA 
HETATM   30  C   UNL     1     -14.243  14.110  71.946  1.00  0.00    -0.474 C  
ENDBRANCH  28  29
ENDBRANCH  27  28
ENDBRANCH  26  27
ENDBRANCH  13  26
ENDBRANCH   5   6
ENDBRANCH   4   5
ENDBRANCH   3   4
ENDBRANCH   2   3
TORSDOF 11
ENDMDL
MODEL       12
REMARK 921   NORMALIZED FREE ENERGY PREDICTED BY IDOCK:   -6.20 KCAL/MOL
REMARK 922        TOTAL FREE ENERGY PREDICTED BY IDOCK:  -11.32 KCAL/MOL
REMARK 923 INTER-LIGAND FREE ENERGY PREDICTED BY IDOCK:  -10.18 KCAL/MOL
REMARK 924 INTRA-LIGAND FREE ENERGY PREDICTED BY IDOCK:   -1.14 KCAL/MOL
REMARK 927      BINDING AFFINITY PREDICTED BY RF-SCORE:    0.00 PKD
ROOT
HETATM    1  C   UNL     1     -10.575  17.778  65.560  1.00  0.00    -0.041 C  
HETATM    2  O   UNL     1     -11.049  16.922  64.527  1.00  0.00    -1.054 OA 
ENDROOT
BRANCH   2   3
HETATM    3  C   UNL     1     -10.895  15.552  64.886  1.00  0.00    -0.427 C  
BRANCH   3   4
HETATM    4  C   UNL     1     -12.130  14.757  64.471  1.00  0.00    -0.446 C  
BRANCH   4   5
HETATM    5  O   UNL     1     -12.672  14.187  65.657  1.00  0.00    -0.514 OA 
BRANCH   5   6
HETATM    6  C   UNL     1     -12.006  13.203  66.321  1.00  0.00    -0.415 A  
HETATM    7  C   UNL     1     -11.427  12.107  65.670  1.00  0.00    -0.408 A  
HETATM    8  C   UNL     1     -10.767  11.098  66.355  1.00  0.00    -0.247 A  
HETATM    9  C   UNL     1     -10.634  11.183  67.748  1.00  0.00    -0.248 A  
HETATM   10  C   UNL     1     -11.194  12.309  68.411  1.00  0.00    -0.311 A  
HETATM   11  C   UNL     1      -9.932  10.115  68.353  1.00  0.00    -0.156 A  
HETATM   12  N   UNL     1      -9.468   9.081  67.627  1.00  0.00    -0.139 NA 
HETATM   13  C   UNL     1     -11.893  13.304  67.715  1.00  0.00    -0.353 A  
HETATM   14  N   UNL     1     -10.286  10.085  65.635  1.00  0.00    -0.240 NA 
HETATM   15  C   UNL     1      -9.664   9.117  66.308  1.00  0.00    -0.274 A  
BRANCH  11  16
HETATM   16  N   UNL     1      -9.652  10.160  69.744  1.00  0.00    -0.348 NA 
HETATM   17  H   UNL     1      -8.872  10.761  70.008  1.00  0.00     0.000 HD 
BRANCH  16  18
HETATM   18  C   UNL     1     -10.291   9.499  70.821  1.00  0.00    -0.306 A  
HETATM   19  C   UNL     1      -9.510   8.785  71.747  1.00  0.00    -0.363 A  
HETATM   20  C   UNL     1     -11.494   7.941  72.850  1.00  0.00    -0.357 A  
HETATM   21  C   UNL     1     -10.106   8.009  72.752  1.00  0.00    -0.378 A  
HETATM   22  C   UNL     1     -11.684   9.401  70.937  1.00  0.00    -0.378 A  
HETATM   23  C   UNL     1     -12.284   8.644  71.947  1.00  0.00    -0.419 A  
BRANCH  21  24
HETATM   24  C   UNL     1      -9.303   7.251  73.664  1.00  0.00    -0.278 C  
HETATM   25  C   UNL     1      -8.677   6.602  74.457  1.00  0.00    -0.188 C  
ENDBRANCH  21  24
ENDBRANCH  16  18
ENDBRANCH  11  16
BRANCH  13  26
HETATM   26  O   UNL     1     -12.395  14.282  68.545  1.00  0.00    -0.221 OA 
BRANCH  26  27
HETATM   27  C   UNL     1     -12.226  14.108  69.951  1.00  0.00    -0.359 C  
BRANCH  27  28
HETATM   28  C   UNL     1     -12.833  15.274  70.725  1.00  0.00    -0.437 C  
BRANCH  28  29
HETATM   29  O   UNL     1     -13.714  14.731  71.713  1.00  0.00    -0.353 OA 
HETATM   30  C   UNL     1     -13.350  13.413  72.088  1.00  0.00    -0.520 C  
ENDBRANCH  28  29
ENDBRANCH  27  28
ENDBRANCH  26  27
ENDBRANCH  13  26
ENDBRANCH   5   6
ENDBRANCH   4   5
ENDBRANCH   3   4
ENDBRANCH   2   3
TORSDOF 11
ENDMDL
MODEL       13
REMARK 921   NORMALIZED FREE ENERGY PREDICTED BY IDOCK:   -6.17 KCAL/MOL
REMARK 922        TOTAL FREE ENERGY PREDICTED BY IDOCK:  -11.28 KCAL/MOL
REMARK 923 INTER-LIGAND FREE ENERGY PREDICTED BY IDOCK:  -10.55 KCAL/MOL
REMARK 924 INTRA-LIGAND FREE ENERGY PREDICTED BY IDOCK:   -0.74 KCAL/MOL
REMARK 927      BINDING AFFINITY PREDICTED BY RF-SCORE:    0.00 PKD
ROOT
HETATM    1  C   UNL     1     -12.379  15.705  74.476  1.00  0.00    -0.621 C  
HETATM    2  O   UNL     1     -13.470  16.048  73.630  1.00  0.00    -0.566 OA 
ENDROOT
BRANCH   2   3
HETATM    3  C   UNL     1     -13.142  15.833  72.260  1.00  0.00    -0.447 C  
BRANCH   3   4
HETATM    4  C   UNL     1     -11.673  16.166  72.011  1.00  0.00    -0.485 C  
BRANCH   4   5
HETATM    5  O   UNL     1     -11.172  15.181  71.114  1.00  0.00    -0.323 OA 
BRANCH   5   6
HETATM    6  C   UNL     1     -10.993  15.472  69.796  1.00  0.00    -0.294 A  
HETATM    7  C   UNL     1     -10.901  16.783  69.315  1.00  0.00    -0.275 A  
HETATM    8  C   UNL     1     -10.738  17.072  67.968  1.00  0.00    -0.365 A  
HETATM    9  C   UNL     1     -10.623  16.022  67.047  1.00  0.00    -0.302 A  
HETATM   10  C   UNL     1     -10.686  14.688  67.534  1.00  0.00    -0.268 A  
HETATM   11  C   UNL     1     -10.444  16.417  65.701  1.00  0.00    -0.347 A  
HETATM   12  N   UNL     1     -10.428  17.717  65.349  1.00  0.00    -0.621 NA 
HETATM   13  C   UNL     1     -10.890  14.405  68.892  1.00  0.00    -0.256 A  
HETATM   14  N   UNL     1     -10.698  18.358  67.620  1.00  0.00    -0.409 NA 
HETATM   15  C   UNL     1     -10.554  18.620  66.322  1.00  0.00    -0.348 A  
BRANCH  11  16
HETATM   16  N   UNL     1     -10.211  15.431  64.707  1.00  0.00    -0.475 NA 
HETATM   17  H   UNL     1      -9.477  15.658  64.037  1.00  0.00     0.000 HD 
BRANCH  16  18
HETATM   18  C   UNL     1     -10.843  14.180  64.502  1.00  0.00    -0.320 A  
HETATM   19  C   UNL     1     -10.149  13.001  64.824  1.00  0.00    -0.239 A  
HETATM   20  C   UNL     1     -11.922  11.640  63.892  1.00  0.00    -0.320 A  
HETATM   21  C   UNL     1     -10.682  11.740  64.519  1.00  0.00    -0.369 A  
HETATM   22  C   UNL     1     -12.083  14.048  63.861  1.00  0.00    -0.350 A  
HETATM   23  C   UNL     1     -12.627  12.794  63.570  1.00  0.00    -0.359 A  
BRANCH  21  24
HETATM   24  C   UNL     1      -9.948  10.545  64.811  1.00  0.00    -0.412 C  
HETATM   25  C   UNL     1      -9.344   9.552  65.111  1.00  0.00    -0.316 C  
ENDBRANCH  21  24
ENDBRANCH  16  18
ENDBRANCH  11  16
BRANCH  13  26
HETATM   26  O   UNL     1     -10.965  13.055  69.149  1.00  0.00    -0.222 OA 
BRANCH  26  27
HETATM   27  C   UNL     1     -11.749  12.255  68.264  1.00  0.00    -0.336 C  
BRANCH  27  28
HETATM   28  C   UNL     1     -11.359  10.784  68.366  1.00  0.00    -0.302 C  
BRANCH  28  29
HETATM   29  O   UNL     1     -11.139  10.484  69.747  1.00  0.00    -0.254 OA 
HETATM   30  C   UNL     1     -12.343  10.497  70.496  1.00  0.00    -0.343 C  
ENDBRANCH  28  29
ENDBRANCH  27  28
ENDBRANCH  26  27
ENDBRANCH  13  26
ENDBRANCH   5   6
ENDBRANCH   4   5
ENDBRANCH   3   4
ENDBRANCH   2   3
TORSDOF 11
ENDMDL
MODEL       14
REMARK 921   NORMALIZED FREE ENERGY PREDICTED BY IDOCK:   -6.17 KCAL/MOL
REMARK 922        TOTAL FREE ENERGY PREDICTED BY IDOCK:  -11.28 KCAL/MOL
REMARK 923 INTER-LIGAND FREE ENERGY PREDICTED BY IDOCK:  -10.59 KCAL/MOL
REMARK 924 INTRA-LIGAND FREE ENERGY PREDICTED BY IDOCK:   -0.69 KCAL/MOL
REMARK 927      BINDING AFFINITY PREDICTED BY RF-SCORE:    0.00 PKD
ROOT
HETATM    1  C   UNL     1     -10.144  19.738  66.273  1.00  0.00    -0.496 C  
HETATM    2  O   UNL     1     -10.837  18.762  67.043  1.00  0.00    -0.405 OA 
ENDROOT
BRANCH   2   3
HETATM    3  C   UNL     1      -9.949  18.082  67.925  1.00  0.00    -0.331 C  
BRANCH   3   4
HETATM    4  C   UNL     1     -10.738  17.196  68.886  1.00  0.00    -0.257 C  
BRANCH   4   5
HETATM    5  O   UNL     1     -11.143  16.047  68.150  1.00  0.00    -0.332 OA 
BRANCH   5   6
HETATM    6  C   UNL     1     -11.482  14.896  68.792  1.00  0.00    -0.307 A  
HETATM    7  C   UNL     1     -12.184  14.882  70.003  1.00  0.00    -0.381 A  
HETATM    8  C   UNL     1     -12.508  13.706  70.662  1.00  0.00    -0.347 A  
HETATM    9  C   UNL     1     -12.161  12.476  70.088  1.00  0.00    -0.368 A  
HETATM   10  C   UNL     1     -11.474  12.483  68.843  1.00  0.00    -0.355 A  
HETATM   11  C   UNL     1     -12.549  11.334  70.827  1.00  0.00    -0.332 A  
HETATM   12  N   UNL     1     -13.173  11.447  72.015  1.00  0.00    -0.455 NA 
HETATM   13  C   UNL     1     -11.116  13.677  68.203  1.00  0.00    -0.256 A  
HETATM   14  N   UNL     1     -13.147  13.816  71.827  1.00  0.00    -0.360 NA 
HETATM   15  C   UNL     1     -13.442  12.677  72.455  1.00  0.00    -0.345 A  
BRANCH  11  16
HETATM   16  N   UNL     1     -12.338  10.041  70.281  1.00  0.00    -0.493 NA 
HETATM   17  H   UNL     1     -12.706   9.904  69.340  1.00  0.00     0.000 HD 
BRANCH  16  18
HETATM   18  C   UNL     1     -11.692   8.912  70.842  1.00  0.00    -0.267 A  
HETATM   19  C   UNL     1     -11.239   7.888  69.992  1.00  0.00    -0.105 A  
HETATM   20  C   UNL     1     -10.625   6.512  71.888  1.00  0.00    -0.239 A  
HETATM   21  C   UNL     1     -10.713   6.696  70.509  1.00  0.00    -0.293 A  
HETATM   22  C   UNL     1     -11.603   8.694  72.224  1.00  0.00    -0.424 A  
HETATM   23  C   UNL     1     -11.063   7.515  72.746  1.00  0.00    -0.416 A  
BRANCH  21  24
HETATM   24  C   UNL     1     -10.294   5.641  69.636  1.00  0.00    -0.346 C  
HETATM   25  C   UNL     1      -9.890   4.773  68.912  1.00  0.00    -0.230 C  
ENDBRANCH  21  24
ENDBRANCH  16  18
ENDBRANCH  11  16
BRANCH  13  26
HETATM   26  O   UNL     1     -10.419  13.466  67.034  1.00  0.00    -0.255 OA 
BRANCH  26  27
HETATM   27  C   UNL     1     -11.068  12.727  66.001  1.00  0.00    -0.285 C  
BRANCH  27  28
HETATM   28  C   UNL     1     -12.312  13.456  65.505  1.00  0.00    -0.480 C  
BRANCH  28  29
HETATM   29  O   UNL     1     -13.071  12.537  64.712  1.00  0.00    -0.853 OA 
HETATM   30  C   UNL     1     -12.398  12.180  63.516  1.00  0.00    -0.574 C  
ENDBRANCH  28  29
ENDBRANCH  27  28
ENDBRANCH  26  27
ENDBRANCH  13  26
ENDBRANCH   5   6
ENDBRANCH   4   5
ENDBRANCH   3   4
ENDBRANCH   2   3
TORSDOF 11
ENDMDL
MODEL       15
REMARK 921   NORMALIZED FREE ENERGY PREDICTED BY IDOCK:   -6.17 KCAL/MOL
REMARK 922        TOTAL FREE ENERGY PREDICTED BY IDOCK:  -11.28 KCAL/MOL
REMARK 923 INTER-LIGAND FREE ENERGY PREDICTED BY IDOCK:  -10.02 KCAL/MOL
REMARK 924 INTRA-LIGAND FREE ENERGY PREDICTED BY IDOCK:   -1.26 KCAL/MOL
REMARK 927      BINDING AFFINITY PREDICTED BY RF-SCORE:    0.00 PKD
ROOT
HETATM    1  C   UNL     1     -12.536  15.976  74.390  1.00  0.00    -0.572 C  
HETATM    2  O   UNL     1     -13.645  16.060  73.503  1.00  0.00    -0.549 OA 
ENDROOT
BRANCH   2   3
HETATM    3  C   UNL     1     -13.268  15.705  72.176  1.00  0.00    -0.461 C  
BRANCH   3   4
HETATM    4  C   UNL     1     -11.811  16.084  71.924  1.00  0.00    -0.534 C  
BRANCH   4   5
HETATM    5  O   UNL     1     -11.188  14.954  71.323  1.00  0.00    -0.262 OA 
BRANCH   5   6
HETATM    6  C   UNL     1     -11.255  14.758  69.978  1.00  0.00    -0.235 A  
HETATM    7  C   UNL     1     -10.825  15.716  69.051  1.00  0.00    -0.254 A  
HETATM    8  C   UNL     1     -10.914  15.518  67.682  1.00  0.00    -0.315 A  
HETATM    9  C   UNL     1     -11.416  14.305  67.191  1.00  0.00    -0.377 A  
HETATM   10  C   UNL     1     -11.827  13.318  68.128  1.00  0.00    -0.388 A  
HETATM   11  C   UNL     1     -11.453  14.193  65.782  1.00  0.00    -0.327 A  
HETATM   12  N   UNL     1     -11.064  15.208  64.988  1.00  0.00    -0.398 NA 
HETATM   13  C   UNL     1     -11.770  13.541  69.511  1.00  0.00    -0.322 A  
HETATM   14  N   UNL     1     -10.507  16.513  66.894  1.00  0.00    -0.301 NA 
HETATM   15  C   UNL     1     -10.610  16.314  65.580  1.00  0.00    -0.353 A  
BRANCH  11  16
HETATM   16  N   UNL     1     -11.846  12.965  65.187  1.00  0.00    -0.357 NA 
HETATM   17  H   UNL     1     -12.852  12.816  65.128  1.00  0.00     0.000 HD 
BRANCH  16  18
HETATM   18  C   UNL     1     -11.053  11.915  64.663  1.00  0.00    -0.317 A  
HETATM   19  C   UNL     1     -10.617  10.891  65.522  1.00  0.00    -0.240 A  
HETATM   20  C   UNL     1      -9.261   9.922  63.765  1.00  0.00    -0.289 A  
HETATM   21  C   UNL     1      -9.725   9.904  65.079  1.00  0.00    -0.359 A  
HETATM   22  C   UNL     1     -10.559  11.914  63.351  1.00  0.00    -0.485 A  
HETATM   23  C   UNL     1      -9.684  10.923  62.899  1.00  0.00    -0.349 A  
BRANCH  21  24
HETATM   24  C   UNL     1      -9.253   8.889  65.973  1.00  0.00    -0.287 C  
HETATM   25  C   UNL     1      -8.805   8.044  66.699  1.00  0.00    -0.166 C  
ENDBRANCH  21  24
ENDBRANCH  16  18
ENDBRANCH  11  16
BRANCH  13  26
HETATM   26  O   UNL     1     -12.255  12.480  70.242  1.00  0.00    -0.329 OA 
BRANCH  26  27
HETATM   27  C   UNL     1     -11.864  11.167  69.843  1.00  0.00    -0.363 C  
BRANCH  27  28
HETATM   28  C   UNL     1     -12.883  10.129  70.301  1.00  0.00    -0.004 C  
BRANCH  28  29
HETATM   29  O   UNL     1     -12.639   9.857  71.684  1.00  0.00    -0.365 OA 
HETATM   30  C   UNL     1     -13.560   8.920  72.216  1.00  0.00    -0.462 C  
ENDBRANCH  28  29
ENDBRANCH  27  28
ENDBRANCH  26  27
ENDBRANCH  13  26
ENDBRANCH   5   6
ENDBRANCH   4   5
ENDBRANCH   3   4
ENDBRANCH   2   3
TORSDOF 11
ENDMDL
MODEL       16
REMARK 921   NORMALIZED FREE ENERGY PREDICTED BY IDOCK:   -6.17 KCAL/MOL
REMARK 922        TOTAL FREE ENERGY PREDICTED BY IDOCK:  -11.27 KCAL/MOL
REMARK 923 INTER-LIGAND FREE ENERGY PREDICTED BY IDOCK:  -10.08 KCAL/MOL
REMARK 924 INTRA-LIGAND FREE ENERGY PREDICTED BY IDOCK:   -1.19 KCAL/MOL
REMARK 927      BINDING AFFINITY PREDICTED BY RF-SCORE:    0.00 PKD
ROOT
HETATM    1  C   UNL     1     -12.119  12.420  63.862  1.00  0.00    -0.499 C  
HETATM    2  O   UNL     1     -13.030  12.993  64.793  1.00  0.00    -0.735 OA 
ENDROOT
BRANCH   2   3
HETATM    3  C   UNL     1     -12.363  13.892  65.674  1.00  0.00    -0.482 C  
BRANCH   3   4
HETATM    4  C   UNL     1     -10.850  13.748  65.527  1.00  0.00    -0.299 C  
BRANCH   4   5
HETATM    5  O   UNL     1     -10.306  13.741  66.842  1.00  0.00    -0.262 OA 
BRANCH   5   6
HETATM    6  C   UNL     1     -10.905  13.030  67.836  1.00  0.00    -0.242 A  
HETATM    7  C   UNL     1     -11.509  13.637  68.944  1.00  0.00    -0.344 A  
HETATM    8  C   UNL     1     -12.099  12.906  69.964  1.00  0.00    -0.286 A  
HETATM    9  C   UNL     1     -12.134  11.508  69.878  1.00  0.00    -0.389 A  
HETATM   10  C   UNL     1     -11.548  10.887  68.741  1.00  0.00    -0.378 A  
HETATM   11  C   UNL     1     -12.770  10.853  70.958  1.00  0.00    -0.407 A  
HETATM   12  N   UNL     1     -13.267  11.544  72.002  1.00  0.00    -0.462 NA 
HETATM   13  C   UNL     1     -10.919  11.632  67.734  1.00  0.00    -0.233 A  
HETATM   14  N   UNL     1     -12.612  13.590  70.986  1.00  0.00    -0.365 NA 
HETATM   15  C   UNL     1     -13.165  12.873  71.965  1.00  0.00    -0.448 A  
BRANCH  11  16
HETATM   16  N   UNL     1     -12.951   9.446  70.915  1.00  0.00    -0.539 NA 
HETATM   17  H   UNL     1     -13.708   9.125  70.312  1.00  0.00     0.000 HD 
BRANCH  16  18
HETATM   18  C   UNL     1     -12.241   8.418  71.583  1.00  0.00    -0.315 A  
HETATM   19  C   UNL     1     -10.988   8.709  72.152  1.00  0.00    -0.434 A  
HETATM   20  C   UNL     1     -10.641   6.377  72.708  1.00  0.00    -0.254 A  
HETATM   21  C   UNL     1     -10.192   7.697  72.707  1.00  0.00    -0.336 A  
HETATM   22  C   UNL     1     -12.660   7.081  71.587  1.00  0.00    -0.419 A  
HETATM   23  C   UNL     1     -11.879   6.070  72.154  1.00  0.00    -0.304 A  
BRANCH  21  24
HETATM   24  C   UNL     1      -8.899   7.995  73.246  1.00  0.00    -0.330 C  
HETATM   25  C   UNL     1      -7.800   8.263  73.646  1.00  0.00    -0.213 C  
ENDBRANCH  21  24
ENDBRANCH  16  18
ENDBRANCH  11  16
BRANCH  13  26
HETATM   26  O   UNL     1     -10.378  10.840  66.746  1.00  0.00    -0.225 OA 
BRANCH  26  27
HETATM   27  C   UNL     1      -9.034  10.391  66.918  1.00  0.00    -0.139 C  
BRANCH  27  28
HETATM   28  C   UNL     1      -8.951   8.870  66.843  1.00  0.00    -0.128 C  
BRANCH  28  29
HETATM   29  O   UNL     1     -10.218   8.386  66.388  1.00  0.00    -0.265 OA 
HETATM   30  C   UNL     1     -10.710   7.332  67.199  1.00  0.00    -0.343 C  
ENDBRANCH  28  29
ENDBRANCH  27  28
ENDBRANCH  26  27
ENDBRANCH  13  26
ENDBRANCH   5   6
ENDBRANCH   4   5
ENDBRANCH   3   4
ENDBRANCH   2   3
TORSDOF 11
ENDMDL
MODEL       17
REMARK 921   NORMALIZED FREE ENERGY PREDICTED BY IDOCK:   -6.07 KCAL/MOL
REMARK 922        TOTAL FREE ENERGY PREDICTED BY IDOCK:  -11.10 KCAL/MOL
REMARK 923 INTER-LIGAND FREE ENERGY PREDICTED BY IDOCK:   -9.79 KCAL/MOL
REMARK 924 INTRA-LIGAND FREE ENERGY PREDICTED BY IDOCK:   -1.31 KCAL/MOL
REMARK 927      BINDING AFFINITY PREDICTED BY RF-SCORE:    0.00 PKD
ROOT
HETATM    1  C   UNL     1     -10.402  19.601  68.361  1.00  0.00    -0.386 C  
HETATM    2  O   UNL     1      -9.004  19.659  68.620  1.00  0.00    -0.348 OA 
ENDROOT
BRANCH   2   3
HETATM    3  C   UNL     1      -8.253  19.399  67.437  1.00  0.00    -0.287 C  
BRANCH   3   4
HETATM    4  C   UNL     1      -9.166  18.847  66.345  1.00  0.00    -0.313 C  
BRANCH   4   5
HETATM    5  O   UNL     1      -8.636  17.583  65.964  1.00  0.00    -0.497 OA 
BRANCH   5   6
HETATM    6  C   UNL     1      -9.322  16.436  66.224  1.00  0.00    -0.315 A  
HETATM    7  C   UNL     1     -10.254  15.893  65.331  1.00  0.00    -0.354 A  
HETATM    8  C   UNL     1     -10.965  14.735  65.612  1.00  0.00    -0.344 A  
HETATM    9  C   UNL     1     -10.725  14.052  66.812  1.00  0.00    -0.285 A  
HETATM   10  C   UNL     1      -9.758  14.584  67.708  1.00  0.00    -0.216 A  
HETATM   11  C   UNL     1     -11.486  12.876  66.999  1.00  0.00    -0.339 A  
HETATM   12  N   UNL     1     -12.399  12.480  66.091  1.00  0.00    -0.539 NA 
HETATM   13  C   UNL     1      -9.073  15.776  67.435  1.00  0.00    -0.197 A  
HETATM   14  N   UNL     1     -11.852  14.329  64.704  1.00  0.00    -0.424 NA 
HETATM   15  C   UNL     1     -12.536  13.222  64.991  1.00  0.00    -0.443 A  
BRANCH  11  16
HETATM   16  N   UNL     1     -11.242  12.056  68.132  1.00  0.00    -0.240 NA 
HETATM   17  H   UNL     1     -10.559  11.313  67.988  1.00  0.00     0.000 HD 
BRANCH  16  18
HETATM   18  C   UNL     1     -11.802  12.113  69.432  1.00  0.00    -0.309 A  
HETATM   19  C   UNL     1     -12.203  10.920  70.058  1.00  0.00    -0.422 A  
HETATM   20  C   UNL     1     -13.158  12.151  71.911  1.00  0.00    -0.475 A  
HETATM   21  C   UNL     1     -12.879  10.938  71.286  1.00  0.00    -0.536 A  
HETATM   22  C   UNL     1     -12.107  13.319  70.078  1.00  0.00    -0.385 A  
HETATM   23  C   UNL     1     -12.765  13.342  71.311  1.00  0.00    -0.424 A  
BRANCH  21  24
HETATM   24  C   UNL     1     -13.323   9.720  71.896  1.00  0.00    -0.530 C  
HETATM   25  C   UNL     1     -13.747   8.722  72.410  1.00  0.00    -0.471 C  
ENDBRANCH  21  24
ENDBRANCH  16  18
ENDBRANCH  11  16
BRANCH  13  26
HETATM   26  O   UNL     1      -8.215  16.141  68.448  1.00  0.00    -0.160 OA 
BRANCH  26  27
HETATM   27  C   UNL     1      -7.993  15.201  69.499  1.00  0.00    -0.175 C  
BRANCH  27  28
HETATM   28  C   UNL     1      -6.516  15.136  69.872  1.00  0.00    -0.171 C  
BRANCH  28  29
HETATM   29  O   UNL     1      -6.249  13.823  70.373  1.00  0.00    -0.146 OA 
HETATM   30  C   UNL     1      -6.548  12.816  69.420  1.00  0.00    -0.064 C  
ENDBRANCH  28  29
ENDBRANCH  27  28
ENDBRANCH  26  27
ENDBRANCH  13  26
ENDBRANCH   5   6
ENDBRANCH   4   5
ENDBRANCH   3   4
ENDBRANCH   2   3
TORSDOF 11
ENDMDL
MODEL       18
REMARK 921   NORMALIZED FREE ENERGY PREDICTED BY IDOCK:   -6.07 KCAL/MOL
REMARK 922        TOTAL FREE ENERGY PREDICTED BY IDOCK:  -11.10 KCAL/MOL
REMARK 923 INTER-LIGAND FREE ENERGY PREDICTED BY IDOCK:   -9.92 KCAL/MOL
REMARK 924 INTRA-LIGAND FREE ENERGY PREDICTED BY IDOCK:   -1.18 KCAL/MOL
REMARK 927      BINDING AFFINITY PREDICTED BY RF-SCORE:    0.00 PKD
ROOT
HETATM    1  C   UNL     1     -10.554   5.527  71.645  1.00  0.00    -0.231 C  
HETATM    2  O   UNL     1     -11.454   6.105  72.583  1.00  0.00    -0.276 OA 
ENDROOT
BRANCH   2   3
HETATM    3  C   UNL     1     -10.772   6.985  73.472  1.00  0.00    -0.332 C  
BRANCH   3   4
HETATM    4  C   UNL     1     -10.208   8.178  72.704  1.00  0.00    -0.318 C  
BRANCH   4   5
HETATM    5  O   UNL     1     -11.321   8.915  72.212  1.00  0.00    -0.345 OA 
BRANCH   5   6
HETATM    6  C   UNL     1     -11.287   9.479  70.973  1.00  0.00    -0.352 A  
HETATM    7  C   UNL     1     -10.553   8.934  69.913  1.00  0.00    -0.229 A  
HETATM    8  C   UNL     1     -10.506   9.524  68.659  1.00  0.00    -0.211 A  
HETATM    9  C   UNL     1     -11.246  10.690  68.418  1.00  0.00    -0.347 A  
HETATM   10  C   UNL     1     -12.017  11.231  69.483  1.00  0.00    -0.421 A  
HETATM   11  C   UNL     1     -11.146  11.207  67.106  1.00  0.00    -0.287 A  
HETATM   12  N   UNL     1     -10.359  10.625  66.181  1.00  0.00    -0.244 NA 
HETATM   13  C   UNL     1     -12.027  10.649  70.758  1.00  0.00    -0.374 A  
HETATM   14  N   UNL     1      -9.746   8.936  67.736  1.00  0.00    -0.155 NA 
HETATM   15  C   UNL     1      -9.701   9.521  66.539  1.00  0.00    -0.222 A  
BRANCH  11  16
HETATM   16  N   UNL     1     -11.939  12.323  66.730  1.00  0.00    -0.605 NA 
HETATM   17  H   UNL     1     -12.914  12.279  67.026  1.00  0.00     0.000 HD 
BRANCH  16  18
HETATM   18  C   UNL     1     -11.583  13.488  66.009  1.00  0.00    -0.338 A  
HETATM   19  C   UNL     1     -10.417  14.188  66.367  1.00  0.00    -0.283 A  
HETATM   20  C   UNL     1     -10.932  15.958  64.796  1.00  0.00    -0.392 A  
HETATM   21  C   UNL     1     -10.095  15.414  65.769  1.00  0.00    -0.391 A  
HETATM   22  C   UNL     1     -12.412  14.066  65.036  1.00  0.00    -0.446 A  
HETATM   23  C   UNL     1     -12.087  15.279  64.424  1.00  0.00    -0.263 A  
BRANCH  21  24
HETATM   24  C   UNL     1      -8.928  16.140  66.171  1.00  0.00    -0.372 C  
HETATM   25  C   UNL     1      -7.937  16.757  66.453  1.00  0.00    -0.356 C  
ENDBRANCH  21  24
ENDBRANCH  16  18
ENDBRANCH  11  16
BRANCH  13  26
HETATM   26  O   UNL     1     -12.799  11.351  71.657  1.00  0.00    -0.420 OA 
BRANCH  26  27
HETATM   27  C   UNL     1     -12.795  12.775  71.563  1.00  0.00    -0.270 C  
BRANCH  27  28
HETATM   28  C   UNL     1     -13.901  13.384  72.419  1.00  0.00    -0.564 C  
BRANCH  28  29
HETATM   29  O   UNL     1     -13.727  14.804  72.413  1.00  0.00    -0.403 OA 
HETATM   30  C   UNL     1     -13.155  15.267  71.200  1.00  0.00    -0.479 C  
ENDBRANCH  28  29
ENDBRANCH  27  28
ENDBRANCH  26  27
ENDBRANCH  13  26
ENDBRANCH   5   6
ENDBRANCH   4   5
ENDBRANCH   3   4
ENDBRANCH   2   3
TORSDOF 11
ENDMDL
MODEL       19
REMARK 921   NORMALIZED FREE ENERGY PREDICTED BY IDOCK:   -6.04 KCAL/MOL
REMARK 922        TOTAL FREE ENERGY PREDICTED BY IDOCK:  -11.06 KCAL/MOL
REMARK 923 INTER-LIGAND FREE ENERGY PREDICTED BY IDOCK:   -9.82 KCAL/MOL
REMARK 924 INTRA-LIGAND FREE ENERGY PREDICTED BY IDOCK:   -1.24 KCAL/MOL
REMARK 927      BINDING AFFINITY PREDICTED BY RF-SCORE:    0.00 PKD
ROOT
HETATM    1  C   UNL     1     -10.584   6.880  73.570  1.00  0.00    -0.348 C  
HETATM    2  O   UNL     1     -11.471   6.280  72.633  1.00  0.00    -0.267 OA 
ENDROOT
BRANCH   2   3
HETATM    3  C   UNL     1     -11.943   7.238  71.690  1.00  0.00    -0.308 C  
BRANCH   3   4
HETATM    4  C   UNL     1     -12.194   8.577  72.379  1.00  0.00    -0.366 C  
BRANCH   4   5
HETATM    5  O   UNL     1     -13.075   9.314  71.540  1.00  0.00    -0.337 OA 
BRANCH   5   6
HETATM    6  C   UNL     1     -12.788  10.598  71.190  1.00  0.00    -0.420 A  
HETATM    7  C   UNL     1     -13.351  11.704  71.838  1.00  0.00    -0.403 A  
HETATM    8  C   UNL     1     -13.069  13.009  71.463  1.00  0.00    -0.310 A  
HETATM    9  C   UNL     1     -12.160  13.246  70.423  1.00  0.00    -0.401 A  
HETATM   10  C   UNL     1     -11.563  12.127  69.782  1.00  0.00    -0.334 A  
HETATM   11  C   UNL     1     -11.926  14.609  70.125  1.00  0.00    -0.313 A  
HETATM   12  N   UNL     1     -12.573  15.590  70.782  1.00  0.00    -0.438 NA 
HETATM   13  C   UNL     1     -11.883  10.811  70.141  1.00  0.00    -0.343 A  
HETATM   14  N   UNL     1     -13.690  13.983  72.128  1.00  0.00    -0.462 NA 
HETATM   15  C   UNL     1     -13.418  15.232  71.749  1.00  0.00    -0.463 A  
BRANCH  11  16
HETATM   16  N   UNL     1     -10.944  14.956  69.161  1.00  0.00    -0.249 NA 
HETATM   17  H   UNL     1      -9.998  15.062  69.526  1.00  0.00     0.000 HD 
BRANCH  16  18
HETATM   18  C   UNL     1     -11.077  15.179  67.769  1.00  0.00    -0.313 A  
HETATM   19  C   UNL     1     -11.625  14.166  66.962  1.00  0.00    -0.404 A  
HETATM   20  C   UNL     1     -11.146  15.432  64.954  1.00  0.00    -0.435 A  
HETATM   21  C   UNL     1     -11.656  14.289  65.565  1.00  0.00    -0.338 A  
HETATM   22  C   UNL     1     -10.560  16.311  67.125  1.00  0.00    -0.291 A  
HETATM   23  C   UNL     1     -10.604  16.448  65.734  1.00  0.00    -0.327 A  
BRANCH  21  24
HETATM   24  C   UNL     1     -12.177  13.233  64.749  1.00  0.00    -0.466 C  
HETATM   25  C   UNL     1     -12.655  12.343  64.102  1.00  0.00    -0.498 C  
ENDBRANCH  21  24
ENDBRANCH  16  18
ENDBRANCH  11  16
BRANCH  13  26
HETATM   26  O   UNL     1     -11.232   9.875  69.369  1.00  0.00    -0.221 OA 
BRANCH  26  27
HETATM   27  C   UNL     1      -9.835   9.686  69.595  1.00  0.00    -0.215 C  
BRANCH  27  28
HETATM   28  C   UNL     1      -9.098   9.432  68.285  1.00  0.00    -0.128 C  
BRANCH  28  29
HETATM   29  O   UNL     1     -10.077   9.309  67.249  1.00  0.00    -0.198 OA 
HETATM   30  C   UNL     1     -10.158  10.477  66.448  1.00  0.00    -0.228 C  
ENDBRANCH  28  29
ENDBRANCH  27  28
ENDBRANCH  26  27
ENDBRANCH  13  26
ENDBRANCH   5   6
ENDBRANCH   4   5
ENDBRANCH   3   4
ENDBRANCH   2   3
TORSDOF 11
ENDMDL
MODEL       20
REMARK 921   NORMALIZED FREE ENERGY PREDICTED BY IDOCK:   -6.02 KCAL/MOL
REMARK 922        TOTAL FREE ENERGY PREDICTED BY IDOCK:  -11.03 KCAL/MOL
REMARK 923 INTER-LIGAND FREE ENERGY PREDICTED BY IDOCK:   -9.77 KCAL/MOL
REMARK 924 INTRA-LIGAND FREE ENERGY PREDICTED BY IDOCK:   -1.26 KCAL/MOL
REMARK 927      BINDING AFFINITY PREDICTED BY RF-SCORE:    0.00 PKD
ROOT
HETATM    1  C   UNL     1      -7.303  20.741  66.973  1.00  0.00    -0.296 C  
HETATM    2  O   UNL     1      -8.078  19.584  66.682  1.00  0.00    -0.275 OA 
ENDROOT
BRANCH   2   3
HETATM    3  C   UNL     1      -9.423  19.934  66.369  1.00  0.00    -0.412 C  
BRANCH   3   4
HETATM    4  C   UNL     1     -10.319  18.700  66.441  1.00  0.00    -0.432 C  
BRANCH   4   5
HETATM    5  O   UNL     1      -9.651  17.663  65.729  1.00  0.00    -0.524 OA 
BRANCH   5   6
HETATM    6  C   UNL     1     -10.021  16.363  65.890  1.00  0.00    -0.332 A  
HETATM    7  C   UNL     1     -10.976  15.741  65.076  1.00  0.00    -0.431 A  
HETATM    8  C   UNL     1     -11.362  14.422  65.259  1.00  0.00    -0.346 A  
HETATM    9  C   UNL     1     -10.756  13.659  66.266  1.00  0.00    -0.285 A  
HETATM   10  C   UNL     1      -9.765  14.277  67.076  1.00  0.00    -0.253 A  
HETATM   11  C   UNL     1     -11.205  12.321  66.363  1.00  0.00    -0.324 A  
HETATM   12  N   UNL     1     -12.175  11.848  65.558  1.00  0.00    -0.306 NA 
HETATM   13  C   UNL     1      -9.408  15.622  66.910  1.00  0.00    -0.234 A  
HETATM   14  N   UNL     1     -12.305  13.944  64.447  1.00  0.00    -0.623 NA 
HETATM   15  C   UNL     1     -12.675  12.679  64.641  1.00  0.00    -0.377 A  
BRANCH  11  16
HETATM   16  N   UNL     1     -10.580  11.437  67.280  1.00  0.00    -0.216 NA 
HETATM   17  H   UNL     1      -9.645  11.128  67.014  1.00  0.00     0.000 HD 
BRANCH  16  18
HETATM   18  C   UNL     1     -11.056  10.918  68.509  1.00  0.00    -0.256 A  
HETATM   19  C   UNL     1     -11.797  11.751  69.365  1.00  0.00    -0.398 A  
HETATM   20  C   UNL     1     -11.825  10.049  71.087  1.00  0.00    -0.481 A  
HETATM   21  C   UNL     1     -12.176  11.323  70.645  1.00  0.00    -0.489 A  
HETATM   22  C   UNL     1     -10.706   9.646  68.986  1.00  0.00    -0.232 A  
HETATM   23  C   UNL     1     -11.096   9.207  70.254  1.00  0.00    -0.272 A  
BRANCH  21  24
HETATM   24  C   UNL     1     -12.894  12.194  71.526  1.00  0.00    -0.394 C  
HETATM   25  C   UNL     1     -13.449  12.930  72.296  1.00  0.00    -0.631 C  
ENDBRANCH  21  24
ENDBRANCH  16  18
ENDBRANCH  11  16
BRANCH  13  26
HETATM   26  O   UNL     1      -8.464  16.039  67.822  1.00  0.00    -0.159 OA 
BRANCH  26  27
HETATM   27  C   UNL     1      -7.103  15.693  67.571  1.00  0.00    -0.186 C  
BRANCH  27  28
HETATM   28  C   UNL     1      -6.200  16.161  68.708  1.00  0.00    -0.117 C  
BRANCH  28  29
HETATM   29  O   UNL     1      -6.870  17.226  69.388  1.00  0.00    -0.237 OA 
HETATM   30  C   UNL     1      -6.034  18.358  69.564  1.00  0.00    -0.253 C  
ENDBRANCH  28  29
ENDBRANCH  27  28
ENDBRANCH  26  27
ENDBRANCH  13  26
ENDBRANCH   5   6
ENDBRANCH   4   5
ENDBRANCH   3   4
ENDBRANCH   2   3
TORSDOF 11
ENDMDL
MODEL       21
REMARK 921   NORMALIZED FREE ENERGY PREDICTED BY IDOCK:   -6.01 KCAL/MOL
REMARK 922        TOTAL FREE ENERGY PREDICTED BY IDOCK:  -11.01 KCAL/MOL
REMARK 923 INTER-LIGAND FREE ENERGY PREDICTED BY IDOCK:   -9.72 KCAL/MOL
REMARK 924 INTRA-LIGAND FREE ENERGY PREDICTED BY IDOCK:   -1.30 KCAL/MOL
REMARK 927      BINDING AFFINITY PREDICTED BY RF-SCORE:    0.00 PKD
ROOT
HETATM    1  C   UNL     1     -12.291  12.322  63.688  1.00  0.00    -0.562 C  
HETATM    2  O   UNL     1     -11.556  13.339  64.360  1.00  0.00    -0.350 OA 
ENDROOT
BRANCH   2   3
HETATM    3  C   UNL     1     -12.361  13.991  65.339  1.00  0.00    -0.478 C  
BRANCH   3   4
HETATM    4  C   UNL     1     -11.496  14.889  66.219  1.00  0.00    -0.269 C  
BRANCH   4   5
HETATM    5  O   UNL     1     -10.626  14.034  66.953  1.00  0.00    -0.277 OA 
BRANCH   5   6
HETATM    6  C   UNL     1     -11.119  13.196  67.906  1.00  0.00    -0.262 A  
HETATM    7  C   UNL     1     -11.781  13.656  69.050  1.00  0.00    -0.375 A  
HETATM    8  C   UNL     1     -12.263  12.797  70.027  1.00  0.00    -0.209 A  
HETATM    9  C   UNL     1     -12.123  11.413  69.857  1.00  0.00    -0.404 A  
HETATM   10  C   UNL     1     -11.478  10.939  68.682  1.00  0.00    -0.380 A  
HETATM   11  C   UNL     1     -12.660  10.620  70.898  1.00  0.00    -0.407 A  
HETATM   12  N   UNL     1     -13.226  11.180  71.984  1.00  0.00    -0.447 NA 
HETATM   13  C   UNL     1     -10.959  11.815  67.719  1.00  0.00    -0.225 A  
HETATM   14  N   UNL     1     -12.845  13.348  71.091  1.00  0.00    -0.320 NA 
HETATM   15  C   UNL     1     -13.292  12.511  72.027  1.00  0.00    -0.426 A  
BRANCH  11  16
HETATM   16  N   UNL     1     -12.663   9.206  70.772  1.00  0.00    -0.500 NA 
HETATM   17  H   UNL     1     -13.404   8.827  70.184  1.00  0.00     0.000 HD 
BRANCH  16  18
HETATM   18  C   UNL     1     -11.794   8.242  71.337  1.00  0.00    -0.293 A  
HETATM   19  C   UNL     1     -11.337   7.179  70.538  1.00  0.00    -0.333 A  
HETATM   20  C   UNL     1     -10.266   6.136  72.444  1.00  0.00    -0.212 A  
HETATM   21  C   UNL     1     -10.582   6.132  71.087  1.00  0.00    -0.300 A  
HETATM   22  C   UNL     1     -11.471   8.212  72.701  1.00  0.00    -0.454 A  
HETATM   23  C   UNL     1     -10.705   7.181  73.250  1.00  0.00    -0.403 A  
BRANCH  21  24
HETATM   24  C   UNL     1     -10.158   5.032  70.274  1.00  0.00    -0.339 C  
HETATM   25  C   UNL     1      -9.748   4.125  69.602  1.00  0.00    -0.269 C  
ENDBRANCH  21  24
ENDBRANCH  16  18
ENDBRANCH  11  16
BRANCH  13  26
HETATM   26  O   UNL     1     -10.335  11.158  66.682  1.00  0.00    -0.223 OA 
BRANCH  26  27
HETATM   27  C   UNL     1     -10.189   9.743  66.788  1.00  0.00    -0.233 C  
BRANCH  27  28
HETATM   28  C   UNL     1      -9.514   9.168  65.547  1.00  0.00    -0.206 C  
BRANCH  28  29
HETATM   29  O   UNL     1      -9.752  10.070  64.463  1.00  0.00    -0.310 OA 
HETATM   30  C   UNL     1      -9.016   9.717  63.302  1.00  0.00    -0.252 C  
ENDBRANCH  28  29
ENDBRANCH  27  28
ENDBRANCH  26  27
ENDBRANCH  13  26
ENDBRANCH   5   6
ENDBRANCH   4   5
ENDBRANCH   3   4
ENDBRANCH   2   3
TORSDOF 11
ENDMDL
MODEL       22
REMARK 921   NORMALIZED FREE ENERGY PREDICTED BY IDOCK:   -5.96 KCAL/MOL
REMARK 922        TOTAL FREE ENERGY PREDICTED BY IDOCK:  -10.92 KCAL/MOL
REMARK 923 INTER-LIGAND FREE ENERGY PREDICTED BY IDOCK:   -9.79 KCAL/MOL
REMARK 924 INTRA-LIGAND FREE ENERGY PREDICTED BY IDOCK:   -1.14 KCAL/MOL
REMARK 927      BINDING AFFINITY PREDICTED BY RF-SCORE:    0.00 PKD
ROOT
HETATM    1  C   UNL     1     -10.537   7.876  72.396  1.00  0.00    -0.298 C  
HETATM    2  O   UNL     1     -11.944   7.712  72.530  1.00  0.00    -0.288 OA 
ENDROOT
BRANCH   2   3
HETATM    3  C   UNL     1     -12.647   8.769  71.883  1.00  0.00    -0.371 C  
BRANCH   3   4
HETATM    4  C   UNL     1     -11.661   9.767  71.283  1.00  0.00    -0.390 C  
BRANCH   4   5
HETATM    5  O   UNL     1     -12.417  10.904  70.881  1.00  0.00    -0.343 OA 
BRANCH   5   6
HETATM    6  C   UNL     1     -12.070  11.611  69.771  1.00  0.00    -0.289 A  
HETATM    7  C   UNL     1     -11.828  11.005  68.532  1.00  0.00    -0.286 A  
HETATM    8  C   UNL     1     -11.455  11.729  67.410  1.00  0.00    -0.305 A  
HETATM    9  C   UNL     1     -11.348  13.124  67.493  1.00  0.00    -0.336 A  
HETATM   10  C   UNL     1     -11.621  13.747  68.742  1.00  0.00    -0.363 A  
HETATM   11  C   UNL     1     -10.978  13.774  66.293  1.00  0.00    -0.297 A  
HETATM   12  N   UNL     1     -10.714  13.077  65.172  1.00  0.00    -0.296 NA 
HETATM   13  C   UNL     1     -11.960  13.004  69.881  1.00  0.00    -0.311 A  
HETATM   14  N   UNL     1     -11.216  11.043  66.292  1.00  0.00    -0.117 NA 
HETATM   15  C   UNL     1     -10.847  11.751  65.225  1.00  0.00    -0.290 A  
BRANCH  11  16
HETATM   16  N   UNL     1     -10.945  15.192  66.246  1.00  0.00    -0.340 NA 
HETATM   17  H   UNL     1     -11.808  15.634  65.929  1.00  0.00     0.000 HD 
BRANCH  16  18
HETATM   18  C   UNL     1      -9.898  16.088  66.573  1.00  0.00    -0.267 A  
HETATM   19  C   UNL     1     -10.206  17.433  66.843  1.00  0.00    -0.322 A  
HETATM   20  C   UNL     1      -7.855  17.999  66.981  1.00  0.00    -0.236 A  
HETATM   21  C   UNL     1      -9.193  18.383  67.042  1.00  0.00    -0.274 A  
HETATM   22  C   UNL     1      -8.543  15.734  66.505  1.00  0.00    -0.343 A  
HETATM   23  C   UNL     1      -7.530  16.672  66.720  1.00  0.00    -0.289 A  
BRANCH  21  24
HETATM   24  C   UNL     1      -9.515  19.759  67.274  1.00  0.00    -0.471 C  
HETATM   25  C   UNL     1      -9.766  20.906  67.521  1.00  0.00    -0.343 C  
ENDBRANCH  21  24
ENDBRANCH  16  18
ENDBRANCH  11  16
BRANCH  13  26
HETATM   26  O   UNL     1     -12.140  13.791  70.996  1.00  0.00    -0.340 OA 
BRANCH  26  27
HETATM   27  C   UNL     1     -12.612  15.123  70.797  1.00  0.00    -0.393 C  
BRANCH  27  28
HETATM   28  C   UNL     1     -11.954  16.090  71.776  1.00  0.00    -0.517 C  
BRANCH  28  29
HETATM   29  O   UNL     1     -12.823  16.229  72.904  1.00  0.00    -0.413 OA 
HETATM   30  C   UNL     1     -12.374  15.480  74.021  1.00  0.00    -0.660 C  
ENDBRANCH  28  29
ENDBRANCH  27  28
ENDBRANCH  26  27
ENDBRANCH  13  26
ENDBRANCH   5   6
ENDBRANCH   4   5
ENDBRANCH   3   4
ENDBRANCH   2   3
TORSDOF 11
ENDMDL
MODEL       23
REMARK 921   NORMALIZED FREE ENERGY PREDICTED BY IDOCK:   -5.86 KCAL/MOL
REMARK 922        TOTAL FREE ENERGY PREDICTED BY IDOCK:  -10.76 KCAL/MOL
REMARK 923 INTER-LIGAND FREE ENERGY PREDICTED BY IDOCK:   -9.80 KCAL/MOL
REMARK 924 INTRA-LIGAND FREE ENERGY PREDICTED BY IDOCK:   -0.96 KCAL/MOL
REMARK 927      BINDING AFFINITY PREDICTED BY RF-SCORE:    0.00 PKD
ROOT
HETATM    1  C   UNL     1     -10.749  19.613  65.727  1.00  0.00    -0.392 C  
HETATM    2  O   UNL     1      -9.894  19.848  66.840  1.00  0.00    -0.358 OA 
ENDROOT
BRANCH   2   3
HETATM    3  C   UNL     1      -9.844  18.710  67.696  1.00  0.00    -0.320 C  
BRANCH   3   4
HETATM    4  C   UNL     1      -8.978  17.620  67.072  1.00  0.00    -0.250 C  
BRANCH   4   5
HETATM    5  O   UNL     1      -9.858  16.585  66.648  1.00  0.00    -0.244 OA 
BRANCH   5   6
HETATM    6  C   UNL     1      -9.731  15.322  67.138  1.00  0.00    -0.217 A  
HETATM    7  C   UNL     1      -8.521  14.818  67.630  1.00  0.00    -0.185 A  
HETATM    8  C   UNL     1      -8.394  13.523  68.109  1.00  0.00    -0.167 A  
HETATM    9  C   UNL     1      -9.518  12.687  68.143  1.00  0.00    -0.218 A  
HETATM   10  C   UNL     1     -10.756  13.203  67.672  1.00  0.00    -0.250 A  
HETATM   11  C   UNL     1      -9.292  11.392  68.662  1.00  0.00    -0.150 A  
HETATM   12  N   UNL     1      -8.065  10.999  69.054  1.00  0.00    -0.134 NA 
HETATM   13  C   UNL     1     -10.867  14.501  67.153  1.00  0.00    -0.296 A  
HETATM   14  N   UNL     1      -7.185  13.140  68.519  1.00  0.00    -0.105 NA 
HETATM   15  C   UNL     1      -7.075  11.889  68.966  1.00  0.00    -0.092 A  
BRANCH  11  16
HETATM   16  N   UNL     1     -10.387  10.506  68.837  1.00  0.00    -0.196 NA 
HETATM   17  H   UNL     1     -10.532   9.843  68.077  1.00  0.00     0.000 HD 
BRANCH  16  18
HETATM   18  C   UNL     1     -11.309  10.401  69.908  1.00  0.00    -0.302 A  
HETATM   19  C   UNL     1     -11.969  11.558  70.359  1.00  0.00    -0.459 A  
HETATM   20  C   UNL     1     -12.968  10.335  72.195  1.00  0.00    -0.410 A  
HETATM   21  C   UNL     1     -12.789  11.527  71.496  1.00  0.00    -0.485 A  
HETATM   22  C   UNL     1     -11.498   9.220  70.638  1.00  0.00    -0.327 A  
HETATM   23  C   UNL     1     -12.328   9.179  71.762  1.00  0.00    -0.444 A  
BRANCH  21  24
HETATM   24  C   UNL     1     -13.423  12.719  71.974  1.00  0.00    -0.540 C  
HETATM   25  C   UNL     1     -13.953  13.738  72.321  1.00  0.00    -0.672 C  
ENDBRANCH  21  24
ENDBRANCH  16  18
ENDBRANCH  11  16
BRANCH  13  26
HETATM   26  O   UNL     1     -12.138  14.790  66.710  1.00  0.00    -0.291 OA 
BRANCH  26  27
HETATM   27  C   UNL     1     -12.658  14.011  65.633  1.00  0.00    -0.512 C  
BRANCH  27  28
HETATM   28  C   UNL     1     -12.244  14.595  64.286  1.00  0.00    -0.408 C  
BRANCH  28  29
HETATM   29  O   UNL     1     -12.627  13.663  63.270  1.00  0.00    -0.816 OA 
HETATM   30  C   UNL     1     -12.043  12.386  63.468  1.00  0.00    -0.558 C  
ENDBRANCH  28  29
ENDBRANCH  27  28
ENDBRANCH  26  27
ENDBRANCH  13  26
ENDBRANCH   5   6
ENDBRANCH   4   5
ENDBRANCH   3   4
ENDBRANCH   2   3
TORSDOF 11
ENDMDL
MODEL       24
REMARK 921   NORMALIZED FREE ENERGY PREDICTED BY IDOCK:   -5.82 KCAL/MOL
REMARK 922        TOTAL FREE ENERGY PREDICTED BY IDOCK:  -10.70 KCAL/MOL
REMARK 923 INTER-LIGAND FREE ENERGY PREDICTED BY IDOCK:   -9.78 KCAL/MOL
REMARK 924 INTRA-LIGAND FREE ENERGY PREDICTED BY IDOCK:   -0.93 KCAL/MOL
REMARK 927      BINDING AFFINITY PREDICTED BY RF-SCORE:    0.00 PKD
ROOT
HETATM    1  C   UNL     1     -12.598  15.667  74.096  1.00  0.00    -0.616 C  
HETATM    2  O   UNL     1     -11.911  16.592  73.260  1.00  0.00    -0.475 OA 
ENDROOT
BRANCH   2   3
HETATM    3  C   UNL     1     -11.694  16.047  71.963  1.00  0.00    -0.493 C  
BRANCH   3   4
HETATM    4  C   UNL     1     -12.992  15.461  71.414  1.00  0.00    -0.461 C  
BRANCH   4   5
HETATM    5  O   UNL     1     -12.662  14.783  70.206  1.00  0.00    -0.334 OA 
BRANCH   5   6
HETATM    6  C   UNL     1     -12.296  13.472  70.225  1.00  0.00    -0.300 A  
HETATM    7  C   UNL     1     -12.821  12.552  71.139  1.00  0.00    -0.303 A  
HETATM    8  C   UNL     1     -12.429  11.222  71.165  1.00  0.00    -0.373 A  
HETATM    9  C   UNL     1     -11.500  10.759  70.223  1.00  0.00    -0.406 A  
HETATM   10  C   UNL     1     -10.986  11.683  69.274  1.00  0.00    -0.246 A  
HETATM   11  C   UNL     1     -11.176   9.386  70.321  1.00  0.00    -0.246 A  
HETATM   12  N   UNL     1     -11.705   8.608  71.283  1.00  0.00    -0.279 NA 
HETATM   13  C   UNL     1     -11.359  13.034  69.279  1.00  0.00    -0.251 A  
HETATM   14  N   UNL     1     -12.969  10.444  72.103  1.00  0.00    -0.389 NA 
HETATM   15  C   UNL     1     -12.574   9.172  72.123  1.00  0.00    -0.381 A  
BRANCH  11  16
HETATM   16  N   UNL     1     -10.326   8.796  69.348  1.00  0.00    -0.211 NA 
HETATM   17  H   UNL     1      -9.541   9.375  69.052  1.00  0.00     0.000 HD 
BRANCH  16  18
HETATM   18  C   UNL     1     -10.402   7.526  68.726  1.00  0.00    -0.200 A  
HETATM   19  C   UNL     1     -10.088   6.377  69.473  1.00  0.00    -0.203 A  
HETATM   20  C   UNL     1     -10.279   4.980  67.504  1.00  0.00    -0.184 A  
HETATM   21  C   UNL     1     -10.023   5.114  68.867  1.00  0.00    -0.245 A  
HETATM   22  C   UNL     1     -10.643   7.362  67.355  1.00  0.00    -0.371 A  
HETATM   23  C   UNL     1     -10.597   6.104  66.749  1.00  0.00    -0.351 A  
BRANCH  21  24
HETATM   24  C   UNL     1      -9.659   3.956  69.626  1.00  0.00    -0.259 C  
HETATM   25  C   UNL     1      -9.334   2.962  70.215  1.00  0.00    -0.219 C  
ENDBRANCH  21  24
ENDBRANCH  16  18
ENDBRANCH  11  16
BRANCH  13  26
HETATM   26  O   UNL     1     -10.715  13.768  68.308  1.00  0.00    -0.239 OA 
BRANCH  26  27
HETATM   27  C   UNL     1     -10.967  13.430  66.945  1.00  0.00    -0.284 C  
BRANCH  27  28
HETATM   28  C   UNL     1     -12.221  14.129  66.430  1.00  0.00    -0.446 C  
BRANCH  28  29
HETATM   29  O   UNL     1     -12.715  13.377  65.318  1.00  0.00    -0.574 OA 
HETATM   30  C   UNL     1     -12.089  13.748  64.101  1.00  0.00    -0.433 C  
ENDBRANCH  28  29
ENDBRANCH  27  28
ENDBRANCH  26  27
ENDBRANCH  13  26
ENDBRANCH   5   6
ENDBRANCH   4   5
ENDBRANCH   3   4
ENDBRANCH   2   3
TORSDOF 11
ENDMDL
MODEL       25
REMARK 921   NORMALIZED FREE ENERGY PREDICTED BY IDOCK:   -5.82 KCAL/MOL
REMARK 922        TOTAL FREE ENERGY PREDICTED BY IDOCK:  -10.70 KCAL/MOL
REMARK 923 INTER-LIGAND FREE ENERGY PREDICTED BY IDOCK:   -9.53 KCAL/MOL
REMARK 924 INTRA-LIGAND FREE ENERGY PREDICTED BY IDOCK:   -1.17 KCAL/MOL
REMARK 927      BINDING AFFINITY PREDICTED BY RF-SCORE:    0.00 PKD
ROOT
HETATM    1  C   UNL     1     -10.422  19.610  66.077  1.00  0.00    -0.523 C  
HETATM    2  O   UNL     1      -9.056  19.222  66.003  1.00  0.00    -0.433 OA 
ENDROOT
BRANCH   2   3
HETATM    3  C   UNL     1      -8.771  18.175  66.926  1.00  0.00    -0.259 C  
BRANCH   3   4
HETATM    4  C   UNL     1      -8.769  16.827  66.209  1.00  0.00    -0.307 C  
BRANCH   4   5
HETATM    5  O   UNL     1      -9.933  16.129  66.639  1.00  0.00    -0.241 OA 
BRANCH   5   6
HETATM    6  C   UNL     1      -9.842  14.859  67.120  1.00  0.00    -0.231 A  
HETATM    7  C   UNL     1      -8.642  14.310  67.588  1.00  0.00    -0.186 A  
HETATM    8  C   UNL     1      -8.553  13.008  68.058  1.00  0.00    -0.186 A  
HETATM    9  C   UNL     1      -9.706  12.213  68.107  1.00  0.00    -0.208 A  
HETATM   10  C   UNL     1     -10.933  12.775  67.661  1.00  0.00    -0.274 A  
HETATM   11  C   UNL     1      -9.517  10.907  68.616  1.00  0.00    -0.190 A  
HETATM   12  N   UNL     1      -8.298  10.468  68.984  1.00  0.00    -0.146 NA 
HETATM   13  C   UNL     1     -11.006  14.079  67.151  1.00  0.00    -0.296 A  
HETATM   14  N   UNL     1      -7.352  12.580  68.445  1.00  0.00    -0.108 NA 
HETATM   15  C   UNL     1      -7.279  11.323  68.883  1.00  0.00    -0.112 A  
BRANCH  11  16
HETATM   16  N   UNL     1     -10.639  10.059  68.805  1.00  0.00    -0.208 NA 
HETATM   17  H   UNL     1     -11.024   9.655  67.953  1.00  0.00     0.000 HD 
BRANCH  16  18
HETATM   18  C   UNL     1     -11.307   9.689  69.999  1.00  0.00    -0.195 A  
HETATM   19  C   UNL     1     -11.059   8.424  70.559  1.00  0.00    -0.267 A  
HETATM   20  C   UNL     1     -12.779   8.767  72.229  1.00  0.00    -0.466 A  
HETATM   21  C   UNL     1     -11.791   7.964  71.662  1.00  0.00    -0.325 A  
HETATM   22  C   UNL     1     -12.315  10.470  70.582  1.00  0.00    -0.449 A  
HETATM   23  C   UNL     1     -13.036  10.024  71.693  1.00  0.00    -0.554 A  
BRANCH  21  24
HETATM   24  C   UNL     1     -11.562   6.656  72.199  1.00  0.00    -0.335 C  
HETATM   25  C   UNL     1     -11.317   5.562  72.630  1.00  0.00    -0.346 C  
ENDBRANCH  21  24
ENDBRANCH  16  18
ENDBRANCH  11  16
BRANCH  13  26
HETATM   26  O   UNL     1     -12.274  14.416  66.732  1.00  0.00    -0.420 OA 
BRANCH  26  27
HETATM   27  C   UNL     1     -12.759  13.810  65.535  1.00  0.00    -0.488 C  
BRANCH  27  28
HETATM   28  C   UNL     1     -12.161  14.478  64.302  1.00  0.00    -0.425 C  
BRANCH  28  29
HETATM   29  O   UNL     1     -12.413  13.628  63.178  1.00  0.00    -0.786 OA 
HETATM   30  C   UNL     1     -12.371  12.254  63.527  1.00  0.00    -0.565 C  
ENDBRANCH  28  29
ENDBRANCH  27  28
ENDBRANCH  26  27
ENDBRANCH  13  26
ENDBRANCH   5   6
ENDBRANCH   4   5
ENDBRANCH   3   4
ENDBRANCH   2   3
TORSDOF 11
ENDMDL
MODEL       26
REMARK 921   NORMALIZED FREE ENERGY PREDICTED BY IDOCK:   -5.82 KCAL/MOL
REMARK 922        TOTAL FREE ENERGY PREDICTED BY IDOCK:  -10.69 KCAL/MOL
REMARK 923 INTER-LIGAND FREE ENERGY PREDICTED BY IDOCK:   -9.35 KCAL/MOL
REMARK 924 INTRA-LIGAND FREE ENERGY PREDICTED BY IDOCK:   -1.35 KCAL/MOL
REMARK 927      BINDING AFFINITY PREDICTED BY RF-SCORE:    0.00 PKD
ROOT
HETATM    1  C   UNL     1      -8.087  18.847  68.058  1.00  0.00    -0.292 C  
HETATM    2  O   UNL     1      -9.067  19.184  67.083  1.00  0.00    -0.279 OA 
ENDROOT
BRANCH   2   3
HETATM    3  C   UNL     1     -10.379  18.879  67.548  1.00  0.00    -0.426 C  
BRANCH   3   4
HETATM    4  C   UNL     1     -10.338  17.672  68.483  1.00  0.00    -0.370 C  
BRANCH   4   5
HETATM    5  O   UNL     1     -11.228  16.701  67.943  1.00  0.00    -0.263 OA 
BRANCH   5   6
HETATM    6  C   UNL     1     -11.594  15.613  68.674  1.00  0.00    -0.382 A  
HETATM    7  C   UNL     1     -12.276  15.714  69.892  1.00  0.00    -0.317 A  
HETATM    8  C   UNL     1     -12.628  14.601  70.642  1.00  0.00    -0.357 A  
HETATM    9  C   UNL     1     -12.329  13.321  70.158  1.00  0.00    -0.306 A  
HETATM   10  C   UNL     1     -11.662  13.212  68.907  1.00  0.00    -0.368 A  
HETATM   11  C   UNL     1     -12.742  12.251  70.985  1.00  0.00    -0.225 A  
HETATM   12  N   UNL     1     -13.343  12.473  72.169  1.00  0.00    -0.510 NA 
HETATM   13  C   UNL     1     -11.276  14.343  68.174  1.00  0.00    -0.281 A  
HETATM   14  N   UNL     1     -13.244  14.818  71.804  1.00  0.00    -0.325 NA 
HETATM   15  C   UNL     1     -13.566  13.741  72.519  1.00  0.00    -0.575 A  
BRANCH  11  16
HETATM   16  N   UNL     1     -12.580  10.914  70.535  1.00  0.00    -0.333 NA 
HETATM   17  H   UNL     1     -13.375  10.532  70.023  1.00  0.00     0.000 HD 
BRANCH  16  18
HETATM   18  C   UNL     1     -11.484  10.030  70.687  1.00  0.00    -0.345 A  
HETATM   19  C   UNL     1     -11.493   9.103  71.744  1.00  0.00    -0.452 A  
HETATM   20  C   UNL     1      -9.234   8.405  71.221  1.00  0.00    -0.228 A  
HETATM   21  C   UNL     1     -10.376   8.299  72.012  1.00  0.00    -0.350 A  
HETATM   22  C   UNL     1     -10.317  10.123  69.916  1.00  0.00    -0.308 A  
HETATM   23  C   UNL     1      -9.207   9.313  70.167  1.00  0.00    -0.254 A  
BRANCH  21  24
HETATM   24  C   UNL     1     -10.377   7.389  73.117  1.00  0.00    -0.384 C  
HETATM   25  C   UNL     1     -10.333   6.652  74.064  1.00  0.00    -0.377 C  
ENDBRANCH  21  24
ENDBRANCH  16  18
ENDBRANCH  11  16
BRANCH  13  26
HETATM   26  O   UNL     1     -10.604  14.022  67.015  1.00  0.00    -0.276 OA 
BRANCH  26  27
HETATM   27  C   UNL     1      -9.277  13.514  67.138  1.00  0.00    -0.236 C  
BRANCH  27  28
HETATM   28  C   UNL     1      -8.277  14.642  67.366  1.00  0.00    -0.201 C  
BRANCH  28  29
HETATM   29  O   UNL     1      -7.513  14.321  68.533  1.00  0.00    -0.107 OA 
HETATM   30  C   UNL     1      -7.624  15.318  69.536  1.00  0.00    -0.219 C  
ENDBRANCH  28  29
ENDBRANCH  27  28
ENDBRANCH  26  27
ENDBRANCH  13  26
ENDBRANCH   5   6
ENDBRANCH   4   5
ENDBRANCH   3   4
ENDBRANCH   2   3
TORSDOF 11
ENDMDL
MODEL       27
REMARK 921   NORMALIZED FREE ENERGY PREDICTED BY IDOCK:   -5.82 KCAL/MOL
REMARK 922        TOTAL FREE ENERGY PREDICTED BY IDOCK:  -10.69 KCAL/MOL
REMARK 923 INTER-LIGAND FREE ENERGY PREDICTED BY IDOCK:   -9.50 KCAL/MOL
REMARK 924 INTRA-LIGAND FREE ENERGY PREDICTED BY IDOCK:   -1.19 KCAL/MOL
REMARK 927      BINDING AFFINITY PREDICTED BY RF-SCORE:    0.00 PKD
ROOT
HETATM    1  C   UNL     1      -9.663   4.315  69.506  1.00  0.00    -0.201 C  
HETATM    2  O   UNL     1      -9.880   5.710  69.679  1.00  0.00    -0.160 OA 
ENDROOT
BRANCH   2   3
HETATM    3  C   UNL     1     -11.109   6.115  69.082  1.00  0.00    -0.378 C  
BRANCH   3   4
HETATM    4  C   UNL     1     -10.855   6.684  67.688  1.00  0.00    -0.315 C  
BRANCH   4   5
HETATM    5  O   UNL     1      -9.994   7.805  67.850  1.00  0.00    -0.157 OA 
BRANCH   5   6
HETATM    6  C   UNL     1     -10.266   8.984  67.227  1.00  0.00    -0.256 A  
HETATM    7  C   UNL     1      -9.964   9.217  65.880  1.00  0.00    -0.289 A  
HETATM    8  C   UNL     1     -10.226  10.428  65.258  1.00  0.00    -0.262 A  
HETATM    9  C   UNL     1     -10.850  11.454  65.980  1.00  0.00    -0.306 A  
HETATM   10  C   UNL     1     -11.187  11.212  67.340  1.00  0.00    -0.363 A  
HETATM   11  C   UNL     1     -11.090  12.644  65.254  1.00  0.00    -0.295 A  
HETATM   12  N   UNL     1     -10.701  12.772  63.972  1.00  0.00    -0.413 NA 
HETATM   13  C   UNL     1     -10.883   9.999  67.972  1.00  0.00    -0.260 A  
HETATM   14  N   UNL     1      -9.863  10.549  63.981  1.00  0.00    -0.322 NA 
HETATM   15  C   UNL     1     -10.110  11.723  63.399  1.00  0.00    -0.446 A  
BRANCH  11  16
HETATM   16  N   UNL     1     -11.812  13.703  65.864  1.00  0.00    -0.359 NA 
HETATM   17  H   UNL     1     -12.795  13.763  65.602  1.00  0.00     0.000 HD 
BRANCH  16  18
HETATM   18  C   UNL     1     -11.375  14.690  66.781  1.00  0.00    -0.356 A  
HETATM   19  C   UNL     1     -11.909  14.701  68.082  1.00  0.00    -0.332 A  
HETATM   20  C   UNL     1     -10.756  16.768  68.595  1.00  0.00    -0.352 A  
HETATM   21  C   UNL     1     -11.605  15.734  68.981  1.00  0.00    -0.406 A  
HETATM   22  C   UNL     1     -10.534  15.750  66.417  1.00  0.00    -0.307 A  
HETATM   23  C   UNL     1     -10.214  16.773  67.314  1.00  0.00    -0.292 A  
BRANCH  21  24
HETATM   24  C   UNL     1     -12.188  15.760  70.289  1.00  0.00    -0.367 C  
HETATM   25  C   UNL     1     -12.626  15.797  71.406  1.00  0.00    -0.516 C  
ENDBRANCH  21  24
ENDBRANCH  16  18
ENDBRANCH  11  16
BRANCH  13  26
HETATM   26  O   UNL     1     -11.251   9.983  69.299  1.00  0.00    -0.222 OA 
BRANCH  26  27
HETATM   27  C   UNL     1     -12.105  11.029  69.762  1.00  0.00    -0.353 C  
BRANCH  27  28
HETATM   28  C   UNL     1     -12.598  10.747  71.178  1.00  0.00    -0.428 C  
BRANCH  28  29
HETATM   29  O   UNL     1     -12.674   9.328  71.340  1.00  0.00    -0.315 OA 
HETATM   30  C   UNL     1     -13.764   8.941  72.161  1.00  0.00    -0.474 C  
ENDBRANCH  28  29
ENDBRANCH  27  28
ENDBRANCH  26  27
ENDBRANCH  13  26
ENDBRANCH   5   6
ENDBRANCH   4   5
ENDBRANCH   3   4
ENDBRANCH   2   3
TORSDOF 11
ENDMDL
MODEL       28
REMARK 921   NORMALIZED FREE ENERGY PREDICTED BY IDOCK:   -5.80 KCAL/MOL
REMARK 922        TOTAL FREE ENERGY PREDICTED BY IDOCK:  -10.66 KCAL/MOL
REMARK 923 INTER-LIGAND FREE ENERGY PREDICTED BY IDOCK:   -9.51 KCAL/MOL
REMARK 924 INTRA-LIGAND FREE ENERGY PREDICTED BY IDOCK:   -1.16 KCAL/MOL
REMARK 927      BINDING AFFINITY PREDICTED BY RF-SCORE:    0.00 PKD
ROOT
HETATM    1  C   UNL     1     -11.030   5.996  71.315  1.00  0.00    -0.278 C  
HETATM    2  O   UNL     1     -11.758   6.746  72.280  1.00  0.00    -0.281 OA 
ENDROOT
BRANCH   2   3
HETATM    3  C   UNL     1     -12.882   7.391  71.687  1.00  0.00    -0.367 C  
BRANCH   3   4
HETATM    4  C   UNL     1     -12.859   8.884  72.000  1.00  0.00    -0.397 C  
BRANCH   4   5
HETATM    5  O   UNL     1     -12.222   9.527  70.902  1.00  0.00    -0.292 OA 
BRANCH   5   6
HETATM    6  C   UNL     1     -12.328  10.873  70.729  1.00  0.00    -0.390 A  
HETATM    7  C   UNL     1     -12.826  11.727  71.721  1.00  0.00    -0.403 A  
HETATM    8  C   UNL     1     -12.951  13.095  71.530  1.00  0.00    -0.321 A  
HETATM    9  C   UNL     1     -12.532  13.664  70.320  1.00  0.00    -0.335 A  
HETATM   10  C   UNL     1     -11.999  12.805  69.321  1.00  0.00    -0.300 A  
HETATM   11  C   UNL     1     -12.685  15.066  70.227  1.00  0.00    -0.275 A  
HETATM   12  N   UNL     1     -13.232  15.779  71.230  1.00  0.00    -0.511 NA 
HETATM   13  C   UNL     1     -11.912  11.418  69.507  1.00  0.00    -0.341 A  
HETATM   14  N   UNL     1     -13.470  13.806  72.531  1.00  0.00    -0.555 NA 
HETATM   15  C   UNL     1     -13.595  15.117  72.330  1.00  0.00    -0.462 A  
BRANCH  11  16
HETATM   16  N   UNL     1     -12.194  15.751  69.084  1.00  0.00    -0.552 NA 
HETATM   17  H   UNL     1     -12.893  15.960  68.373  1.00  0.00     0.000 HD 
BRANCH  16  18
HETATM   18  C   UNL     1     -10.881  16.188  68.781  1.00  0.00    -0.310 A  
HETATM   19  C   UNL     1      -9.785  15.473  69.296  1.00  0.00    -0.272 A  
HETATM   20  C   UNL     1      -8.237  17.128  68.442  1.00  0.00    -0.253 A  
HETATM   21  C   UNL     1      -8.473  15.941  69.131  1.00  0.00    -0.254 A  
HETATM   22  C   UNL     1     -10.614  17.385  68.104  1.00  0.00    -0.376 A  
HETATM   23  C   UNL     1      -9.307  17.848  67.922  1.00  0.00    -0.271 A  
BRANCH  21  24
HETATM   24  C   UNL     1      -7.366  15.229  69.696  1.00  0.00    -0.188 C  
HETATM   25  C   UNL     1      -6.445  14.593  70.129  1.00  0.00    -0.166 C  
ENDBRANCH  21  24
ENDBRANCH  16  18
ENDBRANCH  11  16
BRANCH  13  26
HETATM   26  O   UNL     1     -11.410  10.763  68.404  1.00  0.00    -0.268 OA 
BRANCH  26  27
HETATM   27  C   UNL     1     -10.414  11.434  67.633  1.00  0.00    -0.194 C  
BRANCH  27  28
HETATM   28  C   UNL     1     -10.553  11.102  66.151  1.00  0.00    -0.248 C  
BRANCH  28  29
HETATM   29  O   UNL     1     -11.545  11.973  65.599  1.00  0.00    -0.354 OA 
HETATM   30  C   UNL     1     -11.210  13.341  65.769  1.00  0.00    -0.294 C  
ENDBRANCH  28  29
ENDBRANCH  27  28
ENDBRANCH  26  27
ENDBRANCH  13  26
ENDBRANCH   5   6
ENDBRANCH   4   5
ENDBRANCH   3   4
ENDBRANCH   2   3
TORSDOF 11
ENDMDL
MODEL       29
REMARK 921   NORMALIZED FREE ENERGY PREDICTED BY IDOCK:   -5.79 KCAL/MOL
REMARK 922        TOTAL FREE ENERGY PREDICTED BY IDOCK:  -10.64 KCAL/MOL
REMARK 923 INTER-LIGAND FREE ENERGY PREDICTED BY IDOCK:   -9.60 KCAL/MOL
REMARK 924 INTRA-LIGAND FREE ENERGY PREDICTED BY IDOCK:   -1.04 KCAL/MOL
REMARK 927      BINDING AFFINITY PREDICTED BY RF-SCORE:    0.00 PKD
ROOT
HETATM    1  C   UNL     1      -9.638  10.859  63.096  1.00  0.00    -0.357 C  
HETATM    2  O   UNL     1     -10.053  10.305  64.339  1.00  0.00    -0.324 OA 
ENDROOT
BRANCH   2   3
HETATM    3  C   UNL     1      -9.064   9.423  64.863  1.00  0.00    -0.202 C  
BRANCH   3   4
HETATM    4  C   UNL     1      -9.540   8.823  66.184  1.00  0.00    -0.253 C  
BRANCH   4   5
HETATM    5  O   UNL     1      -9.171   9.739  67.210  1.00  0.00    -0.134 OA 
BRANCH   5   6
HETATM    6  C   UNL     1     -10.049  10.063  68.198  1.00  0.00    -0.159 A  
HETATM    7  C   UNL     1     -10.251   9.259  69.326  1.00  0.00    -0.211 A  
HETATM    8  C   UNL     1     -11.162   9.585  70.319  1.00  0.00    -0.261 A  
HETATM    9  C   UNL     1     -11.888  10.779  70.223  1.00  0.00    -0.438 A  
HETATM   10  C   UNL     1     -11.666  11.614  69.094  1.00  0.00    -0.390 A  
HETATM   11  C   UNL     1     -12.780  11.031  71.292  1.00  0.00    -0.432 A  
HETATM   12  N   UNL     1     -12.931  10.152  72.300  1.00  0.00    -0.324 NA 
HETATM   13  C   UNL     1     -10.772  11.258  68.075  1.00  0.00    -0.203 A  
HETATM   14  N   UNL     1     -11.296   8.727  71.331  1.00  0.00    -0.272 NA 
HETATM   15  C   UNL     1     -12.183   9.048  72.272  1.00  0.00    -0.317 A  
BRANCH  11  16
HETATM   16  N   UNL     1     -13.484  12.263  71.341  1.00  0.00     0.085 NA 
HETATM   17  H   UNL     1     -14.481  12.199  71.141  1.00  0.00     0.000 HD 
BRANCH  16  18
HETATM   18  C   UNL     1     -13.012  13.568  71.627  1.00  0.00    -0.359 A  
HETATM   19  C   UNL     1     -12.385  14.308  70.610  1.00  0.00    -0.431 A  
HETATM   20  C   UNL     1     -11.816  16.071  72.170  1.00  0.00    -0.623 A  
HETATM   21  C   UNL     1     -11.788  15.548  70.879  1.00  0.00    -0.413 A  
HETATM   22  C   UNL     1     -13.014  14.113  72.918  1.00  0.00    -0.498 A  
HETATM   23  C   UNL     1     -12.436  15.356  73.189  1.00  0.00    -0.572 A  
BRANCH  21  24
HETATM   24  C   UNL     1     -11.113  16.275  69.846  1.00  0.00    -0.347 C  
HETATM   25  C   UNL     1     -10.596  16.911  68.969  1.00  0.00    -0.338 C  
ENDBRANCH  21  24
ENDBRANCH  16  18
ENDBRANCH  11  16
BRANCH  13  26
HETATM   26  O   UNL     1     -10.736  12.178  67.052  1.00  0.00    -0.226 OA 
BRANCH  26  27
HETATM   27  C   UNL     1     -11.893  12.991  66.851  1.00  0.00    -0.380 C  
BRANCH  27  28
HETATM   28  C   UNL     1     -12.261  13.062  65.373  1.00  0.00    -0.471 C  
BRANCH  28  29
HETATM   29  O   UNL     1     -11.114  13.532  64.659  1.00  0.00    -0.340 OA 
HETATM   30  C   UNL     1     -10.875  14.912  64.878  1.00  0.00    -0.413 C  
ENDBRANCH  28  29
ENDBRANCH  27  28
ENDBRANCH  26  27
ENDBRANCH  13  26
ENDBRANCH   5   6
ENDBRANCH   4   5
ENDBRANCH   3   4
ENDBRANCH   2   3
TORSDOF 11
ENDMDL
MODEL       30
REMARK 921   NORMALIZED FREE ENERGY PREDICTED BY IDOCK:   -5.77 KCAL/MOL
REMARK 922        TOTAL FREE ENERGY PREDICTED BY IDOCK:  -10.62 KCAL/MOL
REMARK 923 INTER-LIGAND FREE ENERGY PREDICTED BY IDOCK:   -9.56 KCAL/MOL
REMARK 924 INTRA-LIGAND FREE ENERGY PREDICTED BY IDOCK:   -1.06 KCAL/MOL
REMARK 927      BINDING AFFINITY PREDICTED BY RF-SCORE:    0.00 PKD
ROOT
HETATM    1  C   UNL     1     -10.401   7.978  72.336  1.00  0.00    -0.289 C  
HETATM    2  O   UNL     1     -11.816   7.870  72.448  1.00  0.00    -0.335 OA 
ENDROOT
BRANCH   2   3
HETATM    3  C   UNL     1     -12.465   8.963  71.804  1.00  0.00    -0.362 C  
BRANCH   3   4
HETATM    4  C   UNL     1     -11.431   9.884  71.161  1.00  0.00    -0.383 C  
BRANCH   4   5
HETATM    5  O   UNL     1     -12.084  11.123  70.906  1.00  0.00    -0.346 OA 
BRANCH   5   6
HETATM    6  C   UNL     1     -11.826  11.821  69.766  1.00  0.00    -0.349 A  
HETATM    7  C   UNL     1     -11.571  11.199  68.538  1.00  0.00    -0.385 A  
HETATM    8  C   UNL     1     -11.288  11.917  67.386  1.00  0.00    -0.324 A  
HETATM    9  C   UNL     1     -11.292  13.317  67.427  1.00  0.00    -0.337 A  
HETATM   10  C   UNL     1     -11.580  13.954  68.665  1.00  0.00    -0.363 A  
HETATM   11  C   UNL     1     -11.009  13.958  66.199  1.00  0.00    -0.293 A  
HETATM   12  N   UNL     1     -10.721  13.251  65.090  1.00  0.00    -0.309 NA 
HETATM   13  C   UNL     1     -11.826  13.221  69.834  1.00  0.00    -0.310 A  
HETATM   14  N   UNL     1     -11.026  11.218  66.281  1.00  0.00    -0.246 NA 
HETATM   15  C   UNL     1     -10.745  11.921  65.184  1.00  0.00    -0.291 A  
BRANCH  11  16
HETATM   16  N   UNL     1     -11.092  15.372  66.111  1.00  0.00    -0.280 NA 
HETATM   17  H   UNL     1     -12.018  15.737  65.889  1.00  0.00     0.000 HD 
BRANCH  16  18
HETATM   18  C   UNL     1     -10.087  16.354  66.285  1.00  0.00    -0.331 A  
HETATM   19  C   UNL     1      -8.789  15.950  66.645  1.00  0.00    -0.316 A  
HETATM   20  C   UNL     1      -8.085  18.253  66.901  1.00  0.00    -0.259 A  
HETATM   21  C   UNL     1      -7.796  16.891  66.954  1.00  0.00    -0.252 A  
HETATM   22  C   UNL     1     -10.351  17.730  66.252  1.00  0.00    -0.358 A  
HETATM   23  C   UNL     1      -9.361  18.674  66.543  1.00  0.00    -0.323 A  
BRANCH  21  24
HETATM   24  C   UNL     1      -6.490  16.470  67.362  1.00  0.00    -0.198 C  
HETATM   25  C   UNL     1      -5.419  16.073  67.731  1.00  0.00    -0.160 C  
ENDBRANCH  21  24
ENDBRANCH  16  18
ENDBRANCH  11  16
BRANCH  13  26
HETATM   26  O   UNL     1     -12.039  14.025  70.932  1.00  0.00    -0.333 OA 
BRANCH  26  27
HETATM   27  C   UNL     1     -13.371  14.121  71.434  1.00  0.00    -0.331 C  
BRANCH  27  28
HETATM   28  C   UNL     1     -13.577  15.428  72.193  1.00  0.00    -0.498 C  
BRANCH  28  29
HETATM   29  O   UNL     1     -13.237  15.196  73.563  1.00  0.00    -0.470 OA 
HETATM   30  C   UNL     1     -12.504  16.275  74.122  1.00  0.00    -0.533 C  
ENDBRANCH  28  29
ENDBRANCH  27  28
ENDBRANCH  26  27
ENDBRANCH  13  26
ENDBRANCH   5   6
ENDBRANCH   4   5
ENDBRANCH   3   4
ENDBRANCH   2   3
TORSDOF 11
ENDMDL
MODEL       31
REMARK 921   NORMALIZED FREE ENERGY PREDICTED BY IDOCK:   -5.77 KCAL/MOL
REMARK 922        TOTAL FREE ENERGY PREDICTED BY IDOCK:  -10.62 KCAL/MOL
REMARK 923 INTER-LIGAND FREE ENERGY PREDICTED BY IDOCK:   -9.49 KCAL/MOL
REMARK 924 INTRA-LIGAND FREE ENERGY PREDICTED BY IDOCK:   -1.13 KCAL/MOL
REMARK 927      BINDING AFFINITY PREDICTED BY RF-SCORE:    0.00 PKD
ROOT
HETATM    1  C   UNL     1     -12.287  12.356  63.352  1.00  0.00    -0.499 C  
HETATM    2  O   UNL     1     -12.935  13.205  64.292  1.00  0.00    -0.635 OA 
ENDROOT
BRANCH   2   3
HETATM    3  C   UNL     1     -12.234  14.436  64.438  1.00  0.00    -0.458 C  
BRANCH   3   4
HETATM    4  C   UNL     1     -10.870  14.192  65.079  1.00  0.00    -0.398 C  
BRANCH   4   5
HETATM    5  O   UNL     1     -11.089  14.066  66.480  1.00  0.00    -0.306 OA 
BRANCH   5   6
HETATM    6  C   UNL     1     -11.069  12.843  67.077  1.00  0.00    -0.275 A  
HETATM    7  C   UNL     1     -10.505  11.713  66.473  1.00  0.00    -0.276 A  
HETATM    8  C   UNL     1     -10.507  10.466  67.079  1.00  0.00    -0.251 A  
HETATM    9  C   UNL     1     -11.057  10.322  68.360  1.00  0.00    -0.302 A  
HETATM   10  C   UNL     1     -11.604  11.473  68.991  1.00  0.00    -0.383 A  
HETATM   11  C   UNL     1     -10.998   9.017  68.900  1.00  0.00     0.054 A  
HETATM   12  N   UNL     1     -10.480   7.991  68.197  1.00  0.00    -0.194 NA 
HETATM   13  C   UNL     1     -11.633  12.722  68.355  1.00  0.00    -0.325 A  
HETATM   14  N   UNL     1      -9.974   9.454  66.395  1.00  0.00    -0.265 NA 
HETATM   15  C   UNL     1      -9.993   8.259  66.985  1.00  0.00    -0.255 A  
BRANCH  11  16
HETATM   16  N   UNL     1     -11.431   8.789  70.232  1.00  0.00    -0.444 NA 
HETATM   17  H   UNL     1     -12.360   9.149  70.451  1.00  0.00     0.000 HD 
BRANCH  16  18
HETATM   18  C   UNL     1     -10.772   8.138  71.303  1.00  0.00    -0.227 A  
HETATM   19  C   UNL     1     -11.146   6.826  71.643  1.00  0.00    -0.282 A  
HETATM   20  C   UNL     1      -9.693   6.857  73.580  1.00  0.00    -0.266 A  
HETATM   21  C   UNL     1     -10.614   6.191  72.774  1.00  0.00    -0.254 A  
HETATM   22  C   UNL     1      -9.852   8.787  72.139  1.00  0.00    -0.347 A  
HETATM   23  C   UNL     1      -9.306   8.153  73.258  1.00  0.00    -0.308 A  
BRANCH  21  24
HETATM   24  C   UNL     1     -11.034   4.871  73.137  1.00  0.00    -0.376 C  
HETATM   25  C   UNL     1     -11.390   3.781  73.495  1.00  0.00    -0.245 C  
ENDBRANCH  21  24
ENDBRANCH  16  18
ENDBRANCH  11  16
BRANCH  13  26
HETATM   26  O   UNL     1     -12.245  13.693  69.116  1.00  0.00    -0.326 OA 
BRANCH  26  27
HETATM   27  C   UNL     1     -11.412  14.521  69.927  1.00  0.00    -0.270 C  
BRANCH  27  28
HETATM   28  C   UNL     1     -12.017  14.715  71.313  1.00  0.00    -0.343 C  
BRANCH  28  29
HETATM   29  O   UNL     1     -13.033  15.717  71.211  1.00  0.00    -0.474 OA 
HETATM   30  C   UNL     1     -14.303  15.235  71.619  1.00  0.00    -0.561 C  
ENDBRANCH  28  29
ENDBRANCH  27  28
ENDBRANCH  26  27
ENDBRANCH  13  26
ENDBRANCH   5   6
ENDBRANCH   4   5
ENDBRANCH   3   4
ENDBRANCH   2   3
TORSDOF 11
ENDMDL
MODEL       32
REMARK 921   NORMALIZED FREE ENERGY PREDICTED BY IDOCK:   -5.74 KCAL/MOL
REMARK 922        TOTAL FREE ENERGY PREDICTED BY IDOCK:  -10.56 KCAL/MOL
REMARK 923 INTER-LIGAND FREE ENERGY PREDICTED BY IDOCK:   -9.12 KCAL/MOL
REMARK 924 INTRA-LIGAND FREE ENERGY PREDICTED BY IDOCK:   -1.44 KCAL/MOL
REMARK 927      BINDING AFFINITY PREDICTED BY RF-SCORE:    0.00 PKD
ROOT
HETATM    1  C   UNL     1      -9.646  20.295  67.134  1.00  0.00    -0.443 C  
HETATM    2  O   UNL     1      -8.300  19.839  67.211  1.00  0.00    -0.289 OA 
ENDROOT
BRANCH   2   3
HETATM    3  C   UNL     1      -7.785  19.543  65.916  1.00  0.00    -0.275 C  
BRANCH   3   4
HETATM    4  C   UNL     1      -7.247  18.115  65.878  1.00  0.00    -0.240 C  
BRANCH   4   5
HETATM    5  O   UNL     1      -7.590  17.511  67.121  1.00  0.00    -0.189 OA 
BRANCH   5   6
HETATM    6  C   UNL     1      -8.478  16.481  67.170  1.00  0.00    -0.181 A  
HETATM    7  C   UNL     1      -9.429  16.252  66.167  1.00  0.00    -0.373 A  
HETATM    8  C   UNL     1     -10.345  15.213  66.234  1.00  0.00    -0.294 A  
HETATM    9  C   UNL     1     -10.306  14.328  67.320  1.00  0.00    -0.260 A  
HETATM   10  C   UNL     1      -9.323  14.539  68.326  1.00  0.00    -0.203 A  
HETATM   11  C   UNL     1     -11.269  13.293  67.290  1.00  0.00    -0.292 A  
HETATM   12  N   UNL     1     -12.174  13.207  66.296  1.00  0.00    -0.393 NA 
HETATM   13  C   UNL     1      -8.427  15.615  68.270  1.00  0.00    -0.156 A  
HETATM   14  N   UNL     1     -11.226  15.112  65.240  1.00  0.00    -0.361 NA 
HETATM   15  C   UNL     1     -12.108  14.116  65.322  1.00  0.00    -0.405 A  
BRANCH  11  16
HETATM   16  N   UNL     1     -11.244  12.285  68.288  1.00  0.00    -0.245 NA 
HETATM   17  H   UNL     1     -10.617  11.504  68.098  1.00  0.00     0.000 HD 
BRANCH  16  18
HETATM   18  C   UNL     1     -11.958  12.197  69.508  1.00  0.00    -0.275 A  
HETATM   19  C   UNL     1     -12.398  13.378  70.132  1.00  0.00    -0.322 A  
HETATM   20  C   UNL     1     -13.162  12.137  72.065  1.00  0.00    -0.496 A  
HETATM   21  C   UNL     1     -12.992  13.350  71.401  1.00  0.00    -0.412 A  
HETATM   22  C   UNL     1     -12.131  10.993  70.206  1.00  0.00    -0.448 A  
HETATM   23  C   UNL     1     -12.738  10.957  71.464  1.00  0.00    -0.533 A  
BRANCH  21  24
HETATM   24  C   UNL     1     -13.397  14.562  72.047  1.00  0.00    -0.461 C  
HETATM   25  C   UNL     1     -13.788  15.556  72.596  1.00  0.00    -0.654 C  
ENDBRANCH  21  24
ENDBRANCH  16  18
ENDBRANCH  11  16
BRANCH  13  26
HETATM   26  O   UNL     1      -7.588  15.666  69.361  1.00  0.00    -0.209 OA 
BRANCH  26  27
HETATM   27  C   UNL     1      -6.672  14.587  69.543  1.00  0.00    -0.151 C  
BRANCH  27  28
HETATM   28  C   UNL     1      -5.386  14.822  68.757  1.00  0.00    -0.089 C  
BRANCH  28  29
HETATM   29  O   UNL     1      -5.445  14.020  67.574  1.00  0.00    -0.340 OA 
HETATM   30  C   UNL     1      -6.044  12.756  67.813  1.00  0.00    -0.134 C  
ENDBRANCH  28  29
ENDBRANCH  27  28
ENDBRANCH  26  27
ENDBRANCH  13  26
ENDBRANCH   5   6
ENDBRANCH   4   5
ENDBRANCH   3   4
ENDBRANCH   2   3
TORSDOF 11
ENDMDL
MODEL       33
REMARK 921   NORMALIZED FREE ENERGY PREDICTED BY IDOCK:   -5.73 KCAL/MOL
REMARK 922        TOTAL FREE ENERGY PREDICTED BY IDOCK:  -10.56 KCAL/MOL
REMARK 923 INTER-LIGAND FREE ENERGY PREDICTED BY IDOCK:   -9.21 KCAL/MOL
REMARK 924 INTRA-LIGAND FREE ENERGY PREDICTED BY IDOCK:   -1.34 KCAL/MOL
REMARK 927      BINDING AFFINITY PREDICTED BY RF-SCORE:    0.00 PKD
ROOT
HETATM    1  C   UNL     1     -12.510  15.915  74.230  1.00  0.00    -0.633 C  
HETATM    2  O   UNL     1     -13.654  16.357  73.509  1.00  0.00    -0.596 OA 
ENDROOT
BRANCH   2   3
HETATM    3  C   UNL     1     -14.019  15.418  72.502  1.00  0.00    -0.543 C  
BRANCH   3   4
HETATM    4  C   UNL     1     -13.310  14.087  72.742  1.00  0.00    -0.500 C  
BRANCH   4   5
HETATM    5  O   UNL     1     -13.705  13.214  71.689  1.00  0.00    -0.236 OA 
BRANCH   5   6
HETATM    6  C   UNL     1     -12.780  12.475  71.018  1.00  0.00    -0.225 A  
HETATM    7  C   UNL     1     -12.649  11.091  71.184  1.00  0.00    -0.522 A  
HETATM    8  C   UNL     1     -11.691  10.348  70.511  1.00  0.00    -0.344 A  
HETATM    9  C   UNL     1     -10.838  10.986  69.600  1.00  0.00    -0.241 A  
HETATM   10  C   UNL     1     -10.986  12.386  69.406  1.00  0.00    -0.072 A  
HETATM   11  C   UNL     1      -9.907  10.142  68.953  1.00  0.00    -0.189 A  
HETATM   12  N   UNL     1      -9.837   8.827  69.237  1.00  0.00    -0.176 NA 
HETATM   13  C   UNL     1     -11.932  13.136  70.118  1.00  0.00    -0.310 A  
HETATM   14  N   UNL     1     -11.636   9.043  70.774  1.00  0.00    -0.278 NA 
HETATM   15  C   UNL     1     -10.702   8.343  70.129  1.00  0.00    -0.236 A  
BRANCH  11  16
HETATM   16  N   UNL     1      -9.070  10.671  67.935  1.00  0.00    -0.143 NA 
HETATM   17  H   UNL     1      -8.260  11.191  68.270  1.00  0.00     0.000 HD 
BRANCH  16  18
HETATM   18  C   UNL     1      -9.189  10.587  66.527  1.00  0.00    -0.161 A  
HETATM   19  C   UNL     1     -10.166  11.360  65.874  1.00  0.00    -0.292 A  
HETATM   20  C   UNL     1      -9.669  10.295  63.756  1.00  0.00    -0.298 A  
HETATM   21  C   UNL     1     -10.407  11.214  64.500  1.00  0.00    -0.400 A  
HETATM   22  C   UNL     1      -8.471   9.664  65.755  1.00  0.00    -0.142 A  
HETATM   23  C   UNL     1      -8.695   9.525  64.382  1.00  0.00    -0.235 A  
BRANCH  21  24
HETATM   24  C   UNL     1     -11.433  11.973  63.852  1.00  0.00    -0.518 C  
HETATM   25  C   UNL     1     -12.273  12.593  63.259  1.00  0.00    -0.512 C  
ENDBRANCH  21  24
ENDBRANCH  16  18
ENDBRANCH  11  16
BRANCH  13  26
HETATM   26  O   UNL     1     -11.883  14.479  69.817  1.00  0.00    -0.277 OA 
BRANCH  26  27
HETATM   27  C   UNL     1     -10.756  15.222  70.283  1.00  0.00    -0.258 C  
BRANCH  27  28
HETATM   28  C   UNL     1     -10.127  16.029  69.153  1.00  0.00    -0.242 C  
BRANCH  28  29
HETATM   29  O   UNL     1     -11.043  16.029  68.053  1.00  0.00    -0.341 OA 
HETATM   30  C   UNL     1     -10.398  15.755  66.820  1.00  0.00    -0.293 C  
ENDBRANCH  28  29
ENDBRANCH  27  28
ENDBRANCH  26  27
ENDBRANCH  13  26
ENDBRANCH   5   6
ENDBRANCH   4   5
ENDBRANCH   3   4
ENDBRANCH   2   3
TORSDOF 11
ENDMDL
MODEL       34
REMARK 921   NORMALIZED FREE ENERGY PREDICTED BY IDOCK:   -5.72 KCAL/MOL
REMARK 922        TOTAL FREE ENERGY PREDICTED BY IDOCK:  -10.53 KCAL/MOL
REMARK 923 INTER-LIGAND FREE ENERGY PREDICTED BY IDOCK:   -9.37 KCAL/MOL
REMARK 924 INTRA-LIGAND FREE ENERGY PREDICTED BY IDOCK:   -1.15 KCAL/MOL
REMARK 927      BINDING AFFINITY PREDICTED BY RF-SCORE:    0.00 PKD
ROOT
HETATM    1  C   UNL     1      -8.001   5.096  65.088  1.00  0.00    -0.106 C  
HETATM    2  O   UNL     1      -8.183   6.500  65.227  1.00  0.00    -0.132 OA 
ENDROOT
BRANCH   2   3
HETATM    3  C   UNL     1      -7.813   7.185  64.034  1.00  0.00    -0.113 C  
BRANCH   3   4
HETATM    4  C   UNL     1      -8.092   8.679  64.176  1.00  0.00    -0.162 C  
BRANCH   4   5
HETATM    5  O   UNL     1      -8.972   8.831  65.284  1.00  0.00    -0.194 OA 
BRANCH   5   6
HETATM    6  C   UNL     1      -9.724   9.957  65.423  1.00  0.00    -0.306 A  
HETATM    7  C   UNL     1     -10.321  10.609  64.337  1.00  0.00    -0.347 A  
HETATM    8  C   UNL     1     -11.068  11.768  64.484  1.00  0.00    -0.315 A  
HETATM    9  C   UNL     1     -11.275  12.297  65.765  1.00  0.00    -0.378 A  
HETATM   10  C   UNL     1     -10.696  11.622  66.874  1.00  0.00    -0.295 A  
HETATM   11  C   UNL     1     -12.063  13.470  65.813  1.00  0.00    -0.433 A  
HETATM   12  N   UNL     1     -12.538  14.041  64.690  1.00  0.00    -0.659 NA 
HETATM   13  C   UNL     1      -9.910  10.474  66.713  1.00  0.00    -0.193 A  
HETATM   14  N   UNL     1     -11.559  12.322  63.375  1.00  0.00    -0.458 NA 
HETATM   15  C   UNL     1     -12.266  13.441  63.530  1.00  0.00    -0.400 A  
BRANCH  11  16
HETATM   16  N   UNL     1     -12.419  14.024  67.070  1.00  0.00    -0.518 NA 
HETATM   17  H   UNL     1     -13.319  13.718  67.439  1.00  0.00     0.000 HD 
BRANCH  16  18
HETATM   18  C   UNL     1     -11.714  14.937  67.893  1.00  0.00    -0.321 A  
HETATM   19  C   UNL     1     -12.018  15.000  69.264  1.00  0.00    -0.322 A  
HETATM   20  C   UNL     1     -10.544  16.898  69.558  1.00  0.00    -0.239 A  
HETATM   21  C   UNL     1     -11.441  15.974  70.090  1.00  0.00    -0.350 A  
HETATM   22  C   UNL     1     -10.818  15.887  67.384  1.00  0.00    -0.291 A  
HETATM   23  C   UNL     1     -10.226  16.850  68.205  1.00  0.00    -0.318 A  
BRANCH  21  24
HETATM   24  C   UNL     1     -11.789  16.058  71.477  1.00  0.00    -0.554 C  
HETATM   25  C   UNL     1     -12.031  16.107  72.652  1.00  0.00    -0.653 C  
ENDBRANCH  21  24
ENDBRANCH  16  18
ENDBRANCH  11  16
BRANCH  13  26
HETATM   26  O   UNL     1      -9.407  10.001  67.905  1.00  0.00    -0.140 OA 
BRANCH  26  27
HETATM   27  C   UNL     1      -9.989  10.494  69.111  1.00  0.00    -0.220 C  
BRANCH  27  28
HETATM   28  C   UNL     1     -10.758   9.394  69.837  1.00  0.00    -0.234 C  
BRANCH  28  29
HETATM   29  O   UNL     1     -11.176   9.915  71.102  1.00  0.00    -0.354 OA 
HETATM   30  C   UNL     1     -11.889   8.957  71.866  1.00  0.00    -0.370 C  
ENDBRANCH  28  29
ENDBRANCH  27  28
ENDBRANCH  26  27
ENDBRANCH  13  26
ENDBRANCH   5   6
ENDBRANCH   4   5
ENDBRANCH   3   4
ENDBRANCH   2   3
TORSDOF 11
ENDMDL
MODEL       35
REMARK 921   NORMALIZED FREE ENERGY PREDICTED BY IDOCK:   -5.70 KCAL/MOL
REMARK 922        TOTAL FREE ENERGY PREDICTED BY IDOCK:  -10.51 KCAL/MOL
REMARK 923 INTER-LIGAND FREE ENERGY PREDICTED BY IDOCK:   -9.59 KCAL/MOL
REMARK 924 INTRA-LIGAND FREE ENERGY PREDICTED BY IDOCK:   -0.92 KCAL/MOL
REMARK 927      BINDING AFFINITY PREDICTED BY RF-SCORE:    0.00 PKD
ROOT
HETATM    1  C   UNL     1     -12.644   9.176  71.477  1.00  0.00    -0.343 C  
HETATM    2  O   UNL     1     -11.494   9.973  71.219  1.00  0.00    -0.364 OA 
ENDROOT
BRANCH   2   3
HETATM    3  C   UNL     1     -11.187   9.993  69.828  1.00  0.00    -0.258 C  
BRANCH   3   4
HETATM    4  C   UNL     1     -12.116  10.959  69.097  1.00  0.00    -0.221 C  
BRANCH   4   5
HETATM    5  O   UNL     1     -11.670  11.019  67.747  1.00  0.00    -0.573 OA 
BRANCH   5   6
HETATM    6  C   UNL     1     -11.386  12.215  67.163  1.00  0.00    -0.331 A  
HETATM    7  C   UNL     1     -12.193  12.785  66.171  1.00  0.00    -0.340 A  
HETATM    8  C   UNL     1     -11.886  13.994  65.566  1.00  0.00    -0.365 A  
HETATM    9  C   UNL     1     -10.748  14.702  65.977  1.00  0.00    -0.313 A  
HETATM   10  C   UNL     1      -9.941  14.141  67.004  1.00  0.00    -0.260 A  
HETATM   11  C   UNL     1     -10.529  15.930  65.312  1.00  0.00    -0.377 A  
HETATM   12  N   UNL     1     -11.347  16.351  64.329  1.00  0.00    -0.942 NA 
HETATM   13  C   UNL     1     -10.237  12.900  67.584  1.00  0.00    -0.220 A  
HETATM   14  N   UNL     1     -12.708  14.424  64.609  1.00  0.00    -0.643 NA 
HETATM   15  C   UNL     1     -12.394  15.582  64.028  1.00  0.00     0.171 A  
BRANCH  11  16
HETATM   16  N   UNL     1      -9.464  16.771  65.729  1.00  0.00    -0.527 NA 
HETATM   17  H   UNL     1      -8.530  16.389  65.584  1.00  0.00     0.000 HD 
BRANCH  16  18
HETATM   18  C   UNL     1      -9.500  18.061  66.313  1.00  0.00    -0.220 A  
HETATM   19  C   UNL     1      -8.313  18.809  66.399  1.00  0.00    -0.294 A  
HETATM   20  C   UNL     1      -9.426  20.530  67.689  1.00  0.00    -0.456 A  
HETATM   21  C   UNL     1      -8.274  20.032  67.084  1.00  0.00    -0.365 A  
HETATM   22  C   UNL     1     -10.640  18.581  66.942  1.00  0.00    -0.406 A  
HETATM   23  C   UNL     1     -10.612  19.807  67.612  1.00  0.00    -0.530 A  
BRANCH  21  24
HETATM   24  C   UNL     1      -7.050  20.766  67.203  1.00  0.00    -0.404 C  
HETATM   25  C   UNL     1      -6.012  21.367  67.249  1.00  0.00    -0.421 C  
ENDBRANCH  21  24
ENDBRANCH  16  18
ENDBRANCH  11  16
BRANCH  13  26
HETATM   26  O   UNL     1      -9.309  12.516  68.525  1.00  0.00    -0.177 OA 
BRANCH  26  27
HETATM   27  C   UNL     1      -8.132  11.854  68.063  1.00  0.00    -0.151 C  
BRANCH  27  28
HETATM   28  C   UNL     1      -6.879  12.634  68.445  1.00  0.00    -0.090 C  
BRANCH  28  29
HETATM   29  O   UNL     1      -5.747  11.799  68.182  1.00  0.00    -0.046 OA 
HETATM   30  C   UNL     1      -5.521  11.625  66.793  1.00  0.00    -0.125 C  
ENDBRANCH  28  29
ENDBRANCH  27  28
ENDBRANCH  26  27
ENDBRANCH  13  26
ENDBRANCH   5   6
ENDBRANCH   4   5
ENDBRANCH   3   4
ENDBRANCH   2   3
TORSDOF 11
ENDMDL
MODEL       36
REMARK 921   NORMALIZED FREE ENERGY PREDICTED BY IDOCK:   -5.69 KCAL/MOL
REMARK 922        TOTAL FREE ENERGY PREDICTED BY IDOCK:  -10.48 KCAL/MOL
REMARK 923 INTER-LIGAND FREE ENERGY PREDICTED BY IDOCK:   -9.29 KCAL/MOL
REMARK 924 INTRA-LIGAND FREE ENERGY PREDICTED BY IDOCK:   -1.19 KCAL/MOL
REMARK 927      BINDING AFFINITY PREDICTED BY RF-SCORE:    0.00 PKD
ROOT
HETATM    1  C   UNL     1     -10.408  17.272  66.298  1.00  0.00    -0.322 C  
HETATM    2  O   UNL     1     -10.639  16.826  64.967  1.00  0.00    -0.695 OA 
ENDROOT
BRANCH   2   3
HETATM    3  C   UNL     1     -10.902  15.426  64.934  1.00  0.00    -0.425 C  
BRANCH   3   4
HETATM    4  C   UNL     1      -9.942  14.688  65.863  1.00  0.00    -0.328 C  
BRANCH   4   5
HETATM    5  O   UNL     1     -10.334  13.320  65.859  1.00  0.00    -0.281 OA 
BRANCH   5   6
HETATM    6  C   UNL     1     -10.845  12.741  66.980  1.00  0.00    -0.257 A  
HETATM    7  C   UNL     1     -11.315  13.483  68.069  1.00  0.00    -0.318 A  
HETATM    8  C   UNL     1     -11.815  12.886  69.217  1.00  0.00    -0.309 A  
HETATM    9  C   UNL     1     -11.895  11.489  69.288  1.00  0.00    -0.414 A  
HETATM   10  C   UNL     1     -11.447  10.731  68.172  1.00  0.00    -0.346 A  
HETATM   11  C   UNL     1     -12.434  10.976  70.490  1.00  0.00    -0.344 A  
HETATM   12  N   UNL     1     -12.801  11.791  71.497  1.00  0.00    -0.389 NA 
HETATM   13  C   UNL     1     -10.906  11.341  67.032  1.00  0.00    -0.280 A  
HETATM   14  N   UNL     1     -12.201  13.692  70.205  1.00  0.00    -0.349 NA 
HETATM   15  C   UNL     1     -12.669  13.105  71.306  1.00  0.00    -0.306 A  
BRANCH  11  16
HETATM   16  N   UNL     1     -12.655   9.580  70.619  1.00  0.00    -0.507 NA 
HETATM   17  H   UNL     1     -13.544   9.247  70.249  1.00  0.00     0.000 HD 
BRANCH  16  18
HETATM   18  C   UNL     1     -11.828   8.578  71.183  1.00  0.00    -0.284 A  
HETATM   19  C   UNL     1     -11.305   7.572  70.351  1.00  0.00    -0.253 A  
HETATM   20  C   UNL     1     -10.382   6.399  72.259  1.00  0.00    -0.215 A  
HETATM   21  C   UNL     1     -10.591   6.489  70.884  1.00  0.00    -0.275 A  
HETATM   22  C   UNL     1     -11.612   8.454  72.563  1.00  0.00    -0.426 A  
HETATM   23  C   UNL     1     -10.887   7.387  73.098  1.00  0.00    -0.435 A  
BRANCH  21  24
HETATM   24  C   UNL     1     -10.100   5.447  70.034  1.00  0.00    -0.324 C  
HETATM   25  C   UNL     1      -9.706   4.535  69.359  1.00  0.00    -0.272 C  
ENDBRANCH  21  24
ENDBRANCH  16  18
ENDBRANCH  11  16
BRANCH  13  26
HETATM   26  O   UNL     1     -10.491  10.430  66.086  1.00  0.00    -0.225 OA 
BRANCH  26  27
HETATM   27  C   UNL     1      -9.712   9.321  66.533  1.00  0.00    -0.240 C  
BRANCH  27  28
HETATM   28  C   UNL     1      -9.029   8.624  65.360  1.00  0.00    -0.130 C  
BRANCH  28  29
HETATM   29  O   UNL     1      -8.857   9.589  64.318  1.00  0.00    -0.207 OA 
HETATM   30  C   UNL     1      -7.523  10.063  64.243  1.00  0.00    -0.137 C  
ENDBRANCH  28  29
ENDBRANCH  27  28
ENDBRANCH  26  27
ENDBRANCH  13  26
ENDBRANCH   5   6
ENDBRANCH   4   5
ENDBRANCH   3   4
ENDBRANCH   2   3
TORSDOF 11
ENDMDL
MODEL       37
REMARK 921   NORMALIZED FREE ENERGY PREDICTED BY IDOCK:   -5.69 KCAL/MOL
REMARK 922        TOTAL FREE ENERGY PREDICTED BY IDOCK:  -10.48 KCAL/MOL
REMARK 923 INTER-LIGAND FREE ENERGY PREDICTED BY IDOCK:   -9.30 KCAL/MOL
REMARK 924 INTRA-LIGAND FREE ENERGY PREDICTED BY IDOCK:   -1.18 KCAL/MOL
REMARK 927      BINDING AFFINITY PREDICTED BY RF-SCORE:    0.00 PKD
ROOT
HETATM    1  C   UNL     1      -9.117   7.740  73.397  1.00  0.00    -0.276 C  
HETATM    2  O   UNL     1     -10.512   7.465  73.462  1.00  0.00    -0.355 OA 
ENDROOT
BRANCH   2   3
HETATM    3  C   UNL     1     -10.843   6.313  72.692  1.00  0.00    -0.242 C  
BRANCH   3   4
HETATM    4  C   UNL     1     -12.076   6.590  71.835  1.00  0.00    -0.339 C  
BRANCH   4   5
HETATM    5  O   UNL     1     -11.614   7.177  70.624  1.00  0.00    -0.301 OA 
BRANCH   5   6
HETATM    6  C   UNL     1     -11.615   8.529  70.464  1.00  0.00    -0.132 A  
HETATM    7  C   UNL     1     -12.401   9.384  71.246  1.00  0.00    -0.422 A  
HETATM    8  C   UNL     1     -12.411  10.759  71.064  1.00  0.00    -0.420 A  
HETATM    9  C   UNL     1     -11.581  11.332  70.091  1.00  0.00    -0.393 A  
HETATM   10  C   UNL     1     -10.759  10.470  69.315  1.00  0.00    -0.269 A  
HETATM   11  C   UNL     1     -11.651  12.741  69.993  1.00  0.00    -0.120 A  
HETATM   12  N   UNL     1     -12.491  13.456  70.764  1.00  0.00    -0.358 NA 
HETATM   13  C   UNL     1     -10.783   9.079  69.479  1.00  0.00    -0.206 A  
HETATM   14  N   UNL     1     -13.225  11.471  71.843  1.00  0.00    -0.456 NA 
HETATM   15  C   UNL     1     -13.234  12.790  71.649  1.00  0.00    -0.317 A  
BRANCH  11  16
HETATM   16  N   UNL     1     -10.773  13.425  69.112  1.00  0.00    -0.428 NA 
HETATM   17  H   UNL     1      -9.826  13.558  69.463  1.00  0.00     0.000 HD 
BRANCH  16  18
HETATM   18  C   UNL     1     -11.012  13.952  67.819  1.00  0.00    -0.256 A  
HETATM   19  C   UNL     1     -11.566  13.118  66.831  1.00  0.00    -0.417 A  
HETATM   20  C   UNL     1     -11.287  14.838  65.148  1.00  0.00    -0.379 A  
HETATM   21  C   UNL     1     -11.700  13.556  65.505  1.00  0.00    -0.361 A  
HETATM   22  C   UNL     1     -10.595  15.232  67.428  1.00  0.00    -0.282 A  
HETATM   23  C   UNL     1     -10.742  15.679  66.112  1.00  0.00    -0.305 A  
BRANCH  21  24
HETATM   24  C   UNL     1     -12.224  12.685  64.497  1.00  0.00    -0.514 C  
HETATM   25  C   UNL     1     -12.647  11.992  63.612  1.00  0.00    -0.605 C  
ENDBRANCH  21  24
ENDBRANCH  16  18
ENDBRANCH  11  16
BRANCH  13  26
HETATM   26  O   UNL     1      -9.948   8.424  68.601  1.00  0.00    -0.173 OA 
BRANCH  26  27
HETATM   27  C   UNL     1     -10.535   7.845  67.436  1.00  0.00    -0.290 C  
BRANCH  27  28
HETATM   28  C   UNL     1      -9.843   6.537  67.067  1.00  0.00    -0.157 C  
BRANCH  28  29
HETATM   29  O   UNL     1     -10.859   5.574  66.771  1.00  0.00    -0.281 OA 
HETATM   30  C   UNL     1     -10.358   4.483  66.015  1.00  0.00    -0.243 C  
ENDBRANCH  28  29
ENDBRANCH  27  28
ENDBRANCH  26  27
ENDBRANCH  13  26
ENDBRANCH   5   6
ENDBRANCH   4   5
ENDBRANCH   3   4
ENDBRANCH   2   3
TORSDOF 11
ENDMDL
MODEL       38
REMARK 921   NORMALIZED FREE ENERGY PREDICTED BY IDOCK:   -5.66 KCAL/MOL
REMARK 922        TOTAL FREE ENERGY PREDICTED BY IDOCK:  -10.44 KCAL/MOL
REMARK 923 INTER-LIGAND FREE ENERGY PREDICTED BY IDOCK:   -9.73 KCAL/MOL
REMARK 924 INTRA-LIGAND FREE ENERGY PREDICTED BY IDOCK:   -0.72 KCAL/MOL
REMARK 927      BINDING AFFINITY PREDICTED BY RF-SCORE:    0.00 PKD
ROOT
HETATM    1  C   UNL     1      -7.926  20.108  66.839  1.00  0.00    -0.317 C  
HETATM    2  O   UNL     1      -8.625  19.275  65.921  1.00  0.00    -0.445 OA 
ENDROOT
BRANCH   2   3
HETATM    3  C   UNL     1     -10.034  19.386  66.098  1.00  0.00    -0.425 C  
BRANCH   3   4
HETATM    4  C   UNL     1     -10.626  18.030  66.473  1.00  0.00    -0.253 C  
BRANCH   4   5
HETATM    5  O   UNL     1     -10.098  17.081  65.554  1.00  0.00    -0.577 OA 
BRANCH   5   6
HETATM    6  C   UNL     1     -10.117  15.751  65.844  1.00  0.00    -0.356 A  
HETATM    7  C   UNL     1     -10.365  14.768  64.878  1.00  0.00    -0.365 A  
HETATM    8  C   UNL     1     -10.403  13.416  65.184  1.00  0.00    -0.336 A  
HETATM    9  C   UNL     1     -10.148  13.000  66.497  1.00  0.00    -0.270 A  
HETATM   10  C   UNL     1      -9.866  13.991  67.476  1.00  0.00    -0.236 A  
HETATM   11  C   UNL     1     -10.194  11.602  66.706  1.00  0.00    -0.217 A  
HETATM   12  N   UNL     1     -10.501  10.754  65.707  1.00  0.00    -0.222 NA 
HETATM   13  C   UNL     1      -9.868  15.358  67.166  1.00  0.00    -0.221 A  
HETATM   14  N   UNL     1     -10.683  12.573  64.190  1.00  0.00    -0.360 NA 
HETATM   15  C   UNL     1     -10.728  11.278  64.502  1.00  0.00    -0.323 A  
BRANCH  11  16
HETATM   16  N   UNL     1      -9.846  11.072  67.977  1.00  0.00    -0.167 NA 
HETATM   17  H   UNL     1      -8.864  10.826  68.088  1.00  0.00     0.000 HD 
BRANCH  16  18
HETATM   18  C   UNL     1     -10.657  10.833  69.114  1.00  0.00    -0.222 A  
HETATM   19  C   UNL     1     -10.255   9.866  70.051  1.00  0.00    -0.319 A  
HETATM   20  C   UNL     1     -12.331  10.110  71.274  1.00  0.00    -0.501 A  
HETATM   21  C   UNL     1     -11.086   9.504  71.121  1.00  0.00    -0.450 A  
HETATM   22  C   UNL     1     -11.919  11.417  69.286  1.00  0.00    -0.400 A  
HETATM   23  C   UNL     1     -12.745  11.073  70.360  1.00  0.00    -0.297 A  
BRANCH  21  24
HETATM   24  C   UNL     1     -10.686   8.486  72.046  1.00  0.00    -0.410 C  
HETATM   25  C   UNL     1     -10.391   7.599  72.800  1.00  0.00    -0.351 C  
ENDBRANCH  21  24
ENDBRANCH  16  18
ENDBRANCH  11  16
BRANCH  13  26
HETATM   26  O   UNL     1      -9.617  16.153  68.262  1.00  0.00    -0.210 OA 
BRANCH  26  27
HETATM   27  C   UNL     1      -9.868  15.599  69.554  1.00  0.00    -0.289 C  
BRANCH  27  28
HETATM   28  C   UNL     1     -11.067  16.272  70.214  1.00  0.00    -0.332 C  
BRANCH  28  29
HETATM   29  O   UNL     1     -12.222  15.472  69.943  1.00  0.00    -0.355 OA 
HETATM   30  C   UNL     1     -13.106  15.416  71.051  1.00  0.00    -0.501 C  
ENDBRANCH  28  29
ENDBRANCH  27  28
ENDBRANCH  26  27
ENDBRANCH  13  26
ENDBRANCH   5   6
ENDBRANCH   4   5
ENDBRANCH   3   4
ENDBRANCH   2   3
TORSDOF 11
ENDMDL
MODEL       39
REMARK 921   NORMALIZED FREE ENERGY PREDICTED BY IDOCK:   -5.65 KCAL/MOL
REMARK 922        TOTAL FREE ENERGY PREDICTED BY IDOCK:  -10.41 KCAL/MOL
REMARK 923 INTER-LIGAND FREE ENERGY PREDICTED BY IDOCK:   -9.21 KCAL/MOL
REMARK 924 INTRA-LIGAND FREE ENERGY PREDICTED BY IDOCK:   -1.20 KCAL/MOL
REMARK 927      BINDING AFFINITY PREDICTED BY RF-SCORE:    0.00 PKD
ROOT
HETATM    1  C   UNL     1     -10.634   5.298  70.057  1.00  0.00    -0.230 C  
HETATM    2  O   UNL     1     -11.760   6.162  70.150  1.00  0.00    -0.330 OA 
ENDROOT
BRANCH   2   3
HETATM    3  C   UNL     1     -12.121   6.388  71.510  1.00  0.00    -0.231 C  
BRANCH   3   4
HETATM    4  C   UNL     1     -12.917   7.685  71.635  1.00  0.00    -0.350 C  
BRANCH   4   5
HETATM    5  O   UNL     1     -11.991   8.705  71.989  1.00  0.00    -0.323 OA 
BRANCH   5   6
HETATM    6  C   UNL     1     -11.901   9.847  71.252  1.00  0.00    -0.395 A  
HETATM    7  C   UNL     1     -12.449  11.065  71.673  1.00  0.00    -0.310 A  
HETATM    8  C   UNL     1     -12.372  12.219  70.908  1.00  0.00    -0.267 A  
HETATM    9  C   UNL     1     -11.691  12.190  69.683  1.00  0.00    -0.396 A  
HETATM   10  C   UNL     1     -11.108  10.962  69.265  1.00  0.00    -0.305 A  
HETATM   11  C   UNL     1     -11.653  13.418  68.984  1.00  0.00    -0.312 A  
HETATM   12  N   UNL     1     -12.268  14.516  69.464  1.00  0.00    -0.295 NA 
HETATM   13  C   UNL     1     -11.224   9.791  70.026  1.00  0.00    -0.251 A  
HETATM   14  N   UNL     1     -12.960  13.312  71.392  1.00  0.00    -0.343 NA 
HETATM   15  C   UNL     1     -12.888  14.411  70.641  1.00  0.00    -0.328 A  
BRANCH  11  16
HETATM   16  N   UNL     1     -10.899  13.520  67.786  1.00  0.00    -0.249 NA 
HETATM   17  H   UNL     1      -9.923  13.786  67.911  1.00  0.00     0.000 HD 
BRANCH  16  18
HETATM   18  C   UNL     1     -11.295  13.308  66.443  1.00  0.00    -0.312 A  
HETATM   19  C   UNL     1     -10.511  12.481  65.619  1.00  0.00    -0.299 A  
HETATM   20  C   UNL     1     -11.864  13.032  63.688  1.00  0.00    -0.580 A  
HETATM   21  C   UNL     1     -10.790  12.347  64.252  1.00  0.00    -0.395 A  
HETATM   22  C   UNL     1     -12.361  13.995  65.845  1.00  0.00    -0.515 A  
HETATM   23  C   UNL     1     -12.655  13.851  64.486  1.00  0.00    -0.246 A  
BRANCH  21  24
HETATM   24  C   UNL     1      -9.960  11.536  63.412  1.00  0.00    -0.445 C  
HETATM   25  C   UNL     1      -9.228  10.852  62.750  1.00  0.00    -0.360 C  
ENDBRANCH  21  24
ENDBRANCH  16  18
ENDBRANCH  11  16
BRANCH  13  26
HETATM   26  O   UNL     1     -10.629   8.704  69.425  1.00  0.00    -0.220 OA 
BRANCH  26  27
HETATM   27  C   UNL     1      -9.821   8.944  68.273  1.00  0.00    -0.167 C  
BRANCH  27  28
HETATM   28  C   UNL     1     -10.438   8.312  67.030  1.00  0.00    -0.314 C  
BRANCH  28  29
HETATM   29  O   UNL     1      -9.895   8.978  65.886  1.00  0.00    -0.276 OA 
HETATM   30  C   UNL     1      -8.547   8.609  65.643  1.00  0.00    -0.168 C  
ENDBRANCH  28  29
ENDBRANCH  27  28
ENDBRANCH  26  27
ENDBRANCH  13  26
ENDBRANCH   5   6
ENDBRANCH   4   5
ENDBRANCH   3   4
ENDBRANCH   2   3
TORSDOF 11
ENDMDL
MODEL       40
REMARK 921   NORMALIZED FREE ENERGY PREDICTED BY IDOCK:   -5.62 KCAL/MOL
REMARK 922        TOTAL FREE ENERGY PREDICTED BY IDOCK:  -10.38 KCAL/MOL
REMARK 923 INTER-LIGAND FREE ENERGY PREDICTED BY IDOCK:   -9.41 KCAL/MOL
REMARK 924 INTRA-LIGAND FREE ENERGY PREDICTED BY IDOCK:   -0.97 KCAL/MOL
REMARK 927      BINDING AFFINITY PREDICTED BY RF-SCORE:    0.00 PKD
ROOT
HETATM    1  C   UNL     1     -10.410   5.597  71.524  1.00  0.00    -0.222 C  
HETATM    2  O   UNL     1     -11.387   6.549  71.117  1.00  0.00    -0.284 OA 
ENDROOT
BRANCH   2   3
HETATM    3  C   UNL     1     -10.784   7.634  70.419  1.00  0.00    -0.236 C  
BRANCH   3   4
HETATM    4  C   UNL     1     -11.202   8.961  71.046  1.00  0.00    -0.281 C  
BRANCH   4   5
HETATM    5  O   UNL     1     -12.076   9.598  70.121  1.00  0.00    -0.071 OA 
BRANCH   5   6
HETATM    6  C   UNL     1     -12.165  10.956  70.072  1.00  0.00    -0.347 A  
HETATM    7  C   UNL     1     -12.453  11.737  71.197  1.00  0.00    -0.390 A  
HETATM    8  C   UNL     1     -12.562  13.118  71.136  1.00  0.00    -0.314 A  
HETATM    9  C   UNL     1     -12.341  13.774  69.918  1.00  0.00    -0.334 A  
HETATM   10  C   UNL     1     -12.019  12.987  68.778  1.00  0.00    -0.302 A  
HETATM   11  C   UNL     1     -12.460  15.182  69.960  1.00  0.00    -0.277 A  
HETATM   12  N   UNL     1     -12.800  15.823  71.095  1.00  0.00    -0.478 NA 
HETATM   13  C   UNL     1     -11.949  11.589  68.840  1.00  0.00    -0.299 A  
HETATM   14  N   UNL     1     -12.876  13.756  72.264  1.00  0.00    -0.290 NA 
HETATM   15  C   UNL     1     -12.989  15.082  72.188  1.00  0.00    -0.342 A  
BRANCH  11  16
HETATM   16  N   UNL     1     -12.152  15.946  68.804  1.00  0.00    -0.486 NA 
HETATM   17  H   UNL     1     -12.943  16.435  68.386  1.00  0.00     0.000 HD 
BRANCH  16  18
HETATM   18  C   UNL     1     -10.913  16.134  68.143  1.00  0.00    -0.341 A  
HETATM   19  C   UNL     1     -10.013  17.097  68.634  1.00  0.00    -0.313 A  
HETATM   20  C   UNL     1      -8.537  16.757  66.745  1.00  0.00    -0.264 A  
HETATM   21  C   UNL     1      -8.836  17.408  67.939  1.00  0.00    -0.237 A  
HETATM   22  C   UNL     1     -10.592  15.504  66.933  1.00  0.00    -0.307 A  
HETATM   23  C   UNL     1      -9.411  15.798  66.245  1.00  0.00    -0.349 A  
BRANCH  21  24
HETATM   24  C   UNL     1      -7.946  18.421  68.424  1.00  0.00    -0.325 C  
HETATM   25  C   UNL     1      -7.175  19.230  68.862  1.00  0.00    -0.393 C  
ENDBRANCH  21  24
ENDBRANCH  16  18
ENDBRANCH  11  16
BRANCH  13  26
HETATM   26  O   UNL     1     -11.668  11.015  67.620  1.00  0.00    -0.576 OA 
BRANCH  26  27
HETATM   27  C   UNL     1     -11.496  11.886  66.503  1.00  0.00    -0.314 C  
BRANCH  27  28
HETATM   28  C   UNL     1     -10.595  11.252  65.448  1.00  0.00    -0.250 C  
BRANCH  28  29
HETATM   29  O   UNL     1     -11.186  11.492  64.167  1.00  0.00    -0.358 OA 
HETATM   30  C   UNL     1     -12.337  12.316  64.255  1.00  0.00    -0.427 C  
ENDBRANCH  28  29
ENDBRANCH  27  28
ENDBRANCH  26  27
ENDBRANCH  13  26
ENDBRANCH   5   6
ENDBRANCH   4   5
ENDBRANCH   3   4
ENDBRANCH   2   3
TORSDOF 11
ENDMDL
MODEL       41
REMARK 921   NORMALIZED FREE ENERGY PREDICTED BY IDOCK:   -5.59 KCAL/MOL
REMARK 922        TOTAL FREE ENERGY PREDICTED BY IDOCK:  -10.32 KCAL/MOL
REMARK 923 INTER-LIGAND FREE ENERGY PREDICTED BY IDOCK:   -9.22 KCAL/MOL
REMARK 924 INTRA-LIGAND FREE ENERGY PREDICTED BY IDOCK:   -1.09 KCAL/MOL
REMARK 927      BINDING AFFINITY PREDICTED BY RF-SCORE:    0.00 PKD
ROOT
HETATM    1  C   UNL     1      -8.935   8.594  70.981  1.00  0.00    -0.196 C  
HETATM    2  O   UNL     1      -9.204   8.020  69.707  1.00  0.00    -0.149 OA 
ENDROOT
BRANCH   2   3
HETATM    3  C   UNL     1     -10.482   8.423  69.224  1.00  0.00    -0.215 C  
BRANCH   3   4
HETATM    4  C   UNL     1     -11.123   9.414  70.192  1.00  0.00    -0.242 C  
BRANCH   4   5
HETATM    5  O   UNL     1     -12.013  10.220  69.428  1.00  0.00    -0.129 OA 
BRANCH   5   6
HETATM    6  C   UNL     1     -11.917  11.577  69.454  1.00  0.00    -0.325 A  
HETATM    7  C   UNL     1     -12.037  12.323  70.633  1.00  0.00    -0.330 A  
HETATM    8  C   UNL     1     -11.958  13.707  70.650  1.00  0.00    -0.252 A  
HETATM    9  C   UNL     1     -11.711  14.398  69.456  1.00  0.00    -0.362 A  
HETATM   10  C   UNL     1     -11.558  13.643  68.260  1.00  0.00    -0.374 A  
HETATM   11  C   UNL     1     -11.631  15.804  69.577  1.00  0.00    -0.363 A  
HETATM   12  N   UNL     1     -11.822  16.417  70.761  1.00  0.00    -0.095 NA 
HETATM   13  C   UNL     1     -11.678  12.247  68.246  1.00  0.00    -0.336 A  
HETATM   14  N   UNL     1     -12.123  14.314  71.825  1.00  0.00    -0.234 NA 
HETATM   15  C   UNL     1     -12.055  15.645  71.823  1.00  0.00    -0.431 A  
BRANCH  11  16
HETATM   16  N   UNL     1     -11.280  16.586  68.446  1.00  0.00    -0.337 NA 
HETATM   17  H   UNL     1     -11.818  16.392  67.602  1.00  0.00     0.000 HD 
BRANCH  16  18
HETATM   18  C   UNL     1     -10.296  17.596  68.310  1.00  0.00    -0.384 A  
HETATM   19  C   UNL     1      -8.970  17.317  68.685  1.00  0.00    -0.265 A  
HETATM   20  C   UNL     1      -8.324  19.621  68.314  1.00  0.00    -0.354 A  
HETATM   21  C   UNL     1      -7.992  18.321  68.690  1.00  0.00    -0.306 A  
HETATM   22  C   UNL     1     -10.603  18.915  67.948  1.00  0.00    -0.425 A  
HETATM   23  C   UNL     1      -9.628  19.917  67.935  1.00  0.00    -0.490 A  
BRANCH  21  24
HETATM   24  C   UNL     1      -6.654  18.037  69.115  1.00  0.00    -0.253 C  
HETATM   25  C   UNL     1      -5.551  17.796  69.524  1.00  0.00    -0.217 C  
ENDBRANCH  21  24
ENDBRANCH  16  18
ENDBRANCH  11  16
BRANCH  13  26
HETATM   26  O   UNL     1     -11.542  11.713  66.984  1.00  0.00    -0.500 OA 
BRANCH  26  27
HETATM   27  C   UNL     1     -11.248  12.611  65.914  1.00  0.00    -0.314 C  
BRANCH  27  28
HETATM   28  C   UNL     1     -12.349  12.583  64.858  1.00  0.00    -0.470 C  
BRANCH  28  29
HETATM   29  O   UNL     1     -11.740  12.825  63.586  1.00  0.00    -0.446 OA 
HETATM   30  C   UNL     1     -10.604  12.004  63.371  1.00  0.00    -0.428 C  
ENDBRANCH  28  29
ENDBRANCH  27  28
ENDBRANCH  26  27
ENDBRANCH  13  26
ENDBRANCH   5   6
ENDBRANCH   4   5
ENDBRANCH   3   4
ENDBRANCH   2   3
TORSDOF 11
ENDMDL
MODEL       42
REMARK 921   NORMALIZED FREE ENERGY PREDICTED BY IDOCK:   -5.57 KCAL/MOL
REMARK 922        TOTAL FREE ENERGY PREDICTED BY IDOCK:  -10.29 KCAL/MOL
REMARK 923 INTER-LIGAND FREE ENERGY PREDICTED BY IDOCK:   -9.00 KCAL/MOL
REMARK 924 INTRA-LIGAND FREE ENERGY PREDICTED BY IDOCK:   -1.29 KCAL/MOL
REMARK 927      BINDING AFFINITY PREDICTED BY RF-SCORE:    0.00 PKD
ROOT
HETATM    1  C   UNL     1     -10.075   5.135  70.368  1.00  0.00    -0.262 C  
HETATM    2  O   UNL     1     -10.168   6.318  69.582  1.00  0.00    -0.169 OA 
ENDROOT
BRANCH   2   3
HETATM    3  C   UNL     1     -11.091   6.150  68.510  1.00  0.00    -0.262 C  
BRANCH   3   4
HETATM    4  C   UNL     1     -10.568   6.839  67.252  1.00  0.00    -0.320 C  
BRANCH   4   5
HETATM    5  O   UNL     1      -9.870   8.003  67.679  1.00  0.00    -0.151 OA 
BRANCH   5   6
HETATM    6  C   UNL     1     -10.229   9.234  67.222  1.00  0.00    -0.252 A  
HETATM    7  C   UNL     1     -10.029   9.638  65.896  1.00  0.00    -0.351 A  
HETATM    8  C   UNL     1     -10.378  10.900  65.442  1.00  0.00    -0.261 A  
HETATM    9  C   UNL     1     -10.991  11.804  66.321  1.00  0.00    -0.346 A  
HETATM   10  C   UNL     1     -11.223  11.388  67.660  1.00  0.00    -0.346 A  
HETATM   11  C   UNL     1     -11.324  13.059  65.761  1.00  0.00    -0.301 A  
HETATM   12  N   UNL     1     -11.029  13.355  64.481  1.00  0.00    -0.372 NA 
HETATM   13  C   UNL     1     -10.831  10.124  68.121  1.00  0.00    -0.262 A  
HETATM   14  N   UNL     1     -10.109  11.187  64.169  1.00  0.00    -0.302 NA 
HETATM   15  C   UNL     1     -10.440  12.409  63.750  1.00  0.00    -0.443 A  
BRANCH  11  16
HETATM   16  N   UNL     1     -12.042  14.004  66.539  1.00  0.00    -0.446 NA 
HETATM   17  H   UNL     1     -13.057  13.923  66.489  1.00  0.00     0.000 HD 
BRANCH  16  18
HETATM   18  C   UNL     1     -11.565  15.044  67.374  1.00  0.00    -0.291 A  
HETATM   19  C   UNL     1     -10.732  16.035  66.827  1.00  0.00    -0.259 A  
HETATM   20  C   UNL     1     -10.361  17.006  69.014  1.00  0.00    -0.330 A  
HETATM   21  C   UNL     1     -10.131  17.007  67.639  1.00  0.00    -0.298 A  
HETATM   22  C   UNL     1     -11.767  15.061  68.761  1.00  0.00    -0.360 A  
HETATM   23  C   UNL     1     -11.185  16.037  69.574  1.00  0.00    -0.348 A  
BRANCH  21  24
HETATM   24  C   UNL     1      -9.250  17.987  67.079  1.00  0.00    -0.265 C  
HETATM   25  C   UNL     1      -8.551  18.822  66.573  1.00  0.00    -0.312 C  
ENDBRANCH  21  24
ENDBRANCH  16  18
ENDBRANCH  11  16
BRANCH  13  26
HETATM   26  O   UNL     1     -11.106   9.935  69.457  1.00  0.00    -0.233 OA 
BRANCH  26  27
HETATM   27  C   UNL     1     -11.907  10.918  70.114  1.00  0.00    -0.353 C  
BRANCH  27  28
HETATM   28  C   UNL     1     -12.188  10.519  71.559  1.00  0.00    -0.286 C  
BRANCH  28  29
HETATM   29  O   UNL     1     -13.212  11.383  72.060  1.00  0.00    -0.503 OA 
HETATM   30  C   UNL     1     -12.968  12.743  71.740  1.00  0.00    -0.314 C  
ENDBRANCH  28  29
ENDBRANCH  27  28
ENDBRANCH  26  27
ENDBRANCH  13  26
ENDBRANCH   5   6
ENDBRANCH   4   5
ENDBRANCH   3   4
ENDBRANCH   2   3
TORSDOF 11
ENDMDL
MODEL       43
REMARK 921   NORMALIZED FREE ENERGY PREDICTED BY IDOCK:   -5.48 KCAL/MOL
REMARK 922        TOTAL FREE ENERGY PREDICTED BY IDOCK:  -10.14 KCAL/MOL
REMARK 923 INTER-LIGAND FREE ENERGY PREDICTED BY IDOCK:   -9.02 KCAL/MOL
REMARK 924 INTRA-LIGAND FREE ENERGY PREDICTED BY IDOCK:   -1.11 KCAL/MOL
REMARK 927      BINDING AFFINITY PREDICTED BY RF-SCORE:    0.00 PKD
ROOT
HETATM    1  C   UNL     1      -7.537  18.874  68.685  1.00  0.00    -0.331 C  
HETATM    2  O   UNL     1      -8.299  17.742  68.282  1.00  0.00    -0.259 OA 
ENDROOT
BRANCH   2   3
HETATM    3  C   UNL     1      -9.685  18.063  68.196  1.00  0.00    -0.322 C  
BRANCH   3   4
HETATM    4  C   UNL     1     -10.504  17.090  69.040  1.00  0.00    -0.337 C  
BRANCH   4   5
HETATM    5  O   UNL     1     -11.380  16.407  68.151  1.00  0.00    -0.324 OA 
BRANCH   5   6
HETATM    6  C   UNL     1     -11.319  15.054  68.019  1.00  0.00    -0.327 A  
HETATM    7  C   UNL     1     -10.652  14.425  66.960  1.00  0.00    -0.274 A  
HETATM    8  C   UNL     1     -10.611  13.046  66.822  1.00  0.00    -0.262 A  
HETATM    9  C   UNL     1     -11.222  12.237  67.789  1.00  0.00    -0.331 A  
HETATM   10  C   UNL     1     -11.875  12.870  68.882  1.00  0.00    -0.352 A  
HETATM   11  C   UNL     1     -11.112  10.845  67.568  1.00  0.00    -0.310 A  
HETATM   12  N   UNL     1     -10.493  10.355  66.478  1.00  0.00    -0.223 NA 
HETATM   13  C   UNL     1     -11.945  14.265  68.994  1.00  0.00    -0.325 A  
HETATM   14  N   UNL     1      -9.978  12.559  65.755  1.00  0.00    -0.263 NA 
HETATM   15  C   UNL     1      -9.956  11.232  65.628  1.00  0.00    -0.247 A  
BRANCH  11  16
HETATM   16  N   UNL     1     -11.606   9.939  68.544  1.00  0.00    -0.500 NA 
HETATM   17  H   UNL     1     -12.615   9.799  68.532  1.00  0.00     0.000 HD 
BRANCH  16  18
HETATM   18  C   UNL     1     -10.910   9.201  69.533  1.00  0.00    -0.180 A  
HETATM   19  C   UNL     1     -10.746   7.815  69.365  1.00  0.00    -0.177 A  
HETATM   20  C   UNL     1      -9.762   7.610  71.568  1.00  0.00    -0.191 A  
HETATM   21  C   UNL     1     -10.180   7.025  70.375  1.00  0.00    -0.209 A  
HETATM   22  C   UNL     1     -10.491   9.761  70.748  1.00  0.00    -0.339 A  
HETATM   23  C   UNL     1      -9.911   8.981  71.752  1.00  0.00    -0.330 A  
BRANCH  21  24
HETATM   24  C   UNL     1     -10.056   5.607  70.213  1.00  0.00    -0.287 C  
HETATM   25  C   UNL     1      -9.997   4.420  70.041  1.00  0.00    -0.245 C  
ENDBRANCH  21  24
ENDBRANCH  16  18
ENDBRANCH  11  16
BRANCH  13  26
HETATM   26  O   UNL     1     -12.658  14.675  70.098  1.00  0.00    -0.335 OA 
BRANCH  26  27
HETATM   27  C   UNL     1     -12.268  14.155  71.369  1.00  0.00    -0.301 C  
BRANCH  27  28
HETATM   28  C   UNL     1     -11.868  15.278  72.321  1.00  0.00    -0.437 C  
BRANCH  28  29
HETATM   29  O   UNL     1     -12.911  15.421  73.290  1.00  0.00    -0.423 OA 
HETATM   30  C   UNL     1     -12.426  15.916  74.528  1.00  0.00    -0.581 C  
ENDBRANCH  28  29
ENDBRANCH  27  28
ENDBRANCH  26  27
ENDBRANCH  13  26
ENDBRANCH   5   6
ENDBRANCH   4   5
ENDBRANCH   3   4
ENDBRANCH   2   3
TORSDOF 11
ENDMDL
MODEL       44
REMARK 921   NORMALIZED FREE ENERGY PREDICTED BY IDOCK:   -5.46 KCAL/MOL
REMARK 922        TOTAL FREE ENERGY PREDICTED BY IDOCK:  -10.11 KCAL/MOL
REMARK 923 INTER-LIGAND FREE ENERGY PREDICTED BY IDOCK:   -8.72 KCAL/MOL
REMARK 924 INTRA-LIGAND FREE ENERGY PREDICTED BY IDOCK:   -1.39 KCAL/MOL
REMARK 927      BINDING AFFINITY PREDICTED BY RF-SCORE:    0.00 PKD
ROOT
HETATM    1  C   UNL     1      -5.179   8.608  63.088  1.00  0.00    -0.067 C  
HETATM    2  O   UNL     1      -6.410   9.257  63.383  1.00  0.00    -0.089 OA 
ENDROOT
BRANCH   2   3
HETATM    3  C   UNL     1      -7.362   9.045  62.344  1.00  0.00    -0.097 C  
BRANCH   3   4
HETATM    4  C   UNL     1      -8.462  10.101  62.414  1.00  0.00    -0.171 C  
BRANCH   4   5
HETATM    5  O   UNL     1      -9.381   9.675  63.414  1.00  0.00    -0.207 OA 
BRANCH   5   6
HETATM    6  C   UNL     1      -9.876  10.559  64.322  1.00  0.00    -0.338 A  
HETATM    7  C   UNL     1     -10.950  11.413  64.041  1.00  0.00    -0.428 A  
HETATM    8  C   UNL     1     -11.437  12.325  64.965  1.00  0.00    -0.336 A  
HETATM    9  C   UNL     1     -10.868  12.381  66.245  1.00  0.00    -0.299 A  
HETATM   10  C   UNL     1      -9.797  11.495  66.545  1.00  0.00    -0.228 A  
HETATM   11  C   UNL     1     -11.443  13.331  67.120  1.00  0.00    -0.341 A  
HETATM   12  N   UNL     1     -12.440  14.141  66.717  1.00  0.00    -0.307 NA 
HETATM   13  C   UNL     1      -9.285  10.603  65.593  1.00  0.00    -0.196 A  
HETATM   14  N   UNL     1     -12.439  13.112  64.576  1.00  0.00    -0.599 NA 
HETATM   15  C   UNL     1     -12.889  13.992  65.470  1.00  0.00    -0.419 A  
BRANCH  11  16
HETATM   16  N   UNL     1     -11.009  13.392  68.470  1.00  0.00    -0.258 NA 
HETATM   17  H   UNL     1     -10.026  13.628  68.597  1.00  0.00     0.000 HD 
BRANCH  16  18
HETATM   18  C   UNL     1     -11.734  13.176  69.668  1.00  0.00    -0.303 A  
HETATM   19  C   UNL     1     -11.936  11.860  70.119  1.00  0.00    -0.413 A  
HETATM   20  C   UNL     1     -13.379  12.637  71.902  1.00  0.00    -0.485 A  
HETATM   21  C   UNL     1     -12.755  11.591  71.225  1.00  0.00    -0.469 A  
HETATM   22  C   UNL     1     -12.384  14.206  70.361  1.00  0.00    -0.428 A  
HETATM   23  C   UNL     1     -13.188  13.946  71.475  1.00  0.00    -0.425 A  
BRANCH  21  24
HETATM   24  C   UNL     1     -12.991  10.244  71.650  1.00  0.00    -0.570 C  
HETATM   25  C   UNL     1     -13.228   9.134  72.042  1.00  0.00    -0.505 C  
ENDBRANCH  21  24
ENDBRANCH  16  18
ENDBRANCH  11  16
BRANCH  13  26
HETATM   26  O   UNL     1      -8.223   9.868  66.069  1.00  0.00    -0.115 OA 
BRANCH  26  27
HETATM   27  C   UNL     1      -8.478   8.525  66.480  1.00  0.00    -0.115 C  
BRANCH  27  28
HETATM   28  C   UNL     1      -8.608   8.433  67.997  1.00  0.00    -0.135 C  
BRANCH  28  29
HETATM   29  O   UNL     1     -10.001   8.488  68.320  1.00  0.00    -0.171 OA 
HETATM   30  C   UNL     1     -10.236   8.313  69.708  1.00  0.00    -0.204 C  
ENDBRANCH  28  29
ENDBRANCH  27  28
ENDBRANCH  26  27
ENDBRANCH  13  26
ENDBRANCH   5   6
ENDBRANCH   4   5
ENDBRANCH   3   4
ENDBRANCH   2   3
TORSDOF 11
ENDMDL
MODEL       45
REMARK 921   NORMALIZED FREE ENERGY PREDICTED BY IDOCK:   -5.44 KCAL/MOL
REMARK 922        TOTAL FREE ENERGY PREDICTED BY IDOCK:  -10.08 KCAL/MOL
REMARK 923 INTER-LIGAND FREE ENERGY PREDICTED BY IDOCK:   -9.06 KCAL/MOL
REMARK 924 INTRA-LIGAND FREE ENERGY PREDICTED BY IDOCK:   -1.02 KCAL/MOL
REMARK 927      BINDING AFFINITY PREDICTED BY RF-SCORE:    0.00 PKD
ROOT
HETATM    1  C   UNL     1      -8.578   7.375  67.785  1.00  0.00    -0.120 C  
HETATM    2  O   UNL     1      -9.445   7.470  68.910  1.00  0.00    -0.146 OA 
ENDROOT
BRANCH   2   3
HETATM    3  C   UNL     1     -10.570   8.295  68.622  1.00  0.00    -0.108 C  
BRANCH   3   4
HETATM    4  C   UNL     1     -10.288   9.159  67.395  1.00  0.00    -0.264 C  
BRANCH   4   5
HETATM    5  O   UNL     1     -10.990  10.383  67.582  1.00  0.00    -0.287 OA 
BRANCH   5   6
HETATM    6  C   UNL     1     -10.363  11.577  67.399  1.00  0.00    -0.207 A  
HETATM    7  C   UNL     1      -9.084  11.846  67.901  1.00  0.00    -0.183 A  
HETATM    8  C   UNL     1      -8.459  13.072  67.728  1.00  0.00    -0.188 A  
HETATM    9  C   UNL     1      -9.104  14.076  66.993  1.00  0.00    -0.256 A  
HETATM   10  C   UNL     1     -10.390  13.798  66.456  1.00  0.00    -0.286 A  
HETATM   11  C   UNL     1      -8.380  15.284  66.859  1.00  0.00    -0.243 A  
HETATM   12  N   UNL     1      -7.175  15.447  67.438  1.00  0.00    -0.199 NA 
HETATM   13  C   UNL     1     -11.031  12.570  66.669  1.00  0.00    -0.266 A  
HETATM   14  N   UNL     1      -7.256  13.227  68.280  1.00  0.00    -0.096 NA 
HETATM   15  C   UNL     1      -6.673  14.414  68.116  1.00  0.00    -0.127 A  
BRANCH  11  16
HETATM   16  N   UNL     1      -8.900  16.325  66.045  1.00  0.00    -0.399 NA 
HETATM   17  H   UNL     1      -9.166  16.044  65.102  1.00  0.00     0.000 HD 
BRANCH  16  18
HETATM   18  C   UNL     1      -9.105  17.694  66.343  1.00  0.00    -0.234 A  
HETATM   19  C   UNL     1      -7.992  18.512  66.608  1.00  0.00    -0.278 A  
HETATM   20  C   UNL     1      -9.431  20.370  67.194  1.00  0.00    -0.567 A  
HETATM   21  C   UNL     1      -8.153  19.838  67.034  1.00  0.00    -0.327 A  
HETATM   22  C   UNL     1     -10.378  18.252  66.525  1.00  0.00    -0.410 A  
HETATM   23  C   UNL     1     -10.544  19.579  66.932  1.00  0.00    -0.602 A  
BRANCH  21  24
HETATM   24  C   UNL     1      -7.016  20.651  67.344  1.00  0.00    -0.395 C  
HETATM   25  C   UNL     1      -6.031  21.301  67.567  1.00  0.00    -0.427 C  
ENDBRANCH  21  24
ENDBRANCH  16  18
ENDBRANCH  11  16
BRANCH  13  26
HETATM   26  O   UNL     1     -12.285  12.519  66.104  1.00  0.00    -0.609 OA 
BRANCH  26  27
HETATM   27  C   UNL     1     -12.475  13.176  64.851  1.00  0.00    -0.433 C  
BRANCH  27  28
HETATM   28  C   UNL     1     -12.227  12.220  63.689  1.00  0.00    -0.567 C  
BRANCH  28  29
HETATM   29  O   UNL     1     -10.875  12.399  63.256  1.00  0.00    -0.432 OA 
HETATM   30  C   UNL     1     -10.102  11.220  63.416  1.00  0.00    -0.400 C  
ENDBRANCH  28  29
ENDBRANCH  27  28
ENDBRANCH  26  27
ENDBRANCH  13  26
ENDBRANCH   5   6
ENDBRANCH   4   5
ENDBRANCH   3   4
ENDBRANCH   2   3
TORSDOF 11
ENDMDL
MODEL       46
REMARK 921   NORMALIZED FREE ENERGY PREDICTED BY IDOCK:   -5.44 KCAL/MOL
REMARK 922        TOTAL FREE ENERGY PREDICTED BY IDOCK:  -10.08 KCAL/MOL
REMARK 923 INTER-LIGAND FREE ENERGY PREDICTED BY IDOCK:   -8.85 KCAL/MOL
REMARK 924 INTRA-LIGAND FREE ENERGY PREDICTED BY IDOCK:   -1.23 KCAL/MOL
REMARK 927      BINDING AFFINITY PREDICTED BY RF-SCORE:    0.00 PKD
ROOT
HETATM    1  C   UNL     1      -7.246  17.755  66.006  1.00  0.00    -0.287 C  
HETATM    2  O   UNL     1      -8.177  16.680  66.067  1.00  0.00    -0.386 OA 
ENDROOT
BRANCH   2   3
HETATM    3  C   UNL     1      -9.335  17.047  66.811  1.00  0.00    -0.252 C  
BRANCH   3   4
HETATM    4  C   UNL     1     -10.596  16.735  66.010  1.00  0.00    -0.228 C  
BRANCH   4   5
HETATM    5  O   UNL     1     -11.272  15.687  66.697  1.00  0.00    -0.221 OA 
BRANCH   5   6
HETATM    6  C   UNL     1     -10.889  14.391  66.535  1.00  0.00    -0.310 A  
HETATM    7  C   UNL     1     -10.733  13.799  65.275  1.00  0.00    -0.345 A  
HETATM    8  C   UNL     1     -10.362  12.472  65.118  1.00  0.00    -0.289 A  
HETATM    9  C   UNL     1     -10.094  11.692  66.251  1.00  0.00    -0.254 A  
HETATM   10  C   UNL     1     -10.222  12.297  67.531  1.00  0.00    -0.212 A  
HETATM   11  C   UNL     1      -9.708  10.358  65.987  1.00  0.00    -0.211 A  
HETATM   12  N   UNL     1      -9.647   9.882  64.729  1.00  0.00    -0.298 NA 
HETATM   13  C   UNL     1     -10.635  13.628  67.683  1.00  0.00    -0.241 A  
HETATM   14  N   UNL     1     -10.279  12.006  63.873  1.00  0.00    -0.368 NA 
HETATM   15  C   UNL     1      -9.933  10.726  63.737  1.00  0.00    -0.351 A  
BRANCH  11  16
HETATM   16  N   UNL     1      -9.312   9.518  67.061  1.00  0.00    -0.144 NA 
HETATM   17  H   UNL     1      -8.361   9.666  67.398  1.00  0.00     0.000 HD 
BRANCH  16  18
HETATM   18  C   UNL     1     -10.037   8.506  67.737  1.00  0.00    -0.211 A  
HETATM   19  C   UNL     1     -10.339   8.673  69.100  1.00  0.00    -0.227 A  
HETATM   20  C   UNL     1     -11.251   6.433  69.227  1.00  0.00    -0.440 A  
HETATM   21  C   UNL     1     -10.938   7.644  69.841  1.00  0.00    -0.208 A  
HETATM   22  C   UNL     1     -10.352   7.272  67.150  1.00  0.00    -0.367 A  
HETATM   23  C   UNL     1     -10.965   6.250  67.879  1.00  0.00    -0.421 A  
BRANCH  21  24
HETATM   24  C   UNL     1     -11.203   7.808  71.239  1.00  0.00    -0.280 C  
HETATM   25  C   UNL     1     -11.386   7.986  72.412  1.00  0.00    -0.443 C  
ENDBRANCH  21  24
ENDBRANCH  16  18
ENDBRANCH  11  16
BRANCH  13  26
HETATM   26  O   UNL     1     -10.738  14.007  69.002  1.00  0.00    -0.240 OA 
BRANCH  26  27
HETATM   27  C   UNL     1     -11.948  13.688  69.690  1.00  0.00    -0.343 C  
BRANCH  27  28
HETATM   28  C   UNL     1     -12.435  14.872  70.518  1.00  0.00    -0.363 C  
BRANCH  28  29
HETATM   29  O   UNL     1     -13.733  14.546  71.024  1.00  0.00    -0.339 OA 
HETATM   30  C   UNL     1     -13.681  14.049  72.352  1.00  0.00    -0.568 C  
ENDBRANCH  28  29
ENDBRANCH  27  28
ENDBRANCH  26  27
ENDBRANCH  13  26
ENDBRANCH   5   6
ENDBRANCH   4   5
ENDBRANCH   3   4
ENDBRANCH   2   3
TORSDOF 11
ENDMDL
MODEL       47
REMARK 921   NORMALIZED FREE ENERGY PREDICTED BY IDOCK:   -5.44 KCAL/MOL
REMARK 922        TOTAL FREE ENERGY PREDICTED BY IDOCK:  -10.07 KCAL/MOL
REMARK 923 INTER-LIGAND FREE ENERGY PREDICTED BY IDOCK:   -9.09 KCAL/MOL
REMARK 924 INTRA-LIGAND FREE ENERGY PREDICTED BY IDOCK:   -0.99 KCAL/MOL
REMARK 927      BINDING AFFINITY PREDICTED BY RF-SCORE:    0.00 PKD
ROOT
HETATM    1  C   UNL     1     -12.376  15.478  74.318  1.00  0.00    -0.671 C  
HETATM    2  O   UNL     1     -13.327  15.861  73.331  1.00  0.00    -0.567 OA 
ENDROOT
BRANCH   2   3
HETATM    3  C   UNL     1     -12.769  15.778  72.023  1.00  0.00    -0.449 C  
BRANCH   3   4
HETATM    4  C   UNL     1     -13.431  14.647  71.239  1.00  0.00    -0.386 C  
BRANCH   4   5
HETATM    5  O   UNL     1     -12.440  13.645  71.044  1.00  0.00    -0.354 OA 
BRANCH   5   6
HETATM    6  C   UNL     1     -12.110  13.230  69.790  1.00  0.00    -0.290 A  
HETATM    7  C   UNL     1     -11.961  14.113  68.714  1.00  0.00    -0.367 A  
HETATM    8  C   UNL     1     -11.645  13.681  67.435  1.00  0.00    -0.356 A  
HETATM    9  C   UNL     1     -11.427  12.316  67.203  1.00  0.00    -0.419 A  
HETATM   10  C   UNL     1     -11.548  11.418  68.298  1.00  0.00    -0.376 A  
HETATM   11  C   UNL     1     -11.095  11.976  65.871  1.00  0.00    -0.324 A  
HETATM   12  N   UNL     1     -11.036  12.911  64.903  1.00  0.00    -0.288 NA 
HETATM   13  C   UNL     1     -11.906  11.859  69.580  1.00  0.00    -0.331 A  
HETATM   14  N   UNL     1     -11.563  14.607  66.481  1.00  0.00    -0.362 NA 
HETATM   15  C   UNL     1     -11.271  14.176  65.254  1.00  0.00    -0.326 A  
BRANCH  11  16
HETATM   16  N   UNL     1     -10.752  10.635  65.555  1.00  0.00    -0.107 NA 
HETATM   17  H   UNL     1     -11.172  10.272  64.700  1.00  0.00     0.000 HD 
BRANCH  16  18
HETATM   18  C   UNL     1      -9.915   9.725  66.245  1.00  0.00    -0.262 A  
HETATM   19  C   UNL     1     -10.484   8.583  66.836  1.00  0.00    -0.345 A  
HETATM   20  C   UNL     1      -8.368   7.990  67.855  1.00  0.00    -0.129 A  
HETATM   21  C   UNL     1      -9.719   7.724  67.637  1.00  0.00    -0.193 A  
HETATM   22  C   UNL     1      -8.557   9.974  66.492  1.00  0.00    -0.131 A  
HETATM   23  C   UNL     1      -7.785   9.112  67.276  1.00  0.00    -0.095 A  
BRANCH  21  24
HETATM   24  C   UNL     1     -10.317   6.587  68.270  1.00  0.00    -0.223 C  
HETATM   25  C   UNL     1     -10.823   5.610  68.750  1.00  0.00    -0.210 C  
ENDBRANCH  21  24
ENDBRANCH  16  18
ENDBRANCH  11  16
BRANCH  13  26
HETATM   26  O   UNL     1     -12.013  10.828  70.487  1.00  0.00    -0.301 OA 
BRANCH  26  27
HETATM   27  C   UNL     1     -10.857  10.023  70.713  1.00  0.00    -0.260 C  
BRANCH  27  28
HETATM   28  C   UNL     1     -11.177   8.852  71.636  1.00  0.00    -0.345 C  
BRANCH  28  29
HETATM   29  O   UNL     1     -11.988   7.928  70.905  1.00  0.00    -0.279 OA 
HETATM   30  C   UNL     1     -12.707   7.054  71.760  1.00  0.00    -0.340 C  
ENDBRANCH  28  29
ENDBRANCH  27  28
ENDBRANCH  26  27
ENDBRANCH  13  26
ENDBRANCH   5   6
ENDBRANCH   4   5
ENDBRANCH   3   4
ENDBRANCH   2   3
TORSDOF 11
ENDMDL
MODEL       48
REMARK 921   NORMALIZED FREE ENERGY PREDICTED BY IDOCK:   -5.42 KCAL/MOL
REMARK 922        TOTAL FREE ENERGY PREDICTED BY IDOCK:  -10.04 KCAL/MOL
REMARK 923 INTER-LIGAND FREE ENERGY PREDICTED BY IDOCK:   -9.46 KCAL/MOL
REMARK 924 INTRA-LIGAND FREE ENERGY PREDICTED BY IDOCK:   -0.58 KCAL/MOL
REMARK 927      BINDING AFFINITY PREDICTED BY RF-SCORE:    0.00 PKD
ROOT
HETATM    1  C   UNL     1     -12.431  11.972  63.374  1.00  0.00    -0.509 C  
HETATM    2  O   UNL     1     -12.960  12.481  64.594  1.00  0.00    -0.803 OA 
ENDROOT
BRANCH   2   3
HETATM    3  C   UNL     1     -11.948  12.568  65.593  1.00  0.00    -0.433 C  
BRANCH   3   4
HETATM    4  C   UNL     1     -12.327  13.617  66.635  1.00  0.00    -0.331 C  
BRANCH   4   5
HETATM    5  O   UNL     1     -11.603  13.303  67.820  1.00  0.00    -0.300 OA 
BRANCH   5   6
HETATM    6  C   UNL     1     -10.433  13.937  68.107  1.00  0.00    -0.245 A  
HETATM    7  C   UNL     1      -9.181  13.396  67.792  1.00  0.00    -0.211 A  
HETATM    8  C   UNL     1      -7.993  14.039  68.106  1.00  0.00    -0.149 A  
HETATM    9  C   UNL     1      -8.031  15.295  68.728  1.00  0.00    -0.158 A  
HETATM   10  C   UNL     1      -9.301  15.862  69.022  1.00  0.00    -0.243 A  
HETATM   11  C   UNL     1      -6.770  15.876  68.992  1.00  0.00    -0.151 A  
HETATM   12  N   UNL     1      -5.625  15.232  68.695  1.00  0.00    -0.087 NA 
HETATM   13  C   UNL     1     -10.497  15.188  68.737  1.00  0.00    -0.234 A  
HETATM   14  N   UNL     1      -6.859  13.414  67.791  1.00  0.00    -0.145 NA 
HETATM   15  C   UNL     1      -5.725  14.038  68.109  1.00  0.00    -0.128 A  
BRANCH  11  16
HETATM   16  N   UNL     1      -6.702  17.191  69.523  1.00  0.00    -0.201 NA 
HETATM   17  H   UNL     1      -6.469  17.246  70.514  1.00  0.00     0.000 HD 
BRANCH  16  18
HETATM   18  C   UNL     1      -6.908  18.439  68.885  1.00  0.00    -0.265 A  
HETATM   19  C   UNL     1      -8.065  18.630  68.109  1.00  0.00    -0.318 A  
HETATM   20  C   UNL     1      -7.277  20.799  67.374  1.00  0.00    -0.406 A  
HETATM   21  C   UNL     1      -8.247  19.799  67.357  1.00  0.00    -0.342 A  
HETATM   22  C   UNL     1      -5.944  19.457  68.874  1.00  0.00    -0.259 A  
HETATM   23  C   UNL     1      -6.129  20.632  68.140  1.00  0.00    -0.345 A  
BRANCH  21  24
HETATM   24  C   UNL     1      -9.408  19.967  66.535  1.00  0.00    -0.501 C  
HETATM   25  C   UNL     1     -10.382  20.051  65.838  1.00  0.00    -0.529 C  
ENDBRANCH  21  24
ENDBRANCH  16  18
ENDBRANCH  11  16
BRANCH  13  26
HETATM   26  O   UNL     1     -11.612  15.887  69.141  1.00  0.00    -0.362 OA 
BRANCH  26  27
HETATM   27  C   UNL     1     -12.367  15.358  70.231  1.00  0.00    -0.388 C  
BRANCH  27  28
HETATM   28  C   UNL     1     -12.012  16.063  71.536  1.00  0.00    -0.475 C  
BRANCH  28  29
HETATM   29  O   UNL     1     -13.034  15.757  72.489  1.00  0.00    -0.419 OA 
HETATM   30  C   UNL     1     -13.162  14.361  72.706  1.00  0.00    -0.520 C  
ENDBRANCH  28  29
ENDBRANCH  27  28
ENDBRANCH  26  27
ENDBRANCH  13  26
ENDBRANCH   5   6
ENDBRANCH   4   5
ENDBRANCH   3   4
ENDBRANCH   2   3
TORSDOF 11
ENDMDL
MODEL       49
REMARK 921   NORMALIZED FREE ENERGY PREDICTED BY IDOCK:   -5.41 KCAL/MOL
REMARK 922        TOTAL FREE ENERGY PREDICTED BY IDOCK:  -10.03 KCAL/MOL
REMARK 923 INTER-LIGAND FREE ENERGY PREDICTED BY IDOCK:   -8.82 KCAL/MOL
REMARK 924 INTRA-LIGAND FREE ENERGY PREDICTED BY IDOCK:   -1.21 KCAL/MOL
REMARK 927      BINDING AFFINITY PREDICTED BY RF-SCORE:    0.00 PKD
ROOT
HETATM    1  C   UNL     1      -7.304  20.460  66.840  1.00  0.00    -0.300 C  
HETATM    2  O   UNL     1      -8.115  19.423  66.299  1.00  0.00    -0.303 OA 
ENDROOT
BRANCH   2   3
HETATM    3  C   UNL     1      -9.497  19.757  66.383  1.00  0.00    -0.403 C  
BRANCH   3   4
HETATM    4  C   UNL     1     -10.350  18.493  66.321  1.00  0.00    -0.427 C  
BRANCH   4   5
HETATM    5  O   UNL     1      -9.587  17.514  65.623  1.00  0.00    -0.510 OA 
BRANCH   5   6
HETATM    6  C   UNL     1      -9.947  16.202  65.655  1.00  0.00    -0.297 A  
HETATM    7  C   UNL     1     -11.006  15.688  64.897  1.00  0.00    -0.447 A  
HETATM    8  C   UNL     1     -11.379  14.353  64.950  1.00  0.00    -0.380 A  
HETATM    9  C   UNL     1     -10.657  13.467  65.759  1.00  0.00    -0.286 A  
HETATM   10  C   UNL     1      -9.562  13.978  66.509  1.00  0.00    -0.307 A  
HETATM   11  C   UNL     1     -11.104  12.126  65.734  1.00  0.00    -0.319 A  
HETATM   12  N   UNL     1     -12.175  11.758  65.006  1.00  0.00    -0.167 NA 
HETATM   13  C   UNL     1      -9.215  15.336  66.479  1.00  0.00    -0.290 A  
HETATM   14  N   UNL     1     -12.425  13.983  64.212  1.00  0.00    -0.684 NA 
HETATM   15  C   UNL     1     -12.780  12.700  64.282  1.00  0.00    -0.305 A  
BRANCH  11  16
HETATM   16  N   UNL     1     -10.375  11.131  66.436  1.00  0.00    -0.244 NA 
HETATM   17  H   UNL     1      -9.589  10.730  65.925  1.00  0.00     0.000 HD 
BRANCH  16  18
HETATM   18  C   UNL     1     -10.571  10.610  67.739  1.00  0.00    -0.236 A  
HETATM   19  C   UNL     1     -10.471   9.222  67.945  1.00  0.00    -0.290 A  
HETATM   20  C   UNL     1     -11.196   9.457  70.243  1.00  0.00    -0.286 A  
HETATM   21  C   UNL     1     -10.784   8.649  69.186  1.00  0.00    -0.136 A  
HETATM   22  C   UNL     1     -10.999  11.396  68.818  1.00  0.00    -0.272 A  
HETATM   23  C   UNL     1     -11.296  10.832  70.062  1.00  0.00    -0.397 A  
BRANCH  21  24
HETATM   24  C   UNL     1     -10.721   7.231  69.374  1.00  0.00    -0.236 C  
HETATM   25  C   UNL     1     -10.718   6.038  69.505  1.00  0.00    -0.405 C  
ENDBRANCH  21  24
ENDBRANCH  16  18
ENDBRANCH  11  16
BRANCH  13  26
HETATM   26  O   UNL     1      -8.156  15.633  67.308  1.00  0.00    -0.162 OA 
BRANCH  26  27
HETATM   27  C   UNL     1      -8.454  16.015  68.651  1.00  0.00    -0.208 C  
BRANCH  27  28
HETATM   28  C   UNL     1      -7.290  15.692  69.582  1.00  0.00    -0.144 C  
BRANCH  28  29
HETATM   29  O   UNL     1      -6.130  16.364  69.082  1.00  0.00    -0.144 OA 
HETATM   30  C   UNL     1      -6.179  17.762  69.318  1.00  0.00    -0.239 C  
ENDBRANCH  28  29
ENDBRANCH  27  28
ENDBRANCH  26  27
ENDBRANCH  13  26
ENDBRANCH   5   6
ENDBRANCH   4   5
ENDBRANCH   3   4
ENDBRANCH   2   3
TORSDOF 11
ENDMDL
MODEL       50
REMARK 921   NORMALIZED FREE ENERGY PREDICTED BY IDOCK:   -5.39 KCAL/MOL
REMARK 922        TOTAL FREE ENERGY PREDICTED BY IDOCK:  -10.00 KCAL/MOL
REMARK 923 INTER-LIGAND FREE ENERGY PREDICTED BY IDOCK:   -9.06 KCAL/MOL
REMARK 924 INTRA-LIGAND FREE ENERGY PREDICTED BY IDOCK:   -0.94 KCAL/MOL
REMARK 927      BINDING AFFINITY PREDICTED BY RF-SCORE:    0.00 PKD
ROOT
HETATM    1  C   UNL     1     -12.648   9.641  72.023  1.00  0.00    -0.361 C  
HETATM    2  O   UNL     1     -13.221  10.342  70.925  1.00  0.00    -0.395 OA 
ENDROOT
BRANCH   2   3
HETATM    3  C   UNL     1     -12.266  11.204  70.313  1.00  0.00    -0.352 C  
BRANCH   3   4
HETATM    4  C   UNL     1     -11.662  10.531  69.083  1.00  0.00    -0.189 C  
BRANCH   4   5
HETATM    5  O   UNL     1     -11.787  11.453  68.006  1.00  0.00    -0.570 OA 
BRANCH   5   6
HETATM    6  C   UNL     1     -10.812  12.372  67.763  1.00  0.00    -0.225 A  
HETATM    7  C   UNL     1      -9.459  12.129  68.028  1.00  0.00    -0.201 A  
HETATM    8  C   UNL     1      -8.475  13.078  67.797  1.00  0.00    -0.188 A  
HETATM    9  C   UNL     1      -8.826  14.316  67.243  1.00  0.00    -0.224 A  
HETATM   10  C   UNL     1     -10.195  14.556  66.944  1.00  0.00    -0.264 A  
HETATM   11  C   UNL     1      -7.751  15.209  67.030  1.00  0.00    -0.123 A  
HETATM   12  N   UNL     1      -6.491  14.885  67.380  1.00  0.00    -0.311 NA 
HETATM   13  C   UNL     1     -11.189  13.607  67.217  1.00  0.00    -0.309 A  
HETATM   14  N   UNL     1      -7.224  12.750  68.121  1.00  0.00    -0.102 NA 
HETATM   15  C   UNL     1      -6.289  13.676  67.904  1.00  0.00    -0.156 A  
BRANCH  11  16
HETATM   16  N   UNL     1      -7.987  16.447  66.376  1.00  0.00    -0.306 NA 
HETATM   17  H   UNL     1      -7.988  16.404  65.358  1.00  0.00     0.000 HD 
BRANCH  16  18
HETATM   18  C   UNL     1      -8.222  17.732  66.922  1.00  0.00    -0.232 A  
HETATM   19  C   UNL     1      -7.366  18.218  67.926  1.00  0.00    -0.233 A  
HETATM   20  C   UNL     1      -8.762  20.171  68.247  1.00  0.00    -0.092 A  
HETATM   21  C   UNL     1      -7.634  19.426  68.586  1.00  0.00    -0.398 A  
HETATM   22  C   UNL     1      -9.355  18.497  66.611  1.00  0.00    -0.310 A  
HETATM   23  C   UNL     1      -9.619  19.710  67.253  1.00  0.00    -0.459 A  
BRANCH  21  24
HETATM   24  C   UNL     1      -6.780  19.891  69.637  1.00  0.00    -0.337 C  
HETATM   25  C   UNL     1      -6.110  20.296  70.547  1.00  0.00    -0.343 C  
ENDBRANCH  21  24
ENDBRANCH  16  18
ENDBRANCH  11  16
BRANCH  13  26
HETATM   26  O   UNL     1     -12.453  14.051  66.895  1.00  0.00    -0.364 OA 
BRANCH  26  27
HETATM   27  C   UNL     1     -12.994  13.652  65.636  1.00  0.00    -0.238 C  
BRANCH  27  28
HETATM   28  C   UNL     1     -12.388  14.467  64.497  1.00  0.00    -0.418 C  
BRANCH  28  29
HETATM   29  O   UNL     1     -12.500  13.693  63.299  1.00  0.00    -0.801 OA 
HETATM   30  C   UNL     1     -12.071  12.354  63.485  1.00  0.00    -0.558 C  
ENDBRANCH  28  29
ENDBRANCH  27  28
ENDBRANCH  26  27
ENDBRANCH  13  26
ENDBRANCH   5   6
ENDBRANCH   4   5
ENDBRANCH   3   4
ENDBRANCH   2   3
TORSDOF 11
ENDMDL
MODEL       51
REMARK 921   NORMALIZED FREE ENERGY PREDICTED BY IDOCK:   -5.39 KCAL/MOL
REMARK 922        TOTAL FREE ENERGY PREDICTED BY IDOCK:  -10.00 KCAL/MOL
REMARK 923 INTER-LIGAND FREE ENERGY PREDICTED BY IDOCK:   -8.64 KCAL/MOL
REMARK 924 INTRA-LIGAND FREE ENERGY PREDICTED BY IDOCK:   -1.36 KCAL/MOL
REMARK 927      BINDING AFFINITY PREDICTED BY RF-SCORE:    0.00 PKD
ROOT
HETATM    1  C   UNL     1      -6.887  16.020  68.834  1.00  0.00    -0.143 C  
HETATM    2  O   UNL     1      -7.067  17.353  68.369  1.00  0.00    -0.195 OA 
ENDROOT
BRANCH   2   3
HETATM    3  C   UNL     1      -8.318  17.498  67.701  1.00  0.00    -0.214 C  
BRANCH   3   4
HETATM    4  C   UNL     1      -9.430  17.747  68.715  1.00  0.00    -0.254 C  
BRANCH   4   5
HETATM    5  O   UNL     1     -10.550  16.974  68.298  1.00  0.00    -0.339 OA 
BRANCH   5   6
HETATM    6  C   UNL     1     -11.148  16.100  69.154  1.00  0.00    -0.329 A  
HETATM    7  C   UNL     1     -11.442  16.424  70.484  1.00  0.00    -0.163 A  
HETATM    8  C   UNL     1     -12.032  15.521  71.356  1.00  0.00    -0.394 A  
HETATM    9  C   UNL     1     -12.387  14.247  70.893  1.00  0.00    -0.429 A  
HETATM   10  C   UNL     1     -12.117  13.924  69.535  1.00  0.00    -0.393 A  
HETATM   11  C   UNL     1     -12.997  13.405  71.852  1.00  0.00    -0.326 A  
HETATM   12  N   UNL     1     -13.177  13.808  73.124  1.00  0.00    -0.459 NA 
HETATM   13  C   UNL     1     -11.485  14.828  68.671  1.00  0.00    -0.302 A  
HETATM   14  N   UNL     1     -12.233  15.926  72.609  1.00  0.00    -0.455 NA 
HETATM   15  C   UNL     1     -12.790  15.044  73.439  1.00  0.00    -0.528 A  
BRANCH  11  16
HETATM   16  N   UNL     1     -13.489  12.134  71.456  1.00  0.00    -0.017 NA 
HETATM   17  H   UNL     1     -14.439  12.134  71.087  1.00  0.00     0.000 HD 
BRANCH  16  18
HETATM   18  C   UNL     1     -12.861  10.864  71.494  1.00  0.00    -0.454 A  
HETATM   19  C   UNL     1     -11.909  10.540  70.511  1.00  0.00    -0.442 A  
HETATM   20  C   UNL     1     -11.748   8.270  71.341  1.00  0.00    -0.327 A  
HETATM   21  C   UNL     1     -11.359   9.253  70.432  1.00  0.00    -0.283 A  
HETATM   22  C   UNL     1     -13.242   9.853  72.387  1.00  0.00    -0.315 A  
HETATM   23  C   UNL     1     -12.684   8.573  72.324  1.00  0.00    -0.420 A  
BRANCH  21  24
HETATM   24  C   UNL     1     -10.423   8.919  69.401  1.00  0.00    -0.228 C  
HETATM   25  C   UNL     1      -9.629   8.694  68.530  1.00  0.00    -0.162 C  
ENDBRANCH  21  24
ENDBRANCH  16  18
ENDBRANCH  11  16
BRANCH  13  26
HETATM   26  O   UNL     1     -11.276  14.306  67.414  1.00  0.00    -0.293 OA 
BRANCH  26  27
HETATM   27  C   UNL     1     -10.791  12.967  67.326  1.00  0.00    -0.255 C  
BRANCH  27  28
HETATM   28  C   UNL     1      -9.291  12.944  67.054  1.00  0.00    -0.235 C  
BRANCH  28  29
HETATM   29  O   UNL     1      -8.620  12.847  68.315  1.00  0.00    -0.180 OA 
HETATM   30  C   UNL     1      -7.365  12.196  68.204  1.00  0.00    -0.103 C  
ENDBRANCH  28  29
ENDBRANCH  27  28
ENDBRANCH  26  27
ENDBRANCH  13  26
ENDBRANCH   5   6
ENDBRANCH   4   5
ENDBRANCH   3   4
ENDBRANCH   2   3
TORSDOF 11
ENDMDL
MODEL       52
REMARK 921   NORMALIZED FREE ENERGY PREDICTED BY IDOCK:   -5.38 KCAL/MOL
REMARK 922        TOTAL FREE ENERGY PREDICTED BY IDOCK:   -9.98 KCAL/MOL
REMARK 923 INTER-LIGAND FREE ENERGY PREDICTED BY IDOCK:   -8.78 KCAL/MOL
REMARK 924 INTRA-LIGAND FREE ENERGY PREDICTED BY IDOCK:   -1.20 KCAL/MOL
REMARK 927      BINDING AFFINITY PREDICTED BY RF-SCORE:    0.00 PKD
ROOT
HETATM    1  C   UNL     1      -9.842   2.008  72.024  1.00  0.00    -0.146 C  
HETATM    2  O   UNL     1     -10.319   3.345  71.922  1.00  0.00    -0.075 OA 
ENDROOT
BRANCH   2   3
HETATM    3  C   UNL     1     -10.419   3.952  73.207  1.00  0.00    -0.177 C  
BRANCH   3   4
HETATM    4  C   UNL     1     -11.021   5.350  73.083  1.00  0.00    -0.302 C  
BRANCH   4   5
HETATM    5  O   UNL     1     -10.678   5.834  71.790  1.00  0.00    -0.234 OA 
BRANCH   5   6
HETATM    6  C   UNL     1     -10.914   7.131  71.450  1.00  0.00    -0.234 A  
HETATM    7  C   UNL     1     -11.919   7.901  72.050  1.00  0.00    -0.364 A  
HETATM    8  C   UNL     1     -12.167   9.215  71.684  1.00  0.00    -0.361 A  
HETATM    9  C   UNL     1     -11.367   9.822  70.706  1.00  0.00    -0.416 A  
HETATM   10  C   UNL     1     -10.326   9.054  70.116  1.00  0.00    -0.237 A  
HETATM   11  C   UNL     1     -11.687  11.167  70.414  1.00  0.00    -0.320 A  
HETATM   12  N   UNL     1     -12.718  11.789  71.017  1.00  0.00    -0.326 NA 
HETATM   13  C   UNL     1     -10.107   7.714  70.463  1.00  0.00    -0.189 A  
HETATM   14  N   UNL     1     -13.172   9.840  72.297  1.00  0.00    -0.423 NA 
HETATM   15  C   UNL     1     -13.406  11.099  71.927  1.00  0.00    -0.304 A  
BRANCH  11  16
HETATM   16  N   UNL     1     -10.870  11.903  69.516  1.00  0.00    -0.460 NA 
HETATM   17  H   UNL     1      -9.866  11.783  69.648  1.00  0.00     0.000 HD 
BRANCH  16  18
HETATM   18  C   UNL     1     -11.236  12.777  68.463  1.00  0.00    -0.279 A  
HETATM   19  C   UNL     1     -11.546  12.239  67.202  1.00  0.00    -0.423 A  
HETATM   20  C   UNL     1     -11.727  14.455  66.242  1.00  0.00    -0.394 A  
HETATM   21  C   UNL     1     -11.786  13.070  66.098  1.00  0.00    -0.466 A  
HETATM   22  C   UNL     1     -11.171  14.173  68.574  1.00  0.00    -0.285 A  
HETATM   23  C   UNL     1     -11.427  15.007  67.482  1.00  0.00    -0.339 A  
BRANCH  21  24
HETATM   24  C   UNL     1     -12.059  12.513  64.808  1.00  0.00    -0.497 C  
HETATM   25  C   UNL     1     -12.341  12.039  63.741  1.00  0.00    -0.602 C  
ENDBRANCH  21  24
ENDBRANCH  16  18
ENDBRANCH  11  16
BRANCH  13  26
HETATM   26  O   UNL     1      -9.083   7.138  69.745  1.00  0.00    -0.142 OA 
BRANCH  26  27
HETATM   27  C   UNL     1      -8.695   7.767  68.524  1.00  0.00    -0.128 C  
BRANCH  27  28
HETATM   28  C   UNL     1      -9.124   6.936  67.320  1.00  0.00    -0.124 C  
BRANCH  28  29
HETATM   29  O   UNL     1     -10.205   7.622  66.679  1.00  0.00    -0.258 OA 
HETATM   30  C   UNL     1      -9.980   9.020  66.602  1.00  0.00    -0.278 C  
ENDBRANCH  28  29
ENDBRANCH  27  28
ENDBRANCH  26  27
ENDBRANCH  13  26
ENDBRANCH   5   6
ENDBRANCH   4   5
ENDBRANCH   3   4
ENDBRANCH   2   3
TORSDOF 11
ENDMDL
MODEL       53
REMARK 921   NORMALIZED FREE ENERGY PREDICTED BY IDOCK:   -5.34 KCAL/MOL
REMARK 922        TOTAL FREE ENERGY PREDICTED BY IDOCK:   -9.92 KCAL/MOL
REMARK 923 INTER-LIGAND FREE ENERGY PREDICTED BY IDOCK:   -9.07 KCAL/MOL
REMARK 924 INTRA-LIGAND FREE ENERGY PREDICTED BY IDOCK:   -0.84 KCAL/MOL
REMARK 927      BINDING AFFINITY PREDICTED BY RF-SCORE:    0.00 PKD
ROOT
HETATM    1  C   UNL     1      -9.082   7.479  73.611  1.00  0.00    -0.255 C  
HETATM    2  O   UNL     1      -9.339   8.620  72.800  1.00  0.00    -0.259 OA 
ENDROOT
BRANCH   2   3
HETATM    3  C   UNL     1     -10.266   8.313  71.763  1.00  0.00    -0.230 C  
BRANCH   3   4
HETATM    4  C   UNL     1     -11.650   8.850  72.117  1.00  0.00    -0.330 C  
BRANCH   4   5
HETATM    5  O   UNL     1     -12.203   9.387  70.921  1.00  0.00    -0.286 OA 
BRANCH   5   6
HETATM    6  C   UNL     1     -12.329  10.733  70.758  1.00  0.00    -0.383 A  
HETATM    7  C   UNL     1     -12.808  11.577  71.768  1.00  0.00    -0.441 A  
HETATM    8  C   UNL     1     -12.952  12.944  71.588  1.00  0.00    -0.313 A  
HETATM    9  C   UNL     1     -12.574  13.523  70.369  1.00  0.00    -0.267 A  
HETATM   10  C   UNL     1     -12.059  12.675  69.351  1.00  0.00    -0.236 A  
HETATM   11  C   UNL     1     -12.744  14.924  70.288  1.00  0.00    -0.271 A  
HETATM   12  N   UNL     1     -13.270  15.626  71.309  1.00  0.00    -0.499 NA 
HETATM   13  C   UNL     1     -11.953  11.288  69.527  1.00  0.00    -0.351 A  
HETATM   14  N   UNL     1     -13.451  13.644  72.606  1.00  0.00    -0.639 NA 
HETATM   15  C   UNL     1     -13.596  14.955  72.415  1.00  0.00    -0.450 A  
BRANCH  11  16
HETATM   16  N   UNL     1     -12.292  15.619  69.136  1.00  0.00    -0.587 NA 
HETATM   17  H   UNL     1     -13.020  16.099  68.607  1.00  0.00     0.000 HD 
BRANCH  16  18
HETATM   18  C   UNL     1     -10.984  15.749  68.607  1.00  0.00    -0.307 A  
HETATM   19  C   UNL     1     -10.230  16.895  68.917  1.00  0.00    -0.314 A  
HETATM   20  C   UNL     1      -8.472  16.214  67.398  1.00  0.00    -0.188 A  
HETATM   21  C   UNL     1      -8.986  17.128  68.315  1.00  0.00    -0.248 A  
HETATM   22  C   UNL     1     -10.447  14.854  67.672  1.00  0.00    -0.249 A  
HETATM   23  C   UNL     1      -9.199  15.072  67.082  1.00  0.00    -0.229 A  
BRANCH  21  24
HETATM   24  C   UNL     1      -8.245  18.319  68.603  1.00  0.00    -0.301 C  
HETATM   25  C   UNL     1      -7.651  19.321  68.894  1.00  0.00    -0.384 C  
ENDBRANCH  21  24
ENDBRANCH  16  18
ENDBRANCH  11  16
BRANCH  13  26
HETATM   26  O   UNL     1     -11.474  10.644  68.408  1.00  0.00    -0.296 OA 
BRANCH  26  27
HETATM   27  C   UNL     1     -11.290  11.421  67.225  1.00  0.00    -0.275 C  
BRANCH  27  28
HETATM   28  C   UNL     1     -10.077  10.938  66.437  1.00  0.00    -0.231 C  
BRANCH  28  29
HETATM   29  O   UNL     1      -9.171  10.327  67.360  1.00  0.00    -0.141 OA 
HETATM   30  C   UNL     1      -7.967  11.064  67.496  1.00  0.00    -0.116 C  
ENDBRANCH  28  29
ENDBRANCH  27  28
ENDBRANCH  26  27
ENDBRANCH  13  26
ENDBRANCH   5   6
ENDBRANCH   4   5
ENDBRANCH   3   4
ENDBRANCH   2   3
TORSDOF 11
ENDMDL
MODEL       54
REMARK 921   NORMALIZED FREE ENERGY PREDICTED BY IDOCK:   -5.32 KCAL/MOL
REMARK 922        TOTAL FREE ENERGY PREDICTED BY IDOCK:   -9.87 KCAL/MOL
REMARK 923 INTER-LIGAND FREE ENERGY PREDICTED BY IDOCK:   -8.80 KCAL/MOL
REMARK 924 INTRA-LIGAND FREE ENERGY PREDICTED BY IDOCK:   -1.08 KCAL/MOL
REMARK 927      BINDING AFFINITY PREDICTED BY RF-SCORE:    0.00 PKD
ROOT
HETATM    1  C   UNL     1      -9.647  20.859  67.794  1.00  0.00    -0.066 C  
HETATM    2  O   UNL     1      -9.503  20.193  66.545  1.00  0.00    -0.378 OA 
ENDROOT
BRANCH   2   3
HETATM    3  C   UNL     1     -10.722  19.566  66.156  1.00  0.00    -0.428 C  
BRANCH   3   4
HETATM    4  C   UNL     1     -10.476  18.097  65.824  1.00  0.00    -0.207 C  
BRANCH   4   5
HETATM    5  O   UNL     1      -9.749  17.543  66.915  1.00  0.00    -0.269 OA 
BRANCH   5   6
HETATM    6  C   UNL     1     -10.345  16.671  67.774  1.00  0.00    -0.306 A  
HETATM    7  C   UNL     1     -10.612  16.989  69.111  1.00  0.00    -0.303 A  
HETATM    8  C   UNL     1     -11.201  16.089  69.986  1.00  0.00    -0.362 A  
HETATM    9  C   UNL     1     -11.583  14.824  69.520  1.00  0.00    -0.339 A  
HETATM   10  C   UNL     1     -11.342  14.507  68.155  1.00  0.00    -0.319 A  
HETATM   11  C   UNL     1     -12.190  13.984  70.482  1.00  0.00    -0.365 A  
HETATM   12  N   UNL     1     -12.343  14.380  71.760  1.00  0.00    -0.336 NA 
HETATM   13  C   UNL     1     -10.710  15.408  67.287  1.00  0.00    -0.307 A  
HETATM   14  N   UNL     1     -11.375  16.487  71.246  1.00  0.00    -0.170 NA 
HETATM   15  C   UNL     1     -11.931  15.608  72.079  1.00  0.00    -0.457 A  
BRANCH  11  16
HETATM   16  N   UNL     1     -12.708  12.724  70.085  1.00  0.00     0.120 NA 
HETATM   17  H   UNL     1     -13.709  12.709  69.893  1.00  0.00     0.000 HD 
BRANCH  16  18
HETATM   18  C   UNL     1     -12.047  11.482  69.914  1.00  0.00    -0.316 A  
HETATM   19  C   UNL     1     -11.872  10.640  71.027  1.00  0.00    -0.396 A  
HETATM   20  C   UNL     1     -10.521   9.111  69.722  1.00  0.00    -0.234 A  
HETATM   21  C   UNL     1     -11.112   9.465  70.933  1.00  0.00    -0.389 A  
HETATM   22  C   UNL     1     -11.431  11.106  68.713  1.00  0.00    -0.366 A  
HETATM   23  C   UNL     1     -10.687   9.928  68.609  1.00  0.00    -0.256 A  
BRANCH  21  24
HETATM   24  C   UNL     1     -10.902   8.636  72.082  1.00  0.00    -0.424 C  
HETATM   25  C   UNL     1     -10.700   7.904  73.012  1.00  0.00    -0.408 C  
ENDBRANCH  21  24
ENDBRANCH  16  18
ENDBRANCH  11  16
BRANCH  13  26
HETATM   26  O   UNL     1     -10.530  14.893  66.023  1.00  0.00    -0.290 OA 
BRANCH  26  27
HETATM   27  C   UNL     1     -11.697  14.557  65.273  1.00  0.00    -0.361 C  
BRANCH  27  28
HETATM   28  C   UNL     1     -11.389  13.484  64.233  1.00  0.00    -0.375 C  
BRANCH  28  29
HETATM   29  O   UNL     1     -11.036  12.287  64.932  1.00  0.00    -0.295 OA 
HETATM   30  C   UNL     1     -10.939  11.169  64.064  1.00  0.00    -0.197 C  
ENDBRANCH  28  29
ENDBRANCH  27  28
ENDBRANCH  26  27
ENDBRANCH  13  26
ENDBRANCH   5   6
ENDBRANCH   4   5
ENDBRANCH   3   4
ENDBRANCH   2   3
TORSDOF 11
ENDMDL
MODEL       55
REMARK 921   NORMALIZED FREE ENERGY PREDICTED BY IDOCK:   -5.28 KCAL/MOL
REMARK 922        TOTAL FREE ENERGY PREDICTED BY IDOCK:   -9.81 KCAL/MOL
REMARK 923 INTER-LIGAND FREE ENERGY PREDICTED BY IDOCK:   -8.89 KCAL/MOL
REMARK 924 INTRA-LIGAND FREE ENERGY PREDICTED BY IDOCK:   -0.92 KCAL/MOL
REMARK 927      BINDING AFFINITY PREDICTED BY RF-SCORE:    0.00 PKD
ROOT
HETATM    1  C   UNL     1     -10.445  17.662  66.354  1.00  0.00    -0.286 C  
HETATM    2  O   UNL     1     -10.490  17.023  65.083  1.00  0.00    -0.667 OA 
ENDROOT
BRANCH   2   3
HETATM    3  C   UNL     1     -10.681  15.618  65.224  1.00  0.00    -0.425 C  
BRANCH   3   4
HETATM    4  C   UNL     1     -10.246  15.164  66.614  1.00  0.00    -0.266 C  
BRANCH   4   5
HETATM    5  O   UNL     1     -10.291  13.741  66.617  1.00  0.00    -0.271 OA 
BRANCH   5   6
HETATM    6  C   UNL     1     -10.888  13.068  67.639  1.00  0.00    -0.239 A  
HETATM    7  C   UNL     1     -11.474  13.716  68.733  1.00  0.00    -0.346 A  
HETATM    8  C   UNL     1     -12.062  13.023  69.780  1.00  0.00    -0.258 A  
HETATM    9  C   UNL     1     -12.113  11.623  69.738  1.00  0.00    -0.357 A  
HETATM   10  C   UNL     1     -11.545  10.962  68.615  1.00  0.00    -0.373 A  
HETATM   11  C   UNL     1     -12.747  11.009  70.842  1.00  0.00    -0.358 A  
HETATM   12  N   UNL     1     -13.225  11.736  71.869  1.00  0.00    -0.450 NA 
HETATM   13  C   UNL     1     -10.918  11.668  67.579  1.00  0.00    -0.259 A  
HETATM   14  N   UNL     1     -12.558  13.743  70.786  1.00  0.00    -0.346 NA 
HETATM   15  C   UNL     1     -13.110  13.063  71.791  1.00  0.00    -0.373 A  
BRANCH  11  16
HETATM   16  N   UNL     1     -12.943   9.603  70.845  1.00  0.00    -0.543 NA 
HETATM   17  H   UNL     1     -13.731   9.276  70.287  1.00  0.00     0.000 HD 
BRANCH  16  18
HETATM   18  C   UNL     1     -12.211   8.584  71.502  1.00  0.00    -0.311 A  
HETATM   19  C   UNL     1     -10.891   8.845  71.913  1.00  0.00    -0.433 A  
HETATM   20  C   UNL     1     -10.590   6.539  72.590  1.00  0.00    -0.248 A  
HETATM   21  C   UNL     1     -10.086   7.830  72.449  1.00  0.00    -0.284 A  
HETATM   22  C   UNL     1     -12.687   7.274  71.645  1.00  0.00    -0.410 A  
HETATM   23  C   UNL     1     -11.895   6.262  72.195  1.00  0.00    -0.365 A  
BRANCH  21  24
HETATM   24  C   UNL     1      -8.729   8.094  72.824  1.00  0.00    -0.281 C  
HETATM   25  C   UNL     1      -7.607   8.367  73.155  1.00  0.00    -0.116 C  
ENDBRANCH  21  24
ENDBRANCH  16  18
ENDBRANCH  11  16
BRANCH  13  26
HETATM   26  O   UNL     1     -10.395  10.841  66.611  1.00  0.00    -0.225 OA 
BRANCH  26  27
HETATM   27  C   UNL     1      -8.984  10.877  66.400  1.00  0.00    -0.175 C  
BRANCH  27  28
HETATM   28  C   UNL     1      -8.231  10.815  67.725  1.00  0.00    -0.112 C  
BRANCH  28  29
HETATM   29  O   UNL     1      -6.830  10.850  67.433  1.00  0.00    -0.073 OA 
HETATM   30  C   UNL     1      -6.040  10.887  68.610  1.00  0.00    -0.043 C  
ENDBRANCH  28  29
ENDBRANCH  27  28
ENDBRANCH  26  27
ENDBRANCH  13  26
ENDBRANCH   5   6
ENDBRANCH   4   5
ENDBRANCH   3   4
ENDBRANCH   2   3
TORSDOF 11
ENDMDL
MODEL       56
REMARK 921   NORMALIZED FREE ENERGY PREDICTED BY IDOCK:   -5.24 KCAL/MOL
REMARK 922        TOTAL FREE ENERGY PREDICTED BY IDOCK:   -9.74 KCAL/MOL
REMARK 923 INTER-LIGAND FREE ENERGY PREDICTED BY IDOCK:   -9.06 KCAL/MOL
REMARK 924 INTRA-LIGAND FREE ENERGY PREDICTED BY IDOCK:   -0.68 KCAL/MOL
REMARK 927      BINDING AFFINITY PREDICTED BY RF-SCORE:    0.00 PKD
ROOT
HETATM    1  C   UNL     1      -7.179  19.029  67.175  1.00  0.00    -0.208 C  
HETATM    2  O   UNL     1      -8.062  18.927  66.064  1.00  0.00    -0.431 OA 
ENDROOT
BRANCH   2   3
HETATM    3  C   UNL     1      -9.320  19.532  66.352  1.00  0.00    -0.379 C  
BRANCH   3   4
HETATM    4  C   UNL     1     -10.385  18.459  66.562  1.00  0.00    -0.400 C  
BRANCH   4   5
HETATM    5  O   UNL     1     -10.318  17.586  65.439  1.00  0.00    -0.629 OA 
BRANCH   5   6
HETATM    6  C   UNL     1     -10.709  16.287  65.547  1.00  0.00    -0.313 A  
HETATM    7  C   UNL     1     -11.377  15.609  64.520  1.00  0.00    -0.327 A  
HETATM    8  C   UNL     1     -11.791  14.291  64.644  1.00  0.00    -0.448 A  
HETATM    9  C   UNL     1     -11.504  13.587  65.821  1.00  0.00    -0.331 A  
HETATM   10  C   UNL     1     -10.800  14.261  66.856  1.00  0.00    -0.298 A  
HETATM   11  C   UNL     1     -11.952  12.246  65.846  1.00  0.00    -0.287 A  
HETATM   12  N   UNL     1     -12.638  11.717  64.815  1.00  0.00    -0.080 NA 
HETATM   13  C   UNL     1     -10.420  15.605  66.737  1.00  0.00    -0.297 A  
HETATM   14  N   UNL     1     -12.449  13.759  63.615  1.00  0.00    -0.781 NA 
HETATM   15  C   UNL     1     -12.851  12.496  63.753  1.00  0.00    -0.196 A  
BRANCH  11  16
HETATM   16  N   UNL     1     -11.619  11.417  66.949  1.00  0.00    -0.483 NA 
HETATM   17  H   UNL     1     -12.165  11.582  67.794  1.00  0.00     0.000 HD 
BRANCH  16  18
HETATM   18  C   UNL     1     -10.646  10.393  67.055  1.00  0.00    -0.245 A  
HETATM   19  C   UNL     1     -10.406   9.802  68.308  1.00  0.00    -0.231 A  
HETATM   20  C   UNL     1      -8.551   8.529  67.411  1.00  0.00    -0.127 A  
HETATM   21  C   UNL     1      -9.365   8.880  68.486  1.00  0.00    -0.141 A  
HETATM   22  C   UNL     1      -9.804  10.030  65.995  1.00  0.00    -0.321 A  
HETATM   23  C   UNL     1      -8.775   9.099  66.163  1.00  0.00    -0.169 A  
BRANCH  21  24
HETATM   24  C   UNL     1      -9.100   8.316  69.776  1.00  0.00    -0.147 C  
HETATM   25  C   UNL     1      -8.887   7.894  70.880  1.00  0.00    -0.141 C  
ENDBRANCH  21  24
ENDBRANCH  16  18
ENDBRANCH  11  16
BRANCH  13  26
HETATM   26  O   UNL     1      -9.790  16.082  67.865  1.00  0.00    -0.224 OA 
BRANCH  26  27
HETATM   27  C   UNL     1     -10.029  15.399  69.095  1.00  0.00    -0.241 C  
BRANCH  27  28
HETATM   28  C   UNL     1     -11.025  16.164  69.961  1.00  0.00    -0.364 C  
BRANCH  28  29
HETATM   29  O   UNL     1     -12.303  15.539  69.814  1.00  0.00    -0.334 OA 
HETATM   30  C   UNL     1     -13.027  15.506  71.033  1.00  0.00    -0.489 C  
ENDBRANCH  28  29
ENDBRANCH  27  28
ENDBRANCH  26  27
ENDBRANCH  13  26
ENDBRANCH   5   6
ENDBRANCH   4   5
ENDBRANCH   3   4
ENDBRANCH   2   3
TORSDOF 11
ENDMDL
MODEL       57
REMARK 921   NORMALIZED FREE ENERGY PREDICTED BY IDOCK:   -5.22 KCAL/MOL
REMARK 922        TOTAL FREE ENERGY PREDICTED BY IDOCK:   -9.72 KCAL/MOL
REMARK 923 INTER-LIGAND FREE ENERGY PREDICTED BY IDOCK:   -8.44 KCAL/MOL
REMARK 924 INTRA-LIGAND FREE ENERGY PREDICTED BY IDOCK:   -1.28 KCAL/MOL
REMARK 927      BINDING AFFINITY PREDICTED BY RF-SCORE:    0.00 PKD
ROOT
HETATM    1  C   UNL     1     -12.408  12.347  63.580  1.00  0.00    -0.546 C  
HETATM    2  O   UNL     1     -13.114  12.658  64.776  1.00  0.00    -0.852 OA 
ENDROOT
BRANCH   2   3
HETATM    3  C   UNL     1     -12.221  13.085  65.800  1.00  0.00    -0.453 C  
BRANCH   3   4
HETATM    4  C   UNL     1     -11.299  11.939  66.207  1.00  0.00    -0.334 C  
BRANCH   4   5
HETATM    5  O   UNL     1     -10.722  12.296  67.457  1.00  0.00    -0.217 OA 
BRANCH   5   6
HETATM    6  C   UNL     1     -10.833  11.470  68.534  1.00  0.00    -0.215 A  
HETATM    7  C   UNL     1     -12.024  11.317  69.252  1.00  0.00    -0.411 A  
HETATM    8  C   UNL     1     -12.124  10.489  70.360  1.00  0.00    -0.329 A  
HETATM    9  C   UNL     1     -11.010   9.742  70.765  1.00  0.00    -0.406 A  
HETATM   10  C   UNL     1      -9.805   9.871  70.021  1.00  0.00    -0.291 A  
HETATM   11  C   UNL     1     -11.215   8.916  71.894  1.00  0.00    -0.377 A  
HETATM   12  N   UNL     1     -12.396   8.895  72.541  1.00  0.00    -0.313 NA 
HETATM   13  C   UNL     1      -9.702  10.740  68.926  1.00  0.00    -0.198 A  
HETATM   14  N   UNL     1     -13.299  10.449  70.987  1.00  0.00    -0.276 NA 
HETATM   15  C   UNL     1     -13.377   9.657  72.057  1.00  0.00    -0.457 A  
BRANCH  11  16
HETATM   16  N   UNL     1     -10.181   8.042  72.320  1.00  0.00    -0.236 NA 
HETATM   17  H   UNL     1      -9.355   8.502  72.699  1.00  0.00     0.000 HD 
BRANCH  16  18
HETATM   18  C   UNL     1     -10.122   6.627  72.299  1.00  0.00    -0.174 A  
HETATM   19  C   UNL     1      -9.758   5.973  71.109  1.00  0.00    -0.206 A  
HETATM   20  C   UNL     1     -10.225   3.809  72.091  1.00  0.00    -0.179 A  
HETATM   21  C   UNL     1      -9.812   4.576  71.003  1.00  0.00    -0.266 A  
HETATM   22  C   UNL     1     -10.545   5.830  73.372  1.00  0.00    -0.283 A  
HETATM   23  C   UNL     1     -10.584   4.436  73.279  1.00  0.00    -0.281 A  
BRANCH  21  24
HETATM   24  C   UNL     1      -9.481   3.921  69.773  1.00  0.00    -0.264 C  
HETATM   25  C   UNL     1      -9.150   3.388  68.750  1.00  0.00    -0.204 C  
ENDBRANCH  21  24
ENDBRANCH  16  18
ENDBRANCH  11  16
BRANCH  13  26
HETATM   26  O   UNL     1      -8.441  10.751  68.373  1.00  0.00    -0.123 OA 
BRANCH  26  27
HETATM   27  C   UNL     1      -8.134   9.748  67.405  1.00  0.00    -0.114 C  
BRANCH  27  28
HETATM   28  C   UNL     1      -7.883  10.368  66.035  1.00  0.00    -0.142 C  
BRANCH  28  29
HETATM   29  O   UNL     1      -8.732   9.705  65.093  1.00  0.00    -0.145 OA 
HETATM   30  C   UNL     1      -8.019   8.777  64.291  1.00  0.00    -0.146 C  
ENDBRANCH  28  29
ENDBRANCH  27  28
ENDBRANCH  26  27
ENDBRANCH  13  26
ENDBRANCH   5   6
ENDBRANCH   4   5
ENDBRANCH   3   4
ENDBRANCH   2   3
TORSDOF 11
ENDMDL
MODEL       58
REMARK 921   NORMALIZED FREE ENERGY PREDICTED BY IDOCK:   -5.21 KCAL/MOL
REMARK 922        TOTAL FREE ENERGY PREDICTED BY IDOCK:   -9.69 KCAL/MOL
REMARK 923 INTER-LIGAND FREE ENERGY PREDICTED BY IDOCK:   -8.45 KCAL/MOL
REMARK 924 INTRA-LIGAND FREE ENERGY PREDICTED BY IDOCK:   -1.24 KCAL/MOL
REMARK 927      BINDING AFFINITY PREDICTED BY RF-SCORE:    0.00 PKD
ROOT
HETATM    1  C   UNL     1      -5.792  10.332  64.072  1.00  0.00    -0.142 C  
HETATM    2  O   UNL     1      -5.737   8.914  64.170  1.00  0.00    -0.067 OA 
ENDROOT
BRANCH   2   3
HETATM    3  C   UNL     1      -6.683   8.429  65.118  1.00  0.00    -0.063 C  
BRANCH   3   4
HETATM    4  C   UNL     1      -8.078   8.392  64.499  1.00  0.00    -0.152 C  
BRANCH   4   5
HETATM    5  O   UNL     1      -9.006   8.594  65.558  1.00  0.00    -0.192 OA 
BRANCH   5   6
HETATM    6  C   UNL     1      -9.731   9.744  65.635  1.00  0.00    -0.288 A  
HETATM    7  C   UNL     1     -10.205  10.418  64.503  1.00  0.00    -0.281 A  
HETATM    8  C   UNL     1     -10.926  11.599  64.588  1.00  0.00    -0.301 A  
HETATM    9  C   UNL     1     -11.232  12.131  65.848  1.00  0.00    -0.384 A  
HETATM   10  C   UNL     1     -10.779  11.434  67.002  1.00  0.00    -0.304 A  
HETATM   11  C   UNL     1     -11.984  13.328  65.831  1.00  0.00    -0.419 A  
HETATM   12  N   UNL     1     -12.336  13.918  64.673  1.00  0.00    -0.567 NA 
HETATM   13  C   UNL     1     -10.017  10.261  66.906  1.00  0.00    -0.208 A  
HETATM   14  N   UNL     1     -11.295  12.172  63.443  1.00  0.00    -0.426 NA 
HETATM   15  C   UNL     1     -11.978  13.313  63.540  1.00  0.00    -0.474 A  
BRANCH  11  16
HETATM   16  N   UNL     1     -12.435  13.889  67.055  1.00  0.00    -0.476 NA 
HETATM   17  H   UNL     1     -13.375  13.614  67.336  1.00  0.00     0.000 HD 
BRANCH  16  18
HETATM   18  C   UNL     1     -11.778  14.774  67.946  1.00  0.00    -0.341 A  
HETATM   19  C   UNL     1     -11.473  16.078  67.517  1.00  0.00     0.051 A  
HETATM   20  C   UNL     1     -10.248  16.520  69.558  1.00  0.00    -0.217 A  
HETATM   21  C   UNL     1     -10.711  16.943  68.314  1.00  0.00    -0.377 A  
HETATM   22  C   UNL     1     -11.288  14.372  69.196  1.00  0.00    -0.308 A  
HETATM   23  C   UNL     1     -10.543  15.236  70.003  1.00  0.00    -0.288 A  
BRANCH  21  24
HETATM   24  C   UNL     1     -10.369  18.254  67.851  1.00  0.00    -0.417 C  
HETATM   25  C   UNL     1     -10.136  19.367  67.464  1.00  0.00    -0.507 C  
ENDBRANCH  21  24
ENDBRANCH  16  18
ENDBRANCH  11  16
BRANCH  13  26
HETATM   26  O   UNL     1      -9.641   9.769  68.135  1.00  0.00    -0.142 OA 
BRANCH  26  27
HETATM   27  C   UNL     1     -10.597   8.994  68.859  1.00  0.00    -0.180 C  
BRANCH  27  28
HETATM   28  C   UNL     1     -10.921   9.639  70.202  1.00  0.00    -0.275 C  
BRANCH  28  29
HETATM   29  O   UNL     1     -12.084  10.453  70.027  1.00  0.00    -0.267 OA 
HETATM   30  C   UNL     1     -12.688  10.797  71.263  1.00  0.00    -0.441 C  
ENDBRANCH  28  29
ENDBRANCH  27  28
ENDBRANCH  26  27
ENDBRANCH  13  26
ENDBRANCH   5   6
ENDBRANCH   4   5
ENDBRANCH   3   4
ENDBRANCH   2   3
TORSDOF 11
ENDMDL
MODEL       59
REMARK 921   NORMALIZED FREE ENERGY PREDICTED BY IDOCK:   -5.20 KCAL/MOL
REMARK 922        TOTAL FREE ENERGY PREDICTED BY IDOCK:   -9.68 KCAL/MOL
REMARK 923 INTER-LIGAND FREE ENERGY PREDICTED BY IDOCK:   -8.58 KCAL/MOL
REMARK 924 INTRA-LIGAND FREE ENERGY PREDICTED BY IDOCK:   -1.10 KCAL/MOL
REMARK 927      BINDING AFFINITY PREDICTED BY RF-SCORE:    0.00 PKD
ROOT
HETATM    1  C   UNL     1     -12.136  12.950  63.525  1.00  0.00    -0.555 C  
HETATM    2  O   UNL     1     -12.594  14.185  64.062  1.00  0.00    -0.691 OA 
ENDROOT
BRANCH   2   3
HETATM    3  C   UNL     1     -12.466  14.205  65.480  1.00  0.00    -0.476 C  
BRANCH   3   4
HETATM    4  C   UNL     1     -12.019  12.837  65.988  1.00  0.00    -0.432 C  
BRANCH   4   5
HETATM    5  O   UNL     1     -11.233  13.065  67.153  1.00  0.00    -0.265 OA 
BRANCH   5   6
HETATM    6  C   UNL     1     -11.120  12.106  68.112  1.00  0.00    -0.248 A  
HETATM    7  C   UNL     1     -12.082  11.916  69.111  1.00  0.00    -0.261 A  
HETATM    8  C   UNL     1     -11.949  10.950  70.097  1.00  0.00    -0.352 A  
HETATM    9  C   UNL     1     -10.836  10.100  70.084  1.00  0.00    -0.368 A  
HETATM   10  C   UNL     1      -9.871  10.269  69.054  1.00  0.00    -0.215 A  
HETATM   11  C   UNL     1     -10.799   9.138  71.120  1.00  0.00    -0.311 A  
HETATM   12  N   UNL     1     -11.758   9.088  72.064  1.00  0.00    -0.361 NA 
HETATM   13  C   UNL     1      -9.993  11.273  68.084  1.00  0.00    -0.181 A  
HETATM   14  N   UNL     1     -12.910  10.883  71.019  1.00  0.00    -0.380 NA 
HETATM   15  C   UNL     1     -12.764   9.958  71.967  1.00  0.00    -0.366 A  
BRANCH  11  16
HETATM   16  N   UNL     1      -9.768   8.162  71.134  1.00  0.00    -0.159 NA 
HETATM   17  H   UNL     1      -8.843   8.515  71.377  1.00  0.00     0.000 HD 
BRANCH  16  18
HETATM   18  C   UNL     1      -9.828   6.774  70.862  1.00  0.00    -0.186 A  
HETATM   19  C   UNL     1     -10.104   5.881  71.912  1.00  0.00    -0.222 A  
HETATM   20  C   UNL     1      -9.715   3.977  70.467  1.00  0.00    -0.258 A  
HETATM   21  C   UNL     1     -10.045   4.493  71.718  1.00  0.00    -0.254 A  
HETATM   22  C   UNL     1      -9.487   6.225  69.618  1.00  0.00    -0.157 A  
HETATM   23  C   UNL     1      -9.443   4.843  69.414  1.00  0.00    -0.218 A  
BRANCH  21  24
HETATM   24  C   UNL     1     -10.286   3.592  72.805  1.00  0.00    -0.239 C  
HETATM   25  C   UNL     1     -10.432   2.835  73.725  1.00  0.00    -0.235 C  
ENDBRANCH  21  24
ENDBRANCH  16  18
ENDBRANCH  11  16
BRANCH  13  26
HETATM   26  O   UNL     1      -8.932  11.297  67.206  1.00  0.00    -0.146 OA 
BRANCH  26  27
HETATM   27  C   UNL     1      -8.729  10.150  66.382  1.00  0.00    -0.130 C  
BRANCH  27  28
HETATM   28  C   UNL     1      -9.809  10.048  65.310  1.00  0.00    -0.318 C  
BRANCH  28  29
HETATM   29  O   UNL     1      -9.163   9.769  64.064  1.00  0.00    -0.261 OA 
HETATM   30  C   UNL     1      -9.436  10.760  63.086  1.00  0.00    -0.336 C  
ENDBRANCH  28  29
ENDBRANCH  27  28
ENDBRANCH  26  27
ENDBRANCH  13  26
ENDBRANCH   5   6
ENDBRANCH   4   5
ENDBRANCH   3   4
ENDBRANCH   2   3
TORSDOF 11
ENDMDL
MODEL       60
REMARK 921   NORMALIZED FREE ENERGY PREDICTED BY IDOCK:   -5.19 KCAL/MOL
REMARK 922        TOTAL FREE ENERGY PREDICTED BY IDOCK:   -9.67 KCAL/MOL
REMARK 923 INTER-LIGAND FREE ENERGY PREDICTED BY IDOCK:   -8.10 KCAL/MOL
REMARK 924 INTRA-LIGAND FREE ENERGY PREDICTED BY IDOCK:   -1.56 KCAL/MOL
REMARK 927      BINDING AFFINITY PREDICTED BY RF-SCORE:    0.00 PKD
ROOT
HETATM    1  C   UNL     1      -8.357  16.093  66.827  1.00  0.00    -0.264 C  
HETATM    2  O   UNL     1      -9.262  16.374  65.766  1.00  0.00    -0.464 OA 
ENDROOT
BRANCH   2   3
HETATM    3  C   UNL     1     -10.578  16.604  66.262  1.00  0.00    -0.205 C  
BRANCH   3   4
HETATM    4  C   UNL     1     -10.771  15.887  67.595  1.00  0.00    -0.312 C  
BRANCH   4   5
HETATM    5  O   UNL     1     -11.613  14.767  67.343  1.00  0.00    -0.353 OA 
BRANCH   5   6
HETATM    6  C   UNL     1     -11.428  13.596  68.012  1.00  0.00    -0.310 A  
HETATM    7  C   UNL     1     -12.184  13.235  69.133  1.00  0.00    -0.168 A  
HETATM    8  C   UNL     1     -11.976  12.050  69.821  1.00  0.00    -0.300 A  
HETATM    9  C   UNL     1     -11.002  11.151  69.367  1.00  0.00    -0.298 A  
HETATM   10  C   UNL     1     -10.251  11.498  68.211  1.00  0.00    -0.205 A  
HETATM   11  C   UNL     1     -10.876   9.964  70.125  1.00  0.00    -0.304 A  
HETATM   12  N   UNL     1     -11.624   9.752  71.225  1.00  0.00    -0.373 NA 
HETATM   13  C   UNL     1     -10.441  12.717  67.545  1.00  0.00    -0.221 A  
HETATM   14  N   UNL     1     -12.732  11.827  70.896  1.00  0.00    -0.283 NA 
HETATM   15  C   UNL     1     -12.513  10.689  71.555  1.00  0.00    -0.366 A  
BRANCH  11  16
HETATM   16  N   UNL     1      -9.992   8.943  69.687  1.00  0.00    -0.186 NA 
HETATM   17  H   UNL     1      -9.004   9.121  69.866  1.00  0.00     0.000 HD 
BRANCH  16  18
HETATM   18  C   UNL     1     -10.272   7.715  69.039  1.00  0.00    -0.206 A  
HETATM   19  C   UNL     1      -9.916   6.510  69.670  1.00  0.00    -0.186 A  
HETATM   20  C   UNL     1     -10.558   5.234  67.714  1.00  0.00    -0.109 A  
HETATM   21  C   UNL     1     -10.055   5.280  69.013  1.00  0.00    -0.272 A  
HETATM   22  C   UNL     1     -10.764   7.640  67.728  1.00  0.00    -0.215 A  
HETATM   23  C   UNL     1     -10.921   6.415  67.074  1.00  0.00    -0.463 A  
BRANCH  21  24
HETATM   24  C   UNL     1      -9.650   4.061  69.647  1.00  0.00    -0.270 C  
HETATM   25  C   UNL     1      -9.364   3.029  70.189  1.00  0.00    -0.229 C  
ENDBRANCH  21  24
ENDBRANCH  16  18
ENDBRANCH  11  16
BRANCH  13  26
HETATM   26  O   UNL     1      -9.585  12.879  66.478  1.00  0.00    -0.250 OA 
BRANCH  26  27
HETATM   27  C   UNL     1      -9.981  12.331  65.221  1.00  0.00    -0.230 C  
BRANCH  27  28
HETATM   28  C   UNL     1     -10.451  13.426  64.270  1.00  0.00    -0.305 C  
BRANCH  28  29
HETATM   29  O   UNL     1     -11.867  13.560  64.423  1.00  0.00    -0.379 OA 
HETATM   30  C   UNL     1     -12.513  12.303  64.547  1.00  0.00    -0.377 C  
ENDBRANCH  28  29
ENDBRANCH  27  28
ENDBRANCH  26  27
ENDBRANCH  13  26
ENDBRANCH   5   6
ENDBRANCH   4   5
ENDBRANCH   3   4
ENDBRANCH   2   3
TORSDOF 11
ENDMDL
MODEL       61
REMARK 921   NORMALIZED FREE ENERGY PREDICTED BY IDOCK:   -5.19 KCAL/MOL
REMARK 922        TOTAL FREE ENERGY PREDICTED BY IDOCK:   -9.66 KCAL/MOL
REMARK 923 INTER-LIGAND FREE ENERGY PREDICTED BY IDOCK:   -8.54 KCAL/MOL
REMARK 924 INTRA-LIGAND FREE ENERGY PREDICTED BY IDOCK:   -1.12 KCAL/MOL
REMARK 927      BINDING AFFINITY PREDICTED BY RF-SCORE:    0.00 PKD
ROOT
HETATM    1  C   UNL     1      -9.103   7.868  73.365  1.00  0.00    -0.283 C  
HETATM    2  O   UNL     1      -9.903   6.806  72.858  1.00  0.00    -0.160 OA 
ENDROOT
BRANCH   2   3
HETATM    3  C   UNL     1     -11.085   7.306  72.240  1.00  0.00    -0.260 C  
BRANCH   3   4
HETATM    4  C   UNL     1     -10.877   8.752  71.798  1.00  0.00    -0.345 C  
BRANCH   4   5
HETATM    5  O   UNL     1     -11.855   9.024  70.800  1.00  0.00    -0.274 OA 
BRANCH   5   6
HETATM    6  C   UNL     1     -11.594   9.903  69.794  1.00  0.00    -0.083 A  
HETATM    7  C   UNL     1     -10.837   9.560  68.667  1.00  0.00    -0.177 A  
HETATM    8  C   UNL     1     -10.558  10.467  67.655  1.00  0.00    -0.257 A  
HETATM    9  C   UNL     1     -11.077  11.766  67.731  1.00  0.00    -0.302 A  
HETATM   10  C   UNL     1     -11.870  12.110  68.859  1.00  0.00    -0.358 A  
HETATM   11  C   UNL     1     -10.750  12.611  66.645  1.00  0.00    -0.253 A  
HETATM   12  N   UNL     1      -9.963  12.186  65.639  1.00  0.00    -0.247 NA 
HETATM   13  C   UNL     1     -12.115  11.200  69.896  1.00  0.00    -0.344 A  
HETATM   14  N   UNL     1      -9.798  10.041  66.647  1.00  0.00    -0.193 NA 
HETATM   15  C   UNL     1      -9.528  10.926  65.687  1.00  0.00    -0.215 A  
BRANCH  11  16
HETATM   16  N   UNL     1     -11.314  13.912  66.575  1.00  0.00    -0.321 NA 
HETATM   17  H   UNL     1     -12.172  13.982  66.030  1.00  0.00     0.000 HD 
BRANCH  16  18
HETATM   18  C   UNL     1     -10.866  15.128  67.148  1.00  0.00    -0.320 A  
HETATM   19  C   UNL     1      -9.769  15.794  66.572  1.00  0.00    -0.285 A  
HETATM   20  C   UNL     1      -9.745  17.418  68.368  1.00  0.00    -0.304 A  
HETATM   21  C   UNL     1      -9.210  16.928  67.178  1.00  0.00    -0.238 A  
HETATM   22  C   UNL     1     -11.374  15.637  68.350  1.00  0.00    -0.365 A  
HETATM   23  C   UNL     1     -10.832  16.777  68.950  1.00  0.00    -0.301 A  
BRANCH  21  24
HETATM   24  C   UNL     1      -8.066  17.574  66.608  1.00  0.00    -0.289 C  
HETATM   25  C   UNL     1      -7.090  18.128  66.182  1.00  0.00    -0.316 C  
ENDBRANCH  21  24
ENDBRANCH  16  18
ENDBRANCH  11  16
BRANCH  13  26
HETATM   26  O   UNL     1     -12.867  11.742  70.915  1.00  0.00    -0.263 OA 
BRANCH  26  27
HETATM   27  C   UNL     1     -12.804  13.155  71.104  1.00  0.00    -0.264 C  
BRANCH  27  28
HETATM   28  C   UNL     1     -13.679  13.591  72.275  1.00  0.00    -0.602 C  
BRANCH  28  29
HETATM   29  O   UNL     1     -14.303  14.828  71.917  1.00  0.00    -0.472 OA 
HETATM   30  C   UNL     1     -13.729  15.933  72.596  1.00  0.00    -0.447 C  
ENDBRANCH  28  29
ENDBRANCH  27  28
ENDBRANCH  26  27
ENDBRANCH  13  26
ENDBRANCH   5   6
ENDBRANCH   4   5
ENDBRANCH   3   4
ENDBRANCH   2   3
TORSDOF 11
ENDMDL
MODEL       62
REMARK 921   NORMALIZED FREE ENERGY PREDICTED BY IDOCK:   -5.19 KCAL/MOL
REMARK 922        TOTAL FREE ENERGY PREDICTED BY IDOCK:   -9.66 KCAL/MOL
REMARK 923 INTER-LIGAND FREE ENERGY PREDICTED BY IDOCK:   -8.47 KCAL/MOL
REMARK 924 INTRA-LIGAND FREE ENERGY PREDICTED BY IDOCK:   -1.19 KCAL/MOL
REMARK 927      BINDING AFFINITY PREDICTED BY RF-SCORE:    0.00 PKD
ROOT
HETATM    1  C   UNL     1      -8.369   5.697  70.134  1.00  0.00    -0.118 C  
HETATM    2  O   UNL     1      -8.820   6.708  69.240  1.00  0.00    -0.133 OA 
ENDROOT
BRANCH   2   3
HETATM    3  C   UNL     1      -9.681   6.163  68.243  1.00  0.00    -0.121 C  
BRANCH   3   4
HETATM    4  C   UNL     1     -10.308   7.284  67.419  1.00  0.00    -0.260 C  
BRANCH   4   5
HETATM    5  O   UNL     1      -9.694   8.498  67.838  1.00  0.00    -0.152 OA 
BRANCH   5   6
HETATM    6  C   UNL     1     -10.220   9.701  67.479  1.00  0.00    -0.220 A  
HETATM    7  C   UNL     1     -10.342  10.107  66.145  1.00  0.00    -0.237 A  
HETATM    8  C   UNL     1     -10.860  11.343  65.788  1.00  0.00    -0.230 A  
HETATM    9  C   UNL     1     -11.318  12.214  66.786  1.00  0.00    -0.398 A  
HETATM   10  C   UNL     1     -11.223  11.794  68.141  1.00  0.00    -0.320 A  
HETATM   11  C   UNL     1     -11.843  13.442  66.322  1.00  0.00    -0.394 A  
HETATM   12  N   UNL     1     -11.856  13.747  65.010  1.00  0.00    -0.349 NA 
HETATM   13  C   UNL     1     -10.663  10.560  68.496  1.00  0.00    -0.224 A  
HETATM   14  N   UNL     1     -10.896  11.637  64.488  1.00  0.00    -0.312 NA 
HETATM   15  C   UNL     1     -11.386  12.833  64.160  1.00  0.00    -0.390 A  
BRANCH  11  16
HETATM   16  N   UNL     1     -12.428  14.347  67.245  1.00  0.00    -0.529 NA 
HETATM   17  H   UNL     1     -13.401  14.586  67.058  1.00  0.00     0.000 HD 
BRANCH  16  18
HETATM   18  C   UNL     1     -11.867  14.970  68.387  1.00  0.00    -0.270 A  
HETATM   19  C   UNL     1     -12.514  14.837  69.628  1.00  0.00    -0.179 A  
HETATM   20  C   UNL     1     -10.963  16.382  70.663  1.00  0.00    -0.099 A  
HETATM   21  C   UNL     1     -12.069  15.540  70.756  1.00  0.00    -0.435 A  
HETATM   22  C   UNL     1     -10.765  15.833  68.320  1.00  0.00    -0.281 A  
HETATM   23  C   UNL     1     -10.306  16.523  69.446  1.00  0.00    -0.298 A  
BRANCH  21  24
HETATM   24  C   UNL     1     -12.762  15.433  72.006  1.00  0.00    -0.455 C  
HETATM   25  C   UNL     1     -13.371  15.299  73.031  1.00  0.00    -0.610 C  
ENDBRANCH  21  24
ENDBRANCH  16  18
ENDBRANCH  11  16
BRANCH  13  26
HETATM   26  O   UNL     1     -10.624  10.364  69.858  1.00  0.00    -0.263 OA 
BRANCH  26  27
HETATM   27  C   UNL     1     -11.803   9.864  70.489  1.00  0.00    -0.270 C  
BRANCH  27  28
HETATM   28  C   UNL     1     -11.585   8.449  71.013  1.00  0.00    -0.275 C  
BRANCH  28  29
HETATM   29  O   UNL     1     -11.259   8.542  72.403  1.00  0.00    -0.359 OA 
HETATM   30  C   UNL     1      -9.878   8.323  72.645  1.00  0.00    -0.287 C  
ENDBRANCH  28  29
ENDBRANCH  27  28
ENDBRANCH  26  27
ENDBRANCH  13  26
ENDBRANCH   5   6
ENDBRANCH   4   5
ENDBRANCH   3   4
ENDBRANCH   2   3
TORSDOF 11
ENDMDL
MODEL       63
REMARK 921   NORMALIZED FREE ENERGY PREDICTED BY IDOCK:   -5.16 KCAL/MOL
REMARK 922        TOTAL FREE ENERGY PREDICTED BY IDOCK:   -9.62 KCAL/MOL
REMARK 923 INTER-LIGAND FREE ENERGY PREDICTED BY IDOCK:   -8.44 KCAL/MOL
REMARK 924 INTRA-LIGAND FREE ENERGY PREDICTED BY IDOCK:   -1.18 KCAL/MOL
REMARK 927      BINDING AFFINITY PREDICTED BY RF-SCORE:    0.00 PKD
ROOT
HETATM    1  C   UNL     1     -10.653  16.772  69.417  1.00  0.00    -0.318 C  
HETATM    2  O   UNL     1     -10.894  15.860  70.482  1.00  0.00    -0.316 OA 
ENDROOT
BRANCH   2   3
HETATM    3  C   UNL     1     -12.289  15.618  70.643  1.00  0.00    -0.413 C  
BRANCH   3   4
HETATM    4  C   UNL     1     -12.612  14.162  70.317  1.00  0.00    -0.306 C  
BRANCH   4   5
HETATM    5  O   UNL     1     -11.434  13.593  69.757  1.00  0.00    -0.251 OA 
BRANCH   5   6
HETATM    6  C   UNL     1     -11.416  13.166  68.465  1.00  0.00    -0.303 A  
HETATM    7  C   UNL     1     -11.890  13.946  67.403  1.00  0.00    -0.437 A  
HETATM    8  C   UNL     1     -11.887  13.496  66.091  1.00  0.00    -0.389 A  
HETATM    9  C   UNL     1     -11.360  12.232  65.796  1.00  0.00    -0.400 A  
HETATM   10  C   UNL     1     -10.850  11.448  66.867  1.00  0.00    -0.335 A  
HETATM   11  C   UNL     1     -11.387  11.870  64.429  1.00  0.00    -0.326 A  
HETATM   12  N   UNL     1     -11.923  12.684  63.500  1.00  0.00    -0.520 NA 
HETATM   13  C   UNL     1     -10.892  11.894  68.195  1.00  0.00    -0.221 A  
HETATM   14  N   UNL     1     -12.395  14.311  65.166  1.00  0.00    -0.428 NA 
HETATM   15  C   UNL     1     -12.397  13.861  63.911  1.00  0.00    -0.272 A  
BRANCH  11  16
HETATM   16  N   UNL     1     -10.781  10.656  64.014  1.00  0.00    -0.342 NA 
HETATM   17  H   UNL     1     -11.418   9.865  63.920  1.00  0.00     0.000 HD 
BRANCH  16  18
HETATM   18  C   UNL     1      -9.427  10.374  63.709  1.00  0.00    -0.305 A  
HETATM   19  C   UNL     1      -8.648   9.667  64.642  1.00  0.00    -0.201 A  
HETATM   20  C   UNL     1      -6.656   9.988  63.302  1.00  0.00    -0.134 A  
HETATM   21  C   UNL     1      -7.273   9.478  64.443  1.00  0.00    -0.111 A  
HETATM   22  C   UNL     1      -8.778  10.885  62.578  1.00  0.00    -0.332 A  
HETATM   23  C   UNL     1      -7.411  10.686  62.365  1.00  0.00    -0.150 A  
BRANCH  21  24
HETATM   24  C   UNL     1      -6.478   8.795  65.419  1.00  0.00    -0.067 C  
HETATM   25  C   UNL     1      -5.779   8.203  66.195  1.00  0.00    -0.040 C  
ENDBRANCH  21  24
ENDBRANCH  16  18
ENDBRANCH  11  16
BRANCH  13  26
HETATM   26  O   UNL     1     -10.391  10.969  69.083  1.00  0.00    -0.214 OA 
BRANCH  26  27
HETATM   27  C   UNL     1     -11.282   9.964  69.566  1.00  0.00    -0.177 C  
BRANCH  27  28
HETATM   28  C   UNL     1     -11.620  10.193  71.036  1.00  0.00    -0.376 C  
BRANCH  28  29
HETATM   29  O   UNL     1     -12.019   8.936  71.593  1.00  0.00    -0.301 OA 
HETATM   30  C   UNL     1     -13.344   8.972  72.099  1.00  0.00    -0.455 C  
ENDBRANCH  28  29
ENDBRANCH  27  28
ENDBRANCH  26  27
ENDBRANCH  13  26
ENDBRANCH   5   6
ENDBRANCH   4   5
ENDBRANCH   3   4
ENDBRANCH   2   3
TORSDOF 11
ENDMDL
MODEL       64
REMARK 921   NORMALIZED FREE ENERGY PREDICTED BY IDOCK:   -5.16 KCAL/MOL
REMARK 922        TOTAL FREE ENERGY PREDICTED BY IDOCK:   -9.62 KCAL/MOL
REMARK 923 INTER-LIGAND FREE ENERGY PREDICTED BY IDOCK:   -8.32 KCAL/MOL
REMARK 924 INTRA-LIGAND FREE ENERGY PREDICTED BY IDOCK:   -1.30 KCAL/MOL
REMARK 927      BINDING AFFINITY PREDICTED BY RF-SCORE:    0.00 PKD
ROOT
HETATM    1  C   UNL     1      -9.213  18.838  68.878  1.00  0.00    -0.241 C  
HETATM    2  O   UNL     1      -9.505  19.976  68.075  1.00  0.00    -0.345 OA 
ENDROOT
BRANCH   2   3
HETATM    3  C   UNL     1      -9.440  19.655  66.689  1.00  0.00    -0.375 C  
BRANCH   3   4
HETATM    4  C   UNL     1     -10.485  18.597  66.344  1.00  0.00    -0.418 C  
BRANCH   4   5
HETATM    5  O   UNL     1      -9.817  17.582  65.602  1.00  0.00    -0.543 OA 
BRANCH   5   6
HETATM    6  C   UNL     1      -9.279  16.503  66.233  1.00  0.00    -0.310 A  
HETATM    7  C   UNL     1      -7.916  16.405  66.538  1.00  0.00    -0.342 A  
HETATM    8  C   UNL     1      -7.371  15.293  67.162  1.00  0.00    -0.143 A  
HETATM    9  C   UNL     1      -8.209  14.236  67.542  1.00  0.00    -0.201 A  
HETATM   10  C   UNL     1      -9.599  14.343  67.261  1.00  0.00    -0.227 A  
HETATM   11  C   UNL     1      -7.563  13.156  68.186  1.00  0.00    -0.141 A  
HETATM   12  N   UNL     1      -6.230  13.148  68.374  1.00  0.00    -0.076 NA 
HETATM   13  C   UNL     1     -10.135  15.454  66.595  1.00  0.00    -0.265 A  
HETATM   14  N   UNL     1      -6.055  15.295  67.371  1.00  0.00    -0.332 NA 
HETATM   15  C   UNL     1      -5.543  14.215  67.961  1.00  0.00    -0.122 A  
BRANCH  11  16
HETATM   16  N   UNL     1      -8.337  12.085  68.704  1.00  0.00    -0.318 NA 
HETATM   17  H   UNL     1      -8.551  12.147  69.698  1.00  0.00     0.000 HD 
BRANCH  16  18
HETATM   18  C   UNL     1      -8.859  10.942  68.050  1.00  0.00    -0.135 A  
HETATM   19  C   UNL     1      -8.759  10.847  66.650  1.00  0.00    -0.156 A  
HETATM   20  C   UNL     1     -10.094   8.826  66.638  1.00  0.00    -0.358 A  
HETATM   21  C   UNL     1      -9.374   9.800  65.949  1.00  0.00    -0.260 A  
HETATM   22  C   UNL     1      -9.599   9.954  68.714  1.00  0.00    -0.160 A  
HETATM   23  C   UNL     1     -10.200   8.899  68.023  1.00  0.00    -0.262 A  
BRANCH  21  24
HETATM   24  C   UNL     1      -9.304   9.736  64.520  1.00  0.00    -0.298 C  
HETATM   25  C   UNL     1      -9.218   9.732  63.322  1.00  0.00    -0.219 C  
ENDBRANCH  21  24
ENDBRANCH  16  18
ENDBRANCH  11  16
BRANCH  13  26
HETATM   26  O   UNL     1     -11.491  15.342  66.381  1.00  0.00    -0.175 OA 
BRANCH  26  27
HETATM   27  C   UNL     1     -11.939  14.322  65.489  1.00  0.00    -0.385 C  
BRANCH  27  28
HETATM   28  C   UNL     1     -12.503  14.924  64.207  1.00  0.00    -0.157 C  
BRANCH  28  29
HETATM   29  O   UNL     1     -12.567  13.883  63.227  1.00  0.00    -0.824 OA 
HETATM   30  C   UNL     1     -11.725  12.789  63.553  1.00  0.00    -0.530 C  
ENDBRANCH  28  29
ENDBRANCH  27  28
ENDBRANCH  26  27
ENDBRANCH  13  26
ENDBRANCH   5   6
ENDBRANCH   4   5
ENDBRANCH   3   4
ENDBRANCH   2   3
TORSDOF 11
ENDMDL
MODEL       65
REMARK 921   NORMALIZED FREE ENERGY PREDICTED BY IDOCK:   -5.15 KCAL/MOL
REMARK 922        TOTAL FREE ENERGY PREDICTED BY IDOCK:   -9.60 KCAL/MOL
REMARK 923 INTER-LIGAND FREE ENERGY PREDICTED BY IDOCK:   -8.46 KCAL/MOL
REMARK 924 INTRA-LIGAND FREE ENERGY PREDICTED BY IDOCK:   -1.14 KCAL/MOL
REMARK 927      BINDING AFFINITY PREDICTED BY RF-SCORE:    0.00 PKD
ROOT
HETATM    1  C   UNL     1      -5.721   7.023  65.147  1.00  0.00    -0.032 C  
HETATM    2  O   UNL     1      -5.985   7.996  64.143  1.00  0.00    -0.055 OA 
ENDROOT
BRANCH   2   3
HETATM    3  C   UNL     1      -7.347   7.944  63.726  1.00  0.00    -0.103 C  
BRANCH   3   4
HETATM    4  C   UNL     1      -7.894   9.356  63.538  1.00  0.00    -0.130 C  
BRANCH   4   5
HETATM    5  O   UNL     1      -9.261   9.325  63.931  1.00  0.00    -0.080 OA 
BRANCH   5   6
HETATM    6  C   UNL     1      -9.774  10.296  64.735  1.00  0.00    -0.332 A  
HETATM    7  C   UNL     1     -10.771  11.183  64.311  1.00  0.00    -0.403 A  
HETATM    8  C   UNL     1     -11.275  12.183  65.129  1.00  0.00    -0.329 A  
HETATM    9  C   UNL     1     -10.806  12.300  66.444  1.00  0.00    -0.299 A  
HETATM   10  C   UNL     1      -9.815  11.383  66.889  1.00  0.00    -0.218 A  
HETATM   11  C   UNL     1     -11.391  13.339  67.204  1.00  0.00    -0.317 A  
HETATM   12  N   UNL     1     -12.305  14.170  66.667  1.00  0.00    -0.424 NA 
HETATM   13  C   UNL     1      -9.283  10.400  66.044  1.00  0.00    -0.167 A  
HETATM   14  N   UNL     1     -12.197  12.992  64.607  1.00  0.00    -0.401 NA 
HETATM   15  C   UNL     1     -12.663  13.956  65.400  1.00  0.00    -0.490 A  
BRANCH  11  16
HETATM   16  N   UNL     1     -11.061  13.473  68.578  1.00  0.00    -0.260 NA 
HETATM   17  H   UNL     1     -10.122  13.822  68.764  1.00  0.00     0.000 HD 
BRANCH  16  18
HETATM   18  C   UNL     1     -11.838  13.197  69.729  1.00  0.00    -0.316 A  
HETATM   19  C   UNL     1     -12.232  14.260  70.561  1.00  0.00    -0.427 A  
HETATM   20  C   UNL     1     -13.168  12.718  72.178  1.00  0.00    -0.546 A  
HETATM   21  C   UNL     1     -12.889  14.023  71.778  1.00  0.00    -0.424 A  
HETATM   22  C   UNL     1     -12.122  11.895  70.164  1.00  0.00    -0.382 A  
HETATM   23  C   UNL     1     -12.791  11.654  71.367  1.00  0.00    -0.461 A  
BRANCH  21  24
HETATM   24  C   UNL     1     -13.248  15.110  72.639  1.00  0.00    -0.536 C  
HETATM   25  C   UNL     1     -13.562  16.051  73.315  1.00  0.00    -0.473 C  
ENDBRANCH  21  24
ENDBRANCH  16  18
ENDBRANCH  11  16
BRANCH  13  26
HETATM   26  O   UNL     1      -8.305   9.645  66.653  1.00  0.00    -0.122 OA 
BRANCH  26  27
HETATM   27  C   UNL     1      -8.723   8.645  67.582  1.00  0.00    -0.136 C  
BRANCH  27  28
HETATM   28  C   UNL     1      -9.286   7.427  66.857  1.00  0.00    -0.157 C  
BRANCH  28  29
HETATM   29  O   UNL     1     -10.536   7.093  67.470  1.00  0.00    -0.208 OA 
HETATM   30  C   UNL     1     -10.422   5.985  68.348  1.00  0.00    -0.238 C  
ENDBRANCH  28  29
ENDBRANCH  27  28
ENDBRANCH  26  27
ENDBRANCH  13  26
ENDBRANCH   5   6
ENDBRANCH   4   5
ENDBRANCH   3   4
ENDBRANCH   2   3
TORSDOF 11
ENDMDL
MODEL       66
REMARK 921   NORMALIZED FREE ENERGY PREDICTED BY IDOCK:   -5.11 KCAL/MOL
REMARK 922        TOTAL FREE ENERGY PREDICTED BY IDOCK:   -9.53 KCAL/MOL
REMARK 923 INTER-LIGAND FREE ENERGY PREDICTED BY IDOCK:   -8.43 KCAL/MOL
REMARK 924 INTRA-LIGAND FREE ENERGY PREDICTED BY IDOCK:   -1.10 KCAL/MOL
REMARK 927      BINDING AFFINITY PREDICTED BY RF-SCORE:    0.00 PKD
ROOT
HETATM    1  C   UNL     1      -9.552   6.234  67.835  1.00  0.00    -0.118 C  
HETATM    2  O   UNL     1      -8.161   6.400  68.084  1.00  0.00    -0.111 OA 
ENDROOT
BRANCH   2   3
HETATM    3  C   UNL     1      -7.657   7.558  67.424  1.00  0.00    -0.109 C  
BRANCH   3   4
HETATM    4  C   UNL     1      -7.572   8.726  68.402  1.00  0.00    -0.095 C  
BRANCH   4   5
HETATM    5  O   UNL     1      -8.553   9.674  67.999  1.00  0.00    -0.119 OA 
BRANCH   5   6
HETATM    6  C   UNL     1      -9.577  10.009  68.831  1.00  0.00    -0.181 A  
HETATM    7  C   UNL     1      -9.943   9.229  69.935  1.00  0.00    -0.226 A  
HETATM    8  C   UNL     1     -11.000   9.566  70.767  1.00  0.00    -0.321 A  
HETATM    9  C   UNL     1     -11.715  10.748  70.529  1.00  0.00    -0.449 A  
HETATM   10  C   UNL     1     -11.328  11.559  69.427  1.00  0.00    -0.355 A  
HETATM   11  C   UNL     1     -12.763  11.013  71.440  1.00  0.00    -0.429 A  
HETATM   12  N   UNL     1     -13.060  10.155  72.435  1.00  0.00    -0.235 NA 
HETATM   13  C   UNL     1     -10.284  11.191  68.568  1.00  0.00    -0.198 A  
HETATM   14  N   UNL     1     -11.280   8.731  71.766  1.00  0.00    -0.315 NA 
HETATM   15  C   UNL     1     -12.306   9.061  72.550  1.00  0.00    -0.206 A  
BRANCH  11  16
HETATM   16  N   UNL     1     -13.478  12.235  71.349  1.00  0.00     0.085 NA 
HETATM   17  H   UNL     1     -14.438  12.151  71.017  1.00  0.00     0.000 HD 
BRANCH  16  18
HETATM   18  C   UNL     1     -13.062  13.556  71.650  1.00  0.00    -0.374 A  
HETATM   19  C   UNL     1     -12.367  14.294  70.676  1.00  0.00    -0.431 A  
HETATM   20  C   UNL     1     -11.974  16.095  72.246  1.00  0.00    -0.637 A  
HETATM   21  C   UNL     1     -11.823  15.552  70.971  1.00  0.00    -0.427 A  
HETATM   22  C   UNL     1     -13.187  14.122  72.926  1.00  0.00    -0.553 A  
HETATM   23  C   UNL     1     -12.662  15.383  73.221  1.00  0.00    -0.626 A  
BRANCH  21  24
HETATM   24  C   UNL     1     -11.079  16.278  69.986  1.00  0.00    -0.351 C  
HETATM   25  C   UNL     1     -10.414  16.893  69.198  1.00  0.00    -0.335 C  
ENDBRANCH  21  24
ENDBRANCH  16  18
ENDBRANCH  11  16
BRANCH  13  26
HETATM   26  O   UNL     1     -10.099  12.088  67.540  1.00  0.00    -0.192 OA 
BRANCH  26  27
HETATM   27  C   UNL     1     -10.975  11.997  66.417  1.00  0.00    -0.296 C  
BRANCH  27  28
HETATM   28  C   UNL     1     -10.207  11.626  65.152  1.00  0.00    -0.274 C  
BRANCH  28  29
HETATM   29  O   UNL     1     -10.203  10.199  65.047  1.00  0.00    -0.309 OA 
HETATM   30  C   UNL     1      -9.089   9.719  64.312  1.00  0.00    -0.246 C  
ENDBRANCH  28  29
ENDBRANCH  27  28
ENDBRANCH  26  27
ENDBRANCH  13  26
ENDBRANCH   5   6
ENDBRANCH   4   5
ENDBRANCH   3   4
ENDBRANCH   2   3
TORSDOF 11
ENDMDL
MODEL       67
REMARK 921   NORMALIZED FREE ENERGY PREDICTED BY IDOCK:   -5.11 KCAL/MOL
REMARK 922        TOTAL FREE ENERGY PREDICTED BY IDOCK:   -9.52 KCAL/MOL
REMARK 923 INTER-LIGAND FREE ENERGY PREDICTED BY IDOCK:   -8.02 KCAL/MOL
REMARK 924 INTRA-LIGAND FREE ENERGY PREDICTED BY IDOCK:   -1.50 KCAL/MOL
REMARK 927      BINDING AFFINITY PREDICTED BY RF-SCORE:    0.00 PKD
ROOT
HETATM    1  C   UNL     1      -8.763   4.659  71.709  1.00  0.00    -0.122 C  
HETATM    2  O   UNL     1      -8.466   4.976  73.064  1.00  0.00    -0.110 OA 
ENDROOT
BRANCH   2   3
HETATM    3  C   UNL     1      -7.334   5.836  73.152  1.00  0.00    -0.095 C  
BRANCH   3   4
HETATM    4  C   UNL     1      -7.184   6.643  71.865  1.00  0.00    -0.085 C  
BRANCH   4   5
HETATM    5  O   UNL     1      -7.518   7.990  72.180  1.00  0.00    -0.081 OA 
BRANCH   5   6
HETATM    6  C   UNL     1      -8.655   8.555  71.689  1.00  0.00    -0.187 A  
HETATM    7  C   UNL     1      -9.901   8.414  72.311  1.00  0.00    -0.383 A  
HETATM    8  C   UNL     1     -11.058   8.977  71.793  1.00  0.00    -0.374 A  
HETATM    9  C   UNL     1     -10.988   9.748  70.626  1.00  0.00    -0.398 A  
HETATM   10  C   UNL     1      -9.719   9.919  70.007  1.00  0.00    -0.274 A  
HETATM   11  C   UNL     1     -12.217  10.292  70.186  1.00  0.00    -0.176 A  
HETATM   12  N   UNL     1     -13.367  10.039  70.839  1.00  0.00    -0.325 NA 
HETATM   13  C   UNL     1      -8.561   9.315  70.514  1.00  0.00    -0.233 A  
HETATM   14  N   UNL     1     -12.194   8.747  72.451  1.00  0.00    -0.358 NA 
HETATM   15  C   UNL     1     -13.301   9.284  71.936  1.00  0.00    -0.429 A  
BRANCH  11  16
HETATM   16  N   UNL     1     -12.235  11.174  69.075  1.00  0.00    -0.579 NA 
HETATM   17  H   UNL     1     -12.480  10.742  68.184  1.00  0.00     0.000 HD 
BRANCH  16  18
HETATM   18  C   UNL     1     -11.966  12.563  69.013  1.00  0.00    -0.233 A  
HETATM   19  C   UNL     1     -11.980  13.318  70.199  1.00  0.00    -0.388 A  
HETATM   20  C   UNL     1     -11.692  15.376  68.956  1.00  0.00    -0.380 A  
HETATM   21  C   UNL     1     -11.848  14.714  70.171  1.00  0.00    -0.365 A  
HETATM   22  C   UNL     1     -11.820  13.258  67.804  1.00  0.00    -0.394 A  
HETATM   23  C   UNL     1     -11.670  14.647  67.771  1.00  0.00    -0.386 A  
BRANCH  21  24
HETATM   24  C   UNL     1     -11.907  15.478  71.381  1.00  0.00    -0.461 C  
HETATM   25  C   UNL     1     -11.942  16.073  72.423  1.00  0.00    -0.644 C  
ENDBRANCH  21  24
ENDBRANCH  16  18
ENDBRANCH  11  16
BRANCH  13  26
HETATM   26  O   UNL     1      -7.447   9.567  69.745  1.00  0.00    -0.074 OA 
BRANCH  26  27
HETATM   27  C   UNL     1      -7.359  10.840  69.106  1.00  0.00    -0.115 C  
BRANCH  27  28
HETATM   28  C   UNL     1      -6.531  10.755  67.827  1.00  0.00    -0.059 C  
BRANCH  28  29
HETATM   29  O   UNL     1      -7.252  11.434  66.794  1.00  0.00    -0.138 OA 
HETATM   30  C   UNL     1      -8.355  12.165  67.303  1.00  0.00    -0.179 C  
ENDBRANCH  28  29
ENDBRANCH  27  28
ENDBRANCH  26  27
ENDBRANCH  13  26
ENDBRANCH   5   6
ENDBRANCH   4   5
ENDBRANCH   3   4
ENDBRANCH   2   3
TORSDOF 11
ENDMDL
MODEL       68
REMARK 921   NORMALIZED FREE ENERGY PREDICTED BY IDOCK:   -5.09 KCAL/MOL
REMARK 922        TOTAL FREE ENERGY PREDICTED BY IDOCK:   -9.49 KCAL/MOL
REMARK 923 INTER-LIGAND FREE ENERGY PREDICTED BY IDOCK:   -8.47 KCAL/MOL
REMARK 924 INTRA-LIGAND FREE ENERGY PREDICTED BY IDOCK:   -1.02 KCAL/MOL
REMARK 927      BINDING AFFINITY PREDICTED BY RF-SCORE:    0.00 PKD
ROOT
HETATM    1  C   UNL     1     -13.247  15.806  72.993  1.00  0.00    -0.573 C  
HETATM    2  O   UNL     1     -12.400  15.967  71.861  1.00  0.00    -0.447 OA 
ENDROOT
BRANCH   2   3
HETATM    3  C   UNL     1     -12.962  15.345  70.709  1.00  0.00    -0.453 C  
BRANCH   3   4
HETATM    4  C   UNL     1     -11.878  14.607  69.928  1.00  0.00    -0.319 C  
BRANCH   4   5
HETATM    5  O   UNL     1     -12.459  13.397  69.456  1.00  0.00    -0.175 OA 
BRANCH   5   6
HETATM    6  C   UNL     1     -11.804  12.618  68.551  1.00  0.00    -0.300 A  
HETATM    7  C   UNL     1     -11.755  12.922  67.185  1.00  0.00    -0.437 A  
HETATM    8  C   UNL     1     -11.103  12.114  66.267  1.00  0.00    -0.310 A  
HETATM    9  C   UNL     1     -10.432  10.967  66.711  1.00  0.00    -0.302 A  
HETATM   10  C   UNL     1     -10.454  10.670  68.102  1.00  0.00    -0.215 A  
HETATM   11  C   UNL     1      -9.784  10.217  65.703  1.00  0.00    -0.247 A  
HETATM   12  N   UNL     1      -9.855  10.578  64.407  1.00  0.00    -0.322 NA 
HETATM   13  C   UNL     1     -11.148  11.471  69.018  1.00  0.00    -0.245 A  
HETATM   14  N   UNL     1     -11.151  12.483  64.987  1.00  0.00    -0.290 NA 
HETATM   15  C   UNL     1     -10.530  11.690  64.114  1.00  0.00    -0.351 A  
BRANCH  11  16
HETATM   16  N   UNL     1      -8.989   9.098  66.063  1.00  0.00    -0.168 NA 
HETATM   17  H   UNL     1      -8.003   9.301  66.222  1.00  0.00     0.000 HD 
BRANCH  16  18
HETATM   18  C   UNL     1      -9.357   7.741  66.236  1.00  0.00    -0.151 A  
HETATM   19  C   UNL     1      -8.650   6.745  65.538  1.00  0.00    -0.095 A  
HETATM   20  C   UNL     1     -10.179   5.037  66.320  1.00  0.00    -0.306 A  
HETATM   21  C   UNL     1      -9.059   5.404  65.577  1.00  0.00    -0.126 A  
HETATM   22  C   UNL     1     -10.486   7.343  66.965  1.00  0.00    -0.404 A  
HETATM   23  C   UNL     1     -10.889   6.006  67.021  1.00  0.00    -0.413 A  
BRANCH  21  24
HETATM   24  C   UNL     1      -8.360   4.404  64.828  1.00  0.00    -0.109 C  
HETATM   25  C   UNL     1      -7.753   3.606  64.167  1.00  0.00    -0.080 C  
ENDBRANCH  21  24
ENDBRANCH  16  18
ENDBRANCH  11  16
BRANCH  13  26
HETATM   26  O   UNL     1     -11.083  10.987  70.306  1.00  0.00    -0.208 OA 
BRANCH  26  27
HETATM   27  C   UNL     1     -10.805   9.597  70.477  1.00  0.00    -0.309 C  
BRANCH  27  28
HETATM   28  C   UNL     1     -11.320   9.098  71.823  1.00  0.00    -0.381 C  
BRANCH  28  29
HETATM   29  O   UNL     1     -12.539   8.386  71.588  1.00  0.00    -0.311 OA 
HETATM   30  C   UNL     1     -13.683   9.188  71.835  1.00  0.00    -0.424 C  
ENDBRANCH  28  29
ENDBRANCH  27  28
ENDBRANCH  26  27
ENDBRANCH  13  26
ENDBRANCH   5   6
ENDBRANCH   4   5
ENDBRANCH   3   4
ENDBRANCH   2   3
TORSDOF 11
ENDMDL
MODEL       69
REMARK 921   NORMALIZED FREE ENERGY PREDICTED BY IDOCK:   -5.08 KCAL/MOL
REMARK 922        TOTAL FREE ENERGY PREDICTED BY IDOCK:   -9.49 KCAL/MOL
REMARK 923 INTER-LIGAND FREE ENERGY PREDICTED BY IDOCK:   -8.36 KCAL/MOL
REMARK 924 INTRA-LIGAND FREE ENERGY PREDICTED BY IDOCK:   -1.13 KCAL/MOL
REMARK 927      BINDING AFFINITY PREDICTED BY RF-SCORE:    0.00 PKD
ROOT
HETATM    1  C   UNL     1      -5.311  18.511  64.914  1.00  0.00    -0.166 C  
HETATM    2  O   UNL     1      -5.922  19.349  65.888  1.00  0.00    -0.170 OA 
ENDROOT
BRANCH   2   3
HETATM    3  C   UNL     1      -5.615  18.909  67.207  1.00  0.00    -0.156 C  
BRANCH   3   4
HETATM    4  C   UNL     1      -6.782  19.206  68.146  1.00  0.00    -0.239 C  
BRANCH   4   5
HETATM    5  O   UNL     1      -6.832  18.143  69.092  1.00  0.00    -0.264 OA 
BRANCH   5   6
HETATM    6  C   UNL     1      -7.465  16.976  68.791  1.00  0.00    -0.242 A  
HETATM    7  C   UNL     1      -6.776  15.811  68.431  1.00  0.00    -0.116 A  
HETATM    8  C   UNL     1      -7.428  14.632  68.106  1.00  0.00    -0.123 A  
HETATM    9  C   UNL     1      -8.827  14.576  68.172  1.00  0.00    -0.177 A  
HETATM   10  C   UNL     1      -9.529  15.748  68.566  1.00  0.00    -0.201 A  
HETATM   11  C   UNL     1      -9.397  13.327  67.838  1.00  0.00    -0.214 A  
HETATM   12  N   UNL     1      -8.633  12.288  67.450  1.00  0.00    -0.169 NA 
HETATM   13  C   UNL     1      -8.865  16.947  68.855  1.00  0.00    -0.216 A  
HETATM   14  N   UNL     1      -6.671  13.596  67.745  1.00  0.00    -0.158 NA 
HETATM   15  C   UNL     1      -7.312  12.472  67.424  1.00  0.00    -0.147 A  
BRANCH  11  16
HETATM   16  N   UNL     1     -10.797  13.137  67.976  1.00  0.00    -0.235 NA 
HETATM   17  H   UNL     1     -11.339  13.282  67.124  1.00  0.00     0.000 HD 
BRANCH  16  18
HETATM   18  C   UNL     1     -11.558  12.775  69.115  1.00  0.00    -0.319 A  
HETATM   19  C   UNL     1     -12.132  13.787  69.905  1.00  0.00    -0.412 A  
HETATM   20  C   UNL     1     -12.872  12.162  71.541  1.00  0.00    -0.394 A  
HETATM   21  C   UNL     1     -12.781  13.484  71.111  1.00  0.00    -0.425 A  
HETATM   22  C   UNL     1     -11.655  11.456  69.579  1.00  0.00    -0.399 A  
HETATM   23  C   UNL     1     -12.316  11.146  70.771  1.00  0.00    -0.504 A  
BRANCH  21  24
HETATM   24  C   UNL     1     -13.324  14.524  71.931  1.00  0.00    -0.450 C  
HETATM   25  C   UNL     1     -13.741  15.431  72.598  1.00  0.00    -0.640 C  
ENDBRANCH  21  24
ENDBRANCH  16  18
ENDBRANCH  11  16
BRANCH  13  26
HETATM   26  O   UNL     1      -9.728  17.972  69.170  1.00  0.00    -0.231 OA 
BRANCH  26  27
HETATM   27  C   UNL     1     -10.475  18.561  68.106  1.00  0.00    -0.325 C  
BRANCH  27  28
HETATM   28  C   UNL     1     -10.233  20.065  68.034  1.00  0.00    -0.398 C  
BRANCH  28  29
HETATM   29  O   UNL     1      -9.976  20.402  66.667  1.00  0.00    -0.444 OA 
HETATM   30  C   UNL     1     -10.661  19.545  65.768  1.00  0.00    -0.427 C  
ENDBRANCH  28  29
ENDBRANCH  27  28
ENDBRANCH  26  27
ENDBRANCH  13  26
ENDBRANCH   5   6
ENDBRANCH   4   5
ENDBRANCH   3   4
ENDBRANCH   2   3
TORSDOF 11
ENDMDL
MODEL       70
REMARK 921   NORMALIZED FREE ENERGY PREDICTED BY IDOCK:   -5.05 KCAL/MOL
REMARK 922        TOTAL FREE ENERGY PREDICTED BY IDOCK:   -9.44 KCAL/MOL
REMARK 923 INTER-LIGAND FREE ENERGY PREDICTED BY IDOCK:   -8.11 KCAL/MOL
REMARK 924 INTRA-LIGAND FREE ENERGY PREDICTED BY IDOCK:   -1.32 KCAL/MOL
REMARK 927      BINDING AFFINITY PREDICTED BY RF-SCORE:    0.00 PKD
ROOT
HETATM    1  C   UNL     1      -9.676  20.397  66.211  1.00  0.00    -0.228 C  
HETATM    2  O   UNL     1      -9.213  20.735  67.513  1.00  0.00    -0.325 OA 
ENDROOT
BRANCH   2   3
HETATM    3  C   UNL     1      -9.289  19.615  68.391  1.00  0.00    -0.351 C  
BRANCH   3   4
HETATM    4  C   UNL     1      -9.501  18.333  67.590  1.00  0.00    -0.272 C  
BRANCH   4   5
HETATM    5  O   UNL     1      -9.818  17.309  68.527  1.00  0.00    -0.276 OA 
BRANCH   5   6
HETATM    6  C   UNL     1     -10.073  16.040  68.107  1.00  0.00    -0.234 A  
HETATM    7  C   UNL     1     -11.027  15.743  67.127  1.00  0.00    -0.244 A  
HETATM    8  C   UNL     1     -11.296  14.445  66.719  1.00  0.00    -0.352 A  
HETATM    9  C   UNL     1     -10.566  13.384  67.271  1.00  0.00    -0.256 A  
HETATM   10  C   UNL     1      -9.575  13.683  68.245  1.00  0.00    -0.215 A  
HETATM   11  C   UNL     1     -10.901  12.101  66.780  1.00  0.00    -0.248 A  
HETATM   12  N   UNL     1     -11.882  11.932  65.873  1.00  0.00    -0.448 NA 
HETATM   13  C   UNL     1      -9.337  14.994  68.680  1.00  0.00    -0.202 A  
HETATM   14  N   UNL     1     -12.250  14.278  65.804  1.00  0.00    -0.413 NA 
HETATM   15  C   UNL     1     -12.506  13.025  65.430  1.00  0.00    -0.476 A  
BRANCH  11  16
HETATM   16  N   UNL     1     -10.148  10.972  67.197  1.00  0.00    -0.188 NA 
HETATM   17  H   UNL     1      -9.544  10.567  66.483  1.00  0.00     0.000 HD 
BRANCH  16  18
HETATM   18  C   UNL     1     -10.107  10.323  68.455  1.00  0.00    -0.165 A  
HETATM   19  C   UNL     1     -11.273  10.272  69.239  1.00  0.00    -0.281 A  
HETATM   20  C   UNL     1     -10.056   9.275  71.080  1.00  0.00    -0.374 A  
HETATM   21  C   UNL     1     -11.248   9.755  70.542  1.00  0.00    -0.381 A  
HETATM   22  C   UNL     1      -8.920   9.844  69.027  1.00  0.00    -0.160 A  
HETATM   23  C   UNL     1      -8.893   9.312  70.320  1.00  0.00    -0.254 A  
BRANCH  21  24
HETATM   24  C   UNL     1     -12.432   9.747  71.349  1.00  0.00    -0.482 C  
HETATM   25  C   UNL     1     -13.391   9.751  72.070  1.00  0.00    -0.547 C  
ENDBRANCH  21  24
ENDBRANCH  16  18
ENDBRANCH  11  16
BRANCH  13  26
HETATM   26  O   UNL     1      -8.370  15.063  69.658  1.00  0.00    -0.154 OA 
BRANCH  26  27
HETATM   27  C   UNL     1      -7.073  14.557  69.344  1.00  0.00    -0.140 C  
BRANCH  27  28
HETATM   28  C   UNL     1      -6.016  15.651  69.457  1.00  0.00    -0.130 C  
BRANCH  28  29
HETATM   29  O   UNL     1      -6.568  16.850  68.906  1.00  0.00    -0.170 OA 
HETATM   30  C   UNL     1      -6.210  17.027  67.545  1.00  0.00    -0.147 C  
ENDBRANCH  28  29
ENDBRANCH  27  28
ENDBRANCH  26  27
ENDBRANCH  13  26
ENDBRANCH   5   6
ENDBRANCH   4   5
ENDBRANCH   3   4
ENDBRANCH   2   3
TORSDOF 11
ENDMDL
MODEL       71
REMARK 921   NORMALIZED FREE ENERGY PREDICTED BY IDOCK:   -5.05 KCAL/MOL
REMARK 922        TOTAL FREE ENERGY PREDICTED BY IDOCK:   -9.43 KCAL/MOL
REMARK 923 INTER-LIGAND FREE ENERGY PREDICTED BY IDOCK:   -8.22 KCAL/MOL
REMARK 924 INTRA-LIGAND FREE ENERGY PREDICTED BY IDOCK:   -1.20 KCAL/MOL
REMARK 927      BINDING AFFINITY PREDICTED BY RF-SCORE:    0.00 PKD
ROOT
HETATM    1  C   UNL     1      -7.430   6.291  63.241  1.00  0.00    -0.071 C  
HETATM    2  O   UNL     1      -8.298   5.799  64.256  1.00  0.00    -0.126 OA 
ENDROOT
BRANCH   2   3
HETATM    3  C   UNL     1      -8.205   6.591  65.437  1.00  0.00    -0.135 C  
BRANCH   3   4
HETATM    4  C   UNL     1      -8.425   8.064  65.102  1.00  0.00    -0.100 C  
BRANCH   4   5
HETATM    5  O   UNL     1      -7.983   8.814  66.228  1.00  0.00    -0.103 OA 
BRANCH   5   6
HETATM    6  C   UNL     1      -8.832   9.087  67.256  1.00  0.00    -0.117 A  
HETATM    7  C   UNL     1      -8.623   8.612  68.557  1.00  0.00    -0.135 A  
HETATM    8  C   UNL     1      -9.503   8.878  69.595  1.00  0.00    -0.168 A  
HETATM    9  C   UNL     1     -10.627   9.680  69.359  1.00  0.00    -0.243 A  
HETATM   10  C   UNL     1     -10.828  10.189  68.046  1.00  0.00    -0.320 A  
HETATM   11  C   UNL     1     -11.455   9.906  70.483  1.00  0.00    -0.318 A  
HETATM   12  N   UNL     1     -11.182   9.348  71.677  1.00  0.00    -0.382 NA 
HETATM   13  C   UNL     1      -9.954   9.884  66.993  1.00  0.00    -0.200 A  
HETATM   14  N   UNL     1      -9.222   8.345  70.784  1.00  0.00    -0.152 NA 
HETATM   15  C   UNL     1     -10.083   8.598  71.770  1.00  0.00    -0.310 A  
BRANCH  11  16
HETATM   16  N   UNL     1     -12.559  10.791  70.373  1.00  0.00    -0.332 NA 
HETATM   17  H   UNL     1     -13.353  10.427  69.846  1.00  0.00     0.000 HD 
BRANCH  16  18
HETATM   18  C   UNL     1     -12.728  12.102  70.883  1.00  0.00    -0.189 A  
HETATM   19  C   UNL     1     -12.098  13.177  70.232  1.00  0.00    -0.399 A  
HETATM   20  C   UNL     1     -12.798  14.710  71.971  1.00  0.00    -0.403 A  
HETATM   21  C   UNL     1     -12.129  14.470  70.773  1.00  0.00    -0.398 A  
HETATM   22  C   UNL     1     -13.383  12.370  72.092  1.00  0.00    -0.508 A  
HETATM   23  C   UNL     1     -13.432  13.660  72.628  1.00  0.00    -0.608 A  
BRANCH  21  24
HETATM   24  C   UNL     1     -11.447  15.551  70.125  1.00  0.00    -0.342 C  
HETATM   25  C   UNL     1     -10.829  16.442  69.611  1.00  0.00    -0.346 C  
ENDBRANCH  21  24
ENDBRANCH  16  18
ENDBRANCH  11  16
BRANCH  13  26
HETATM   26  O   UNL     1     -10.350  10.437  65.796  1.00  0.00    -0.248 OA 
BRANCH  26  27
HETATM   27  C   UNL     1     -10.274  11.856  65.664  1.00  0.00    -0.245 C  
BRANCH  27  28
HETATM   28  C   UNL     1     -11.574  12.425  65.106  1.00  0.00    -0.362 C  
BRANCH  28  29
HETATM   29  O   UNL     1     -12.396  12.804  66.213  1.00  0.00    -0.521 OA 
HETATM   30  C   UNL     1     -11.953  14.006  66.822  1.00  0.00    -0.444 C  
ENDBRANCH  28  29
ENDBRANCH  27  28
ENDBRANCH  26  27
ENDBRANCH  13  26
ENDBRANCH   5   6
ENDBRANCH   4   5
ENDBRANCH   3   4
ENDBRANCH   2   3
TORSDOF 11
ENDMDL
MODEL       72
REMARK 921   NORMALIZED FREE ENERGY PREDICTED BY IDOCK:   -5.05 KCAL/MOL
REMARK 922        TOTAL FREE ENERGY PREDICTED BY IDOCK:   -9.43 KCAL/MOL
REMARK 923 INTER-LIGAND FREE ENERGY PREDICTED BY IDOCK:   -8.47 KCAL/MOL
REMARK 924 INTRA-LIGAND FREE ENERGY PREDICTED BY IDOCK:   -0.96 KCAL/MOL
REMARK 927      BINDING AFFINITY PREDICTED BY RF-SCORE:    0.00 PKD
ROOT
HETATM    1  C   UNL     1     -10.665   6.130  66.821  1.00  0.00    -0.299 C  
HETATM    2  O   UNL     1     -11.010   7.027  67.871  1.00  0.00    -0.196 OA 
ENDROOT
BRANCH   2   3
HETATM    3  C   UNL     1     -10.062   8.085  67.973  1.00  0.00    -0.194 C  
BRANCH   3   4
HETATM    4  C   UNL     1     -10.489   9.261  67.099  1.00  0.00    -0.249 C  
BRANCH   4   5
HETATM    5  O   UNL     1     -10.273  10.443  67.862  1.00  0.00    -0.165 OA 
BRANCH   5   6
HETATM    6  C   UNL     1     -10.271  11.665  67.262  1.00  0.00    -0.201 A  
HETATM    7  C   UNL     1     -11.305  12.099  66.424  1.00  0.00    -0.411 A  
HETATM    8  C   UNL     1     -11.287  13.338  65.800  1.00  0.00    -0.307 A  
HETATM    9  C   UNL     1     -10.219  14.213  66.037  1.00  0.00    -0.318 A  
HETATM   10  C   UNL     1      -9.181  13.789  66.911  1.00  0.00    -0.263 A  
HETATM   11  C   UNL     1     -10.298  15.457  65.369  1.00  0.00    -0.394 A  
HETATM   12  N   UNL     1     -11.319  15.742  64.538  1.00  0.00    -0.392 NA 
HETATM   13  C   UNL     1      -9.188  12.520  67.507  1.00  0.00    -0.188 A  
HETATM   14  N   UNL     1     -12.308  13.631  64.995  1.00  0.00    -0.446 NA 
HETATM   15  C   UNL     1     -12.271  14.819  64.394  1.00  0.00    -0.428 A  
BRANCH  11  16
HETATM   16  N   UNL     1      -9.321  16.454  65.625  1.00  0.00    -0.461 NA 
HETATM   17  H   UNL     1      -8.378  16.226  65.311  1.00  0.00     0.000 HD 
BRANCH  16  18
HETATM   18  C   UNL     1      -9.455  17.718  66.251  1.00  0.00    -0.217 A  
HETATM   19  C   UNL     1      -8.325  18.546  66.371  1.00  0.00    -0.278 A  
HETATM   20  C   UNL     1      -9.569  20.139  67.705  1.00  0.00    -0.534 A  
HETATM   21  C   UNL     1      -8.379  19.745  67.096  1.00  0.00    -0.355 A  
HETATM   22  C   UNL     1     -10.634  18.134  66.884  1.00  0.00    -0.326 A  
HETATM   23  C   UNL     1     -10.699  19.337  67.593  1.00  0.00    -0.533 A  
BRANCH  21  24
HETATM   24  C   UNL     1      -7.212  20.561  67.250  1.00  0.00    -0.367 C  
HETATM   25  C   UNL     1      -6.234  21.253  67.324  1.00  0.00    -0.421 C  
ENDBRANCH  21  24
ENDBRANCH  16  18
ENDBRANCH  11  16
BRANCH  13  26
HETATM   26  O   UNL     1      -8.072  12.289  68.280  1.00  0.00    -0.154 OA 
BRANCH  26  27
HETATM   27  C   UNL     1      -7.336  13.423  68.736  1.00  0.00    -0.076 C  
BRANCH  27  28
HETATM   28  C   UNL     1      -5.862  13.080  68.923  1.00  0.00    -0.076 C  
BRANCH  28  29
HETATM   29  O   UNL     1      -5.178  14.279  69.301  1.00  0.00    -0.079 OA 
HETATM   30  C   UNL     1      -5.501  14.685  70.621  1.00  0.00    -0.141 C  
ENDBRANCH  28  29
ENDBRANCH  27  28
ENDBRANCH  26  27
ENDBRANCH  13  26
ENDBRANCH   5   6
ENDBRANCH   4   5
ENDBRANCH   3   4
ENDBRANCH   2   3
TORSDOF 11
ENDMDL
MODEL       73
REMARK 921   NORMALIZED FREE ENERGY PREDICTED BY IDOCK:   -5.04 KCAL/MOL
REMARK 922        TOTAL FREE ENERGY PREDICTED BY IDOCK:   -9.41 KCAL/MOL
REMARK 923 INTER-LIGAND FREE ENERGY PREDICTED BY IDOCK:   -8.02 KCAL/MOL
REMARK 924 INTRA-LIGAND FREE ENERGY PREDICTED BY IDOCK:   -1.39 KCAL/MOL
REMARK 927      BINDING AFFINITY PREDICTED BY RF-SCORE:    0.00 PKD
ROOT
HETATM    1  C   UNL     1      -7.790   6.809  72.745  1.00  0.00    -0.099 C  
HETATM    2  O   UNL     1      -8.361   5.578  73.175  1.00  0.00    -0.117 OA 
ENDROOT
BRANCH   2   3
HETATM    3  C   UNL     1      -8.593   4.708  72.071  1.00  0.00    -0.118 C  
BRANCH   3   4
HETATM    4  C   UNL     1     -10.088   4.439  71.919  1.00  0.00    -0.174 C  
BRANCH   4   5
HETATM    5  O   UNL     1     -10.491   5.034  70.690  1.00  0.00    -0.234 OA 
BRANCH   5   6
HETATM    6  C   UNL     1     -10.755   6.367  70.618  1.00  0.00    -0.257 A  
HETATM    7  C   UNL     1     -11.689   7.001  71.446  1.00  0.00    -0.344 A  
HETATM    8  C   UNL     1     -11.968   8.356  71.353  1.00  0.00    -0.297 A  
HETATM    9  C   UNL     1     -11.268   9.142  70.428  1.00  0.00    -0.279 A  
HETATM   10  C   UNL     1     -10.297   8.509  69.605  1.00  0.00    -0.218 A  
HETATM   11  C   UNL     1     -11.611  10.513  70.420  1.00  0.00    -0.342 A  
HETATM   12  N   UNL     1     -12.572  11.000  71.227  1.00  0.00    -0.406 NA 
HETATM   13  C   UNL     1     -10.049   7.131  69.678  1.00  0.00    -0.192 A  
HETATM   14  N   UNL     1     -12.902   8.844  72.169  1.00  0.00    -0.383 NA 
HETATM   15  C   UNL     1     -13.167  10.146  72.061  1.00  0.00    -0.430 A  
BRANCH  11  16
HETATM   16  N   UNL     1     -10.886  11.412  69.593  1.00  0.00    -0.456 NA 
HETATM   17  H   UNL     1      -9.873  11.371  69.696  1.00  0.00     0.000 HD 
BRANCH  16  18
HETATM   18  C   UNL     1     -11.355  12.356  68.647  1.00  0.00    -0.288 A  
HETATM   19  C   UNL     1     -11.545  11.954  67.314  1.00  0.00    -0.364 A  
HETATM   20  C   UNL     1     -12.043  14.227  66.643  1.00  0.00    -0.448 A  
HETATM   21  C   UNL     1     -11.882  12.882  66.318  1.00  0.00    -0.477 A  
HETATM   22  C   UNL     1     -11.511  13.717  68.942  1.00  0.00    -0.344 A  
HETATM   23  C   UNL     1     -11.865  14.644  67.958  1.00  0.00    -0.343 A  
BRANCH  21  24
HETATM   24  C   UNL     1     -12.031  12.471  64.954  1.00  0.00    -0.468 C  
HETATM   25  C   UNL     1     -12.191  12.086  63.828  1.00  0.00    -0.600 C  
ENDBRANCH  21  24
ENDBRANCH  16  18
ENDBRANCH  11  16
BRANCH  13  26
HETATM   26  O   UNL     1      -9.106   6.711  68.767  1.00  0.00    -0.132 OA 
BRANCH  26  27
HETATM   27  C   UNL     1      -7.928   7.503  68.620  1.00  0.00    -0.123 C  
BRANCH  27  28
HETATM   28  C   UNL     1      -6.696   6.624  68.436  1.00  0.00    -0.065 C  
BRANCH  28  29
HETATM   29  O   UNL     1      -6.009   6.567  69.690  1.00  0.00    -0.017 OA 
HETATM   30  C   UNL     1      -5.528   5.264  69.978  1.00  0.00    -0.004 C  
ENDBRANCH  28  29
ENDBRANCH  27  28
ENDBRANCH  26  27
ENDBRANCH  13  26
ENDBRANCH   5   6
ENDBRANCH   4   5
ENDBRANCH   3   4
ENDBRANCH   2   3
TORSDOF 11
ENDMDL
MODEL       74
REMARK 921   NORMALIZED FREE ENERGY PREDICTED BY IDOCK:   -5.03 KCAL/MOL
REMARK 922        TOTAL FREE ENERGY PREDICTED BY IDOCK:   -9.40 KCAL/MOL
REMARK 923 INTER-LIGAND FREE ENERGY PREDICTED BY IDOCK:   -8.47 KCAL/MOL
REMARK 924 INTRA-LIGAND FREE ENERGY PREDICTED BY IDOCK:   -0.94 KCAL/MOL
REMARK 927      BINDING AFFINITY PREDICTED BY RF-SCORE:    0.00 PKD
ROOT
HETATM    1  C   UNL     1     -12.356  12.546  63.671  1.00  0.00    -0.522 C  
HETATM    2  O   UNL     1     -12.691  13.280  64.843  1.00  0.00    -0.635 OA 
ENDROOT
BRANCH   2   3
HETATM    3  C   UNL     1     -11.829  14.403  65.008  1.00  0.00    -0.400 C  
BRANCH   3   4
HETATM    4  C   UNL     1     -10.419  13.937  65.362  1.00  0.00    -0.345 C  
BRANCH   4   5
HETATM    5  O   UNL     1     -10.393  13.734  66.770  1.00  0.00    -0.266 OA 
BRANCH   5   6
HETATM    6  C   UNL     1     -10.520  12.483  67.293  1.00  0.00    -0.220 A  
HETATM    7  C   UNL     1     -10.185  11.326  66.580  1.00  0.00    -0.268 A  
HETATM    8  C   UNL     1     -10.336  10.054  67.112  1.00  0.00    -0.241 A  
HETATM    9  C   UNL     1     -10.805   9.907  68.425  1.00  0.00    -0.263 A  
HETATM   10  C   UNL     1     -11.119  11.081  69.163  1.00  0.00    -0.301 A  
HETATM   11  C   UNL     1     -10.910   8.574  68.882  1.00  0.00     0.023 A  
HETATM   12  N   UNL     1     -10.612   7.533  68.082  1.00  0.00    -0.179 NA 
HETATM   13  C   UNL     1     -11.000  12.361  68.605  1.00  0.00    -0.247 A  
HETATM   14  N   UNL     1     -10.019   9.024  66.329  1.00  0.00    -0.295 NA 
HETATM   15  C   UNL     1     -10.180   7.807  66.850  1.00  0.00    -0.303 A  
BRANCH  11  16
HETATM   16  N   UNL     1     -11.274   8.322  70.231  1.00  0.00    -0.379 NA 
HETATM   17  H   UNL     1     -12.275   8.220  70.396  1.00  0.00     0.000 HD 
BRANCH  16  18
HETATM   18  C   UNL     1     -10.460   8.192  71.383  1.00  0.00    -0.212 A  
HETATM   19  C   UNL     1      -9.089   8.487  71.290  1.00  0.00    -0.250 A  
HETATM   20  C   UNL     1      -8.715   7.718  73.555  1.00  0.00    -0.296 A  
HETATM   21  C   UNL     1      -8.222   8.249  72.365  1.00  0.00    -0.214 A  
HETATM   22  C   UNL     1     -10.926   7.648  72.588  1.00  0.00    -0.405 A  
HETATM   23  C   UNL     1     -10.070   7.424  73.669  1.00  0.00    -0.376 A  
BRANCH  21  24
HETATM   24  C   UNL     1      -6.819   8.511  72.247  1.00  0.00    -0.093 C  
HETATM   25  C   UNL     1      -5.642   8.697  72.102  1.00  0.00    -0.054 C  
ENDBRANCH  21  24
ENDBRANCH  16  18
ENDBRANCH  11  16
BRANCH  13  26
HETATM   26  O   UNL     1     -11.395  13.358  69.468  1.00  0.00    -0.247 OA 
BRANCH  26  27
HETATM   27  C   UNL     1     -12.278  14.359  68.963  1.00  0.00    -0.198 C  
BRANCH  27  28
HETATM   28  C   UNL     1     -12.099  15.675  69.713  1.00  0.00    -0.326 C  
BRANCH  28  29
HETATM   29  O   UNL     1     -12.989  15.664  70.834  1.00  0.00    -0.482 OA 
HETATM   30  C   UNL     1     -12.315  15.923  72.055  1.00  0.00    -0.475 C  
ENDBRANCH  28  29
ENDBRANCH  27  28
ENDBRANCH  26  27
ENDBRANCH  13  26
ENDBRANCH   5   6
ENDBRANCH   4   5
ENDBRANCH   3   4
ENDBRANCH   2   3
TORSDOF 11
ENDMDL
MODEL       75
REMARK 921   NORMALIZED FREE ENERGY PREDICTED BY IDOCK:   -5.03 KCAL/MOL
REMARK 922        TOTAL FREE ENERGY PREDICTED BY IDOCK:   -9.40 KCAL/MOL
REMARK 923 INTER-LIGAND FREE ENERGY PREDICTED BY IDOCK:   -8.30 KCAL/MOL
REMARK 924 INTRA-LIGAND FREE ENERGY PREDICTED BY IDOCK:   -1.10 KCAL/MOL
REMARK 927      BINDING AFFINITY PREDICTED BY RF-SCORE:    0.00 PKD
ROOT
HETATM    1  C   UNL     1      -9.265   9.990  63.461  1.00  0.00    -0.277 C  
HETATM    2  O   UNL     1     -10.022  10.106  64.660  1.00  0.00    -0.328 OA 
ENDROOT
BRANCH   2   3
HETATM    3  C   UNL     1      -9.529   9.223  65.664  1.00  0.00    -0.256 C  
BRANCH   3   4
HETATM    4  C   UNL     1      -9.069  10.018  66.884  1.00  0.00    -0.139 C  
BRANCH   4   5
HETATM    5  O   UNL     1      -8.236  11.067  66.403  1.00  0.00    -0.158 OA 
BRANCH   5   6
HETATM    6  C   UNL     1      -8.217  12.277  67.025  1.00  0.00    -0.155 A  
HETATM    7  C   UNL     1      -7.110  12.741  67.746  1.00  0.00    -0.132 A  
HETATM    8  C   UNL     1      -7.105  13.967  68.395  1.00  0.00    -0.102 A  
HETATM    9  C   UNL     1      -8.228  14.800  68.303  1.00  0.00    -0.142 A  
HETATM   10  C   UNL     1      -9.344  14.346  67.547  1.00  0.00    -0.198 A  
HETATM   11  C   UNL     1      -8.121  16.035  68.984  1.00  0.00    -0.226 A  
HETATM   12  N   UNL     1      -7.022  16.349  69.696  1.00  0.00    -0.156 NA 
HETATM   13  C   UNL     1      -9.355  13.089  66.928  1.00  0.00    -0.241 A  
HETATM   14  N   UNL     1      -6.009  14.290  69.080  1.00  0.00    -0.089 NA 
HETATM   15  C   UNL     1      -6.023  15.466  69.708  1.00  0.00    -0.141 A  
BRANCH  11  16
HETATM   16  N   UNL     1      -9.162  16.993  68.865  1.00  0.00    -0.248 NA 
HETATM   17  H   UNL     1      -9.864  16.961  69.603  1.00  0.00     0.000 HD 
BRANCH  16  18
HETATM   18  C   UNL     1      -9.373  17.987  67.878  1.00  0.00    -0.264 A  
HETATM   19  C   UNL     1      -8.275  18.469  67.145  1.00  0.00    -0.256 A  
HETATM   20  C   UNL     1      -9.658  20.143  66.073  1.00  0.00    -0.380 A  
HETATM   21  C   UNL     1      -8.414  19.542  66.252  1.00  0.00    -0.370 A  
HETATM   22  C   UNL     1     -10.609  18.620  67.686  1.00  0.00    -0.458 A  
HETATM   23  C   UNL     1     -10.758  19.677  66.785  1.00  0.00    -0.562 A  
BRANCH  21  24
HETATM   24  C   UNL     1      -7.282  20.055  65.542  1.00  0.00    -0.307 C  
HETATM   25  C   UNL     1      -6.324  20.523  64.989  1.00  0.00    -0.325 C  
ENDBRANCH  21  24
ENDBRANCH  16  18
ENDBRANCH  11  16
BRANCH  13  26
HETATM   26  O   UNL     1     -10.544  12.823  66.285  1.00  0.00    -0.253 OA 
BRANCH  26  27
HETATM   27  C   UNL     1     -11.653  13.677  66.565  1.00  0.00    -0.366 C  
BRANCH  27  28
HETATM   28  C   UNL     1     -12.525  13.864  65.327  1.00  0.00    -0.478 C  
BRANCH  28  29
HETATM   29  O   UNL     1     -12.975  12.572  64.910  1.00  0.00    -0.821 OA 
HETATM   30  C   UNL     1     -12.589  12.276  63.577  1.00  0.00    -0.476 C  
ENDBRANCH  28  29
ENDBRANCH  27  28
ENDBRANCH  26  27
ENDBRANCH  13  26
ENDBRANCH   5   6
ENDBRANCH   4   5
ENDBRANCH   3   4
ENDBRANCH   2   3
TORSDOF 11
ENDMDL
MODEL       76
REMARK 921   NORMALIZED FREE ENERGY PREDICTED BY IDOCK:   -5.03 KCAL/MOL
REMARK 922        TOTAL FREE ENERGY PREDICTED BY IDOCK:   -9.39 KCAL/MOL
REMARK 923 INTER-LIGAND FREE ENERGY PREDICTED BY IDOCK:   -8.33 KCAL/MOL
REMARK 924 INTRA-LIGAND FREE ENERGY PREDICTED BY IDOCK:   -1.07 KCAL/MOL
REMARK 927      BINDING AFFINITY PREDICTED BY RF-SCORE:    0.00 PKD
ROOT
HETATM    1  C   UNL     1     -10.156  20.141  67.425  1.00  0.00    -0.416 C  
HETATM    2  O   UNL     1      -8.740  20.053  67.315  1.00  0.00    -0.319 OA 
ENDROOT
BRANCH   2   3
HETATM    3  C   UNL     1      -8.361  19.365  66.126  1.00  0.00    -0.300 C  
BRANCH   3   4
HETATM    4  C   UNL     1      -7.601  18.088  66.476  1.00  0.00    -0.245 C  
BRANCH   4   5
HETATM    5  O   UNL     1      -8.359  17.417  67.477  1.00  0.00    -0.202 OA 
BRANCH   5   6
HETATM    6  C   UNL     1      -9.201  16.401  67.144  1.00  0.00    -0.213 A  
HETATM    7  C   UNL     1     -10.019  16.436  66.009  1.00  0.00    -0.369 A  
HETATM    8  C   UNL     1     -10.889  15.405  65.687  1.00  0.00    -0.355 A  
HETATM    9  C   UNL     1     -10.936  14.263  66.498  1.00  0.00    -0.316 A  
HETATM   10  C   UNL     1     -10.085  14.210  67.635  1.00  0.00    -0.236 A  
HETATM   11  C   UNL     1     -11.842  13.262  66.079  1.00  0.00    -0.395 A  
HETATM   12  N   UNL     1     -12.623  13.433  64.995  1.00  0.00    -0.617 NA 
HETATM   13  C   UNL     1      -9.236  15.273  67.975  1.00  0.00    -0.188 A  
HETATM   14  N   UNL     1     -11.646  15.563  64.601  1.00  0.00    -0.346 NA 
HETATM   15  C   UNL     1     -12.487  14.569  64.311  1.00  0.00    -0.264 A  
BRANCH  11  16
HETATM   16  N   UNL     1     -11.887  12.024  66.771  1.00  0.00    -0.614 NA 
HETATM   17  H   UNL     1     -12.691  11.902  67.386  1.00  0.00     0.000 HD 
BRANCH  16  18
HETATM   18  C   UNL     1     -10.986  10.931  66.739  1.00  0.00    -0.185 A  
HETATM   19  C   UNL     1     -10.239  10.693  65.572  1.00  0.00    -0.329 A  
HETATM   20  C   UNL     1      -9.359   8.633  66.491  1.00  0.00    -0.257 A  
HETATM   21  C   UNL     1      -9.434   9.552  65.446  1.00  0.00    -0.336 A  
HETATM   22  C   UNL     1     -10.900   9.983  67.768  1.00  0.00    -0.337 A  
HETATM   23  C   UNL     1     -10.086   8.853  67.656  1.00  0.00    -0.274 A  
BRANCH  21  24
HETATM   24  C   UNL     1      -8.710   9.296  64.238  1.00  0.00    -0.204 C  
HETATM   25  C   UNL     1      -8.088   9.031  63.246  1.00  0.00    -0.170 C  
ENDBRANCH  21  24
ENDBRANCH  16  18
ENDBRANCH  11  16
BRANCH  13  26
HETATM   26  O   UNL     1      -8.531  15.041  69.135  1.00  0.00    -0.195 OA 
BRANCH  26  27
HETATM   27  C   UNL     1      -7.262  14.398  69.021  1.00  0.00    -0.129 C  
BRANCH  27  28
HETATM   28  C   UNL     1      -6.278  14.941  70.052  1.00  0.00    -0.156 C  
BRANCH  28  29
HETATM   29  O   UNL     1      -5.962  13.878  70.956  1.00  0.00    -0.205 OA 
HETATM   30  C   UNL     1      -5.879  12.624  70.299  1.00  0.00    -0.156 C  
ENDBRANCH  28  29
ENDBRANCH  27  28
ENDBRANCH  26  27
ENDBRANCH  13  26
ENDBRANCH   5   6
ENDBRANCH   4   5
ENDBRANCH   3   4
ENDBRANCH   2   3
TORSDOF 11
ENDMDL
MODEL       77
REMARK 921   NORMALIZED FREE ENERGY PREDICTED BY IDOCK:   -4.99 KCAL/MOL
REMARK 922        TOTAL FREE ENERGY PREDICTED BY IDOCK:   -9.34 KCAL/MOL
REMARK 923 INTER-LIGAND FREE ENERGY PREDICTED BY IDOCK:   -8.16 KCAL/MOL
REMARK 924 INTRA-LIGAND FREE ENERGY PREDICTED BY IDOCK:   -1.18 KCAL/MOL
REMARK 927      BINDING AFFINITY PREDICTED BY RF-SCORE:    0.00 PKD
ROOT
HETATM    1  C   UNL     1      -8.682   5.099  68.283  1.00  0.00    -0.101 C  
HETATM    2  O   UNL     1     -10.065   4.858  68.519  1.00  0.00    -0.145 OA 
ENDROOT
BRANCH   2   3
HETATM    3  C   UNL     1     -10.799   6.078  68.549  1.00  0.00    -0.286 C  
BRANCH   3   4
HETATM    4  C   UNL     1      -9.885   7.251  68.207  1.00  0.00    -0.154 C  
BRANCH   4   5
HETATM    5  O   UNL     1     -10.568   8.436  68.603  1.00  0.00    -0.196 OA 
BRANCH   5   6
HETATM    6  C   UNL     1     -10.562   9.539  67.805  1.00  0.00    -0.261 A  
HETATM    7  C   UNL     1     -10.406   9.468  66.416  1.00  0.00    -0.243 A  
HETATM    8  C   UNL     1     -10.381  10.598  65.612  1.00  0.00    -0.216 A  
HETATM    9  C   UNL     1     -10.556  11.861  66.192  1.00  0.00    -0.295 A  
HETATM   10  C   UNL     1     -10.745  11.936  67.599  1.00  0.00    -0.253 A  
HETATM   11  C   UNL     1     -10.531  12.949  65.289  1.00  0.00    -0.296 A  
HETATM   12  N   UNL     1     -10.315  12.762  63.973  1.00  0.00    -0.412 NA 
HETATM   13  C   UNL     1     -10.729  10.793  68.409  1.00  0.00    -0.217 A  
HETATM   14  N   UNL     1     -10.191  10.413  64.306  1.00  0.00    -0.262 NA 
HETATM   15  C   UNL     1     -10.158  11.508  63.546  1.00  0.00    -0.409 A  
BRANCH  11  16
HETATM   16  N   UNL     1     -10.803  14.259  65.762  1.00  0.00    -0.295 NA 
HETATM   17  H   UNL     1     -11.765  14.572  65.637  1.00  0.00     0.000 HD 
BRANCH  16  18
HETATM   18  C   UNL     1      -9.943  15.198  66.382  1.00  0.00    -0.272 A  
HETATM   19  C   UNL     1     -10.395  16.514  66.582  1.00  0.00    -0.298 A  
HETATM   20  C   UNL     1      -8.213  17.200  67.376  1.00  0.00    -0.197 A  
HETATM   21  C   UNL     1      -9.537  17.509  67.072  1.00  0.00    -0.268 A  
HETATM   22  C   UNL     1      -8.603  14.920  66.686  1.00  0.00    -0.207 A  
HETATM   23  C   UNL     1      -7.747  15.903  67.190  1.00  0.00    -0.247 A  
BRANCH  21  24
HETATM   24  C   UNL     1      -9.993  18.857  67.231  1.00  0.00    -0.386 C  
HETATM   25  C   UNL     1     -10.430  19.968  67.361  1.00  0.00    -0.490 C  
ENDBRANCH  21  24
ENDBRANCH  16  18
ENDBRANCH  11  16
BRANCH  13  26
HETATM   26  O   UNL     1     -10.885  11.085  69.746  1.00  0.00    -0.231 OA 
BRANCH  26  27
HETATM   27  C   UNL     1     -12.215  11.242  70.239  1.00  0.00    -0.345 C  
BRANCH  27  28
HETATM   28  C   UNL     1     -12.494  10.271  71.381  1.00  0.00    -0.424 C  
BRANCH  28  29
HETATM   29  O   UNL     1     -11.267   9.607  71.700  1.00  0.00    -0.367 OA 
HETATM   30  C   UNL     1     -11.484   8.335  72.289  1.00  0.00    -0.384 C  
ENDBRANCH  28  29
ENDBRANCH  27  28
ENDBRANCH  26  27
ENDBRANCH  13  26
ENDBRANCH   5   6
ENDBRANCH   4   5
ENDBRANCH   3   4
ENDBRANCH   2   3
TORSDOF 11
ENDMDL
MODEL       78
REMARK 921   NORMALIZED FREE ENERGY PREDICTED BY IDOCK:   -4.98 KCAL/MOL
REMARK 922        TOTAL FREE ENERGY PREDICTED BY IDOCK:   -9.33 KCAL/MOL
REMARK 923 INTER-LIGAND FREE ENERGY PREDICTED BY IDOCK:   -8.41 KCAL/MOL
REMARK 924 INTRA-LIGAND FREE ENERGY PREDICTED BY IDOCK:   -0.92 KCAL/MOL
REMARK 927      BINDING AFFINITY PREDICTED BY RF-SCORE:    0.00 PKD
ROOT
HETATM    1  C   UNL     1     -12.233  15.719  74.296  1.00  0.00    -0.560 C  
HETATM    2  O   UNL     1     -11.890  15.998  72.943  1.00  0.00    -0.465 OA 
ENDROOT
BRANCH   2   3
HETATM    3  C   UNL     1     -12.899  15.531  72.052  1.00  0.00    -0.420 C  
BRANCH   3   4
HETATM    4  C   UNL     1     -13.543  14.262  72.604  1.00  0.00    -0.501 C  
BRANCH   4   5
HETATM    5  O   UNL     1     -13.865  13.442  71.486  1.00  0.00    -0.162 OA 
BRANCH   5   6
HETATM    6  C   UNL     1     -13.140  12.322  71.215  1.00  0.00    -0.116 A  
HETATM    7  C   UNL     1     -13.348  11.107  71.879  1.00  0.00    -0.409 A  
HETATM    8  C   UNL     1     -12.592   9.975  71.613  1.00  0.00    -0.427 A  
HETATM    9  C   UNL     1     -11.606  10.023  70.618  1.00  0.00    -0.422 A  
HETATM   10  C   UNL     1     -11.412  11.246  69.920  1.00  0.00    -0.373 A  
HETATM   11  C   UNL     1     -10.901   8.815  70.409  1.00  0.00    -0.228 A  
HETATM   12  N   UNL     1     -11.150   7.721  71.152  1.00  0.00    -0.244 NA 
HETATM   13  C   UNL     1     -12.153  12.396  70.223  1.00  0.00    -0.297 A  
HETATM   14  N   UNL     1     -12.854   8.884  72.332  1.00  0.00    -0.399 NA 
HETATM   15  C   UNL     1     -12.112   7.807  72.073  1.00  0.00    -0.311 A  
BRANCH  11  16
HETATM   16  N   UNL     1      -9.956   8.730  69.353  1.00  0.00    -0.191 NA 
HETATM   17  H   UNL     1      -9.311   9.516  69.286  1.00  0.00     0.000 HD 
BRANCH  16  18
HETATM   18  C   UNL     1      -9.772   7.718  68.379  1.00  0.00    -0.159 A  
HETATM   19  C   UNL     1      -8.533   7.617  67.721  1.00  0.00    -0.122 A  
HETATM   20  C   UNL     1      -9.396   5.901  66.247  1.00  0.00    -0.168 A  
HETATM   21  C   UNL     1      -8.347   6.719  66.661  1.00  0.00    -0.118 A  
HETATM   22  C   UNL     1     -10.812   6.891  67.932  1.00  0.00    -0.287 A  
HETATM   23  C   UNL     1     -10.627   5.981  66.888  1.00  0.00    -0.384 A  
BRANCH  21  24
HETATM   24  C   UNL     1      -7.095   6.654  65.968  1.00  0.00    -0.062 C  
HETATM   25  C   UNL     1      -6.073   6.575  65.343  1.00  0.00    -0.034 C  
ENDBRANCH  21  24
ENDBRANCH  16  18
ENDBRANCH  11  16
BRANCH  13  26
HETATM   26  O   UNL     1     -11.782  13.484  69.465  1.00  0.00    -0.287 OA 
BRANCH  26  27
HETATM   27  C   UNL     1     -11.775  13.332  68.046  1.00  0.00    -0.359 C  
BRANCH  27  28
HETATM   28  C   UNL     1     -10.483  13.875  67.443  1.00  0.00    -0.263 C  
BRANCH  28  29
HETATM   29  O   UNL     1     -10.560  13.710  66.024  1.00  0.00    -0.282 OA 
HETATM   30  C   UNL     1     -11.135  14.838  65.385  1.00  0.00    -0.357 C  
ENDBRANCH  28  29
ENDBRANCH  27  28
ENDBRANCH  26  27
ENDBRANCH  13  26
ENDBRANCH   5   6
ENDBRANCH   4   5
ENDBRANCH   3   4
ENDBRANCH   2   3
TORSDOF 11
ENDMDL
MODEL       79
REMARK 921   NORMALIZED FREE ENERGY PREDICTED BY IDOCK:   -4.97 KCAL/MOL
REMARK 922        TOTAL FREE ENERGY PREDICTED BY IDOCK:   -9.30 KCAL/MOL
REMARK 923 INTER-LIGAND FREE ENERGY PREDICTED BY IDOCK:   -8.23 KCAL/MOL
REMARK 924 INTRA-LIGAND FREE ENERGY PREDICTED BY IDOCK:   -1.07 KCAL/MOL
REMARK 927      BINDING AFFINITY PREDICTED BY RF-SCORE:    0.00 PKD
ROOT
HETATM    1  C   UNL     1      -8.705   4.593  64.236  1.00  0.00    -0.148 C  
HETATM    2  O   UNL     1      -9.075   4.867  65.582  1.00  0.00    -0.142 OA 
ENDROOT
BRANCH   2   3
HETATM    3  C   UNL     1      -8.281   5.918  66.127  1.00  0.00    -0.116 C  
BRANCH   3   4
HETATM    4  C   UNL     1      -8.772   7.269  65.614  1.00  0.00    -0.070 C  
BRANCH   4   5
HETATM    5  O   UNL     1      -9.323   7.960  66.729  1.00  0.00    -0.162 OA 
BRANCH   5   6
HETATM    6  C   UNL     1      -9.898   9.183  66.572  1.00  0.00    -0.264 A  
HETATM    7  C   UNL     1      -9.832   9.903  65.373  1.00  0.00    -0.384 A  
HETATM    8  C   UNL     1     -10.404  11.158  65.226  1.00  0.00    -0.277 A  
HETATM    9  C   UNL     1     -11.110  11.724  66.297  1.00  0.00    -0.364 A  
HETATM   10  C   UNL     1     -11.205  10.984  67.507  1.00  0.00    -0.372 A  
HETATM   11  C   UNL     1     -11.669  12.998  66.045  1.00  0.00    -0.393 A  
HETATM   12  N   UNL     1     -11.490  13.621  64.865  1.00  0.00    -0.328 NA 
HETATM   13  C   UNL     1     -10.591   9.733  67.659  1.00  0.00    -0.276 A  
HETATM   14  N   UNL     1     -10.248  11.766  64.051  1.00  0.00    -0.316 NA 
HETATM   15  C   UNL     1     -10.792  12.977  63.928  1.00  0.00    -0.313 A  
BRANCH  11  16
HETATM   16  N   UNL     1     -12.491  13.608  67.028  1.00  0.00    -0.352 NA 
HETATM   17  H   UNL     1     -13.494  13.499  66.881  1.00  0.00     0.000 HD 
BRANCH  16  18
HETATM   18  C   UNL     1     -12.131  14.347  68.182  1.00  0.00    -0.223 A  
HETATM   19  C   UNL     1     -11.467  15.576  68.030  1.00  0.00    -0.313 A  
HETATM   20  C   UNL     1     -11.151  15.763  70.423  1.00  0.00    -0.380 A  
HETATM   21  C   UNL     1     -10.977  16.278  69.141  1.00  0.00    -0.324 A  
HETATM   22  C   UNL     1     -12.281  13.848  69.483  1.00  0.00    -0.356 A  
HETATM   23  C   UNL     1     -11.810  14.550  70.596  1.00  0.00    -0.367 A  
BRANCH  21  24
HETATM   24  C   UNL     1     -10.263  17.508  68.973  1.00  0.00    -0.314 C  
HETATM   25  C   UNL     1      -9.642  18.518  68.785  1.00  0.00    -0.365 C  
ENDBRANCH  21  24
ENDBRANCH  16  18
ENDBRANCH  11  16
BRANCH  13  26
HETATM   26  O   UNL     1     -10.765   9.204  68.919  1.00  0.00    -0.212 OA 
BRANCH  26  27
HETATM   27  C   UNL     1     -10.259   9.950  70.026  1.00  0.00    -0.271 C  
BRANCH  27  28
HETATM   28  C   UNL     1      -9.027   9.278  70.622  1.00  0.00    -0.243 C  
BRANCH  28  29
HETATM   29  O   UNL     1      -9.340   8.906  71.968  1.00  0.00    -0.324 OA 
HETATM   30  C   UNL     1     -10.509   8.106  72.043  1.00  0.00    -0.263 C  
ENDBRANCH  28  29
ENDBRANCH  27  28
ENDBRANCH  26  27
ENDBRANCH  13  26
ENDBRANCH   5   6
ENDBRANCH   4   5
ENDBRANCH   3   4
ENDBRANCH   2   3
TORSDOF 11
ENDMDL
MODEL       80
REMARK 921   NORMALIZED FREE ENERGY PREDICTED BY IDOCK:   -4.96 KCAL/MOL
REMARK 922        TOTAL FREE ENERGY PREDICTED BY IDOCK:   -9.28 KCAL/MOL
REMARK 923 INTER-LIGAND FREE ENERGY PREDICTED BY IDOCK:   -8.06 KCAL/MOL
REMARK 924 INTRA-LIGAND FREE ENERGY PREDICTED BY IDOCK:   -1.22 KCAL/MOL
REMARK 927      BINDING AFFINITY PREDICTED BY RF-SCORE:    0.00 PKD
ROOT
HETATM    1  C   UNL     1     -10.626  17.130  67.955  1.00  0.00    -0.376 C  
HETATM    2  O   UNL     1     -10.447  15.769  67.579  1.00  0.00    -0.275 OA 
ENDROOT
BRANCH   2   3
HETATM    3  C   UNL     1     -10.297  15.643  66.168  1.00  0.00    -0.316 C  
BRANCH   3   4
HETATM    4  C   UNL     1     -10.359  14.173  65.762  1.00  0.00    -0.325 C  
BRANCH   4   5
HETATM    5  O   UNL     1     -10.213  13.408  66.953  1.00  0.00    -0.246 OA 
BRANCH   5   6
HETATM    6  C   UNL     1     -10.181  12.048  66.905  1.00  0.00    -0.208 A  
HETATM    7  C   UNL     1      -9.241  11.339  66.148  1.00  0.00    -0.222 A  
HETATM    8  C   UNL     1      -9.227   9.953  66.088  1.00  0.00    -0.168 A  
HETATM    9  C   UNL     1     -10.159   9.221  66.836  1.00  0.00    -0.324 A  
HETATM   10  C   UNL     1     -11.097   9.936  67.629  1.00  0.00    -0.170 A  
HETATM   11  C   UNL     1     -10.054   7.816  66.721  1.00  0.00    -0.270 A  
HETATM   12  N   UNL     1      -9.141   7.245  65.913  1.00  0.00    -0.082 NA 
HETATM   13  C   UNL     1     -11.129  11.337  67.654  1.00  0.00    -0.277 A  
HETATM   14  N   UNL     1      -8.308   9.386  65.307  1.00  0.00    -0.134 NA 
HETATM   15  C   UNL     1      -8.314   8.054  65.249  1.00  0.00    -0.143 A  
BRANCH  11  16
HETATM   16  N   UNL     1     -10.882   6.984  67.520  1.00  0.00    -0.443 NA 
HETATM   17  H   UNL     1     -11.839   6.877  67.185  1.00  0.00     0.000 HD 
BRANCH  16  18
HETATM   18  C   UNL     1     -10.582   6.280  68.712  1.00  0.00    -0.262 A  
HETATM   19  C   UNL     1     -10.745   6.926  69.950  1.00  0.00    -0.278 A  
HETATM   20  C   UNL     1      -9.769   5.045  71.121  1.00  0.00    -0.241 A  
HETATM   21  C   UNL     1     -10.339   6.316  71.145  1.00  0.00    -0.255 A  
HETATM   22  C   UNL     1      -9.995   5.007  68.718  1.00  0.00    -0.225 A  
HETATM   23  C   UNL     1      -9.604   4.386  69.907  1.00  0.00    -0.275 A  
BRANCH  21  24
HETATM   24  C   UNL     1     -10.469   6.999  72.397  1.00  0.00    -0.236 C  
HETATM   25  C   UNL     1     -10.630   7.588  73.431  1.00  0.00    -0.409 C  
ENDBRANCH  21  24
ENDBRANCH  16  18
ENDBRANCH  11  16
BRANCH  13  26
HETATM   26  O   UNL     1     -12.139  11.833  68.448  1.00  0.00    -0.490 OA 
BRANCH  26  27
HETATM   27  C   UNL     1     -12.200  11.382  69.801  1.00  0.00    -0.265 C  
BRANCH  27  28
HETATM   28  C   UNL     1     -12.478  12.541  70.752  1.00  0.00    -0.268 C  
BRANCH  28  29
HETATM   29  O   UNL     1     -13.134  12.010  71.908  1.00  0.00    -0.453 OA 
HETATM   30  C   UNL     1     -13.231  10.595  71.866  1.00  0.00    -0.423 C  
ENDBRANCH  28  29
ENDBRANCH  27  28
ENDBRANCH  26  27
ENDBRANCH  13  26
ENDBRANCH   5   6
ENDBRANCH   4   5
ENDBRANCH   3   4
ENDBRANCH   2   3
TORSDOF 11
ENDMDL
MODEL       81
REMARK 921   NORMALIZED FREE ENERGY PREDICTED BY IDOCK:   -4.93 KCAL/MOL
REMARK 922        TOTAL FREE ENERGY PREDICTED BY IDOCK:   -9.24 KCAL/MOL
REMARK 923 INTER-LIGAND FREE ENERGY PREDICTED BY IDOCK:   -8.54 KCAL/MOL
REMARK 924 INTRA-LIGAND FREE ENERGY PREDICTED BY IDOCK:   -0.70 KCAL/MOL
REMARK 927      BINDING AFFINITY PREDICTED BY RF-SCORE:    0.00 PKD
ROOT
HETATM    1  C   UNL     1      -5.722   7.283  63.059  1.00  0.00    -0.041 C  
HETATM    2  O   UNL     1      -6.208   8.554  62.644  1.00  0.00    -0.087 OA 
ENDROOT
BRANCH   2   3
HETATM    3  C   UNL     1      -7.602   8.500  62.357  1.00  0.00    -0.110 C  
BRANCH   3   4
HETATM    4  C   UNL     1      -8.226   9.885  62.514  1.00  0.00    -0.135 C  
BRANCH   4   5
HETATM    5  O   UNL     1      -9.510   9.696  63.098  1.00  0.00    -0.125 OA 
BRANCH   5   6
HETATM    6  C   UNL     1      -9.925  10.481  64.130  1.00  0.00    -0.318 A  
HETATM    7  C   UNL     1     -10.782  11.573  63.953  1.00  0.00    -0.458 A  
HETATM    8  C   UNL     1     -11.185  12.381  65.006  1.00  0.00    -0.312 A  
HETATM    9  C   UNL     1     -10.757  12.083  66.306  1.00  0.00    -0.302 A  
HETATM   10  C   UNL     1      -9.910  10.956  66.495  1.00  0.00    -0.245 A  
HETATM   11  C   UNL     1     -11.233  12.954  67.313  1.00  0.00    -0.288 A  
HETATM   12  N   UNL     1     -12.011  14.012  67.014  1.00  0.00    -0.425 NA 
HETATM   13  C   UNL     1      -9.476  10.168  65.421  1.00  0.00    -0.239 A  
HETATM   14  N   UNL     1     -11.974  13.415  64.715  1.00  0.00    -0.372 NA 
HETATM   15  C   UNL     1     -12.343  14.189  65.735  1.00  0.00    -0.461 A  
BRANCH  11  16
HETATM   16  N   UNL     1     -10.943  12.676  68.675  1.00  0.00    -0.247 NA 
HETATM   17  H   UNL     1      -9.955  12.541  68.887  1.00  0.00     0.000 HD 
BRANCH  16  18
HETATM   18  C   UNL     1     -11.816  12.558  69.784  1.00  0.00    -0.310 A  
HETATM   19  C   UNL     1     -12.211  13.719  70.472  1.00  0.00    -0.440 A  
HETATM   20  C   UNL     1     -13.346  12.399  72.155  1.00  0.00    -0.508 A  
HETATM   21  C   UNL     1     -12.967  13.641  71.650  1.00  0.00    -0.448 A  
HETATM   22  C   UNL     1     -12.202  11.323  70.322  1.00  0.00    -0.428 A  
HETATM   23  C   UNL     1     -12.970  11.239  71.487  1.00  0.00    -0.520 A  
BRANCH  21  24
HETATM   24  C   UNL     1     -13.328  14.827  72.368  1.00  0.00    -0.503 C  
HETATM   25  C   UNL     1     -13.669  15.831  72.931  1.00  0.00    -0.631 C  
ENDBRANCH  21  24
ENDBRANCH  16  18
ENDBRANCH  11  16
BRANCH  13  26
HETATM   26  O   UNL     1      -8.628   9.156  65.811  1.00  0.00    -0.136 OA 
BRANCH  26  27
HETATM   27  C   UNL     1      -7.231   9.441  65.850  1.00  0.00    -0.092 C  
BRANCH  27  28
HETATM   28  C   UNL     1      -6.871  10.247  67.093  1.00  0.00    -0.082 C  
BRANCH  28  29
HETATM   29  O   UNL     1      -6.604  11.591  66.681  1.00  0.00    -0.133 OA 
HETATM   30  C   UNL     1      -6.923  12.534  67.692  1.00  0.00    -0.139 C  
ENDBRANCH  28  29
ENDBRANCH  27  28
ENDBRANCH  26  27
ENDBRANCH  13  26
ENDBRANCH   5   6
ENDBRANCH   4   5
ENDBRANCH   3   4
ENDBRANCH   2   3
TORSDOF 11
ENDMDL
MODEL       82
REMARK 921   NORMALIZED FREE ENERGY PREDICTED BY IDOCK:   -4.92 KCAL/MOL
REMARK 922        TOTAL FREE ENERGY PREDICTED BY IDOCK:   -9.23 KCAL/MOL
REMARK 923 INTER-LIGAND FREE ENERGY PREDICTED BY IDOCK:   -7.80 KCAL/MOL
REMARK 924 INTRA-LIGAND FREE ENERGY PREDICTED BY IDOCK:   -1.42 KCAL/MOL
REMARK 927      BINDING AFFINITY PREDICTED BY RF-SCORE:    0.00 PKD
ROOT
HETATM    1  C   UNL     1     -12.310  15.816  71.282  1.00  0.00    -0.438 C  
HETATM    2  O   UNL     1     -11.153  15.059  70.942  1.00  0.00    -0.267 OA 
ENDROOT
BRANCH   2   3
HETATM    3  C   UNL     1     -10.475  15.632  69.828  1.00  0.00    -0.308 C  
BRANCH   3   4
HETATM    4  C   UNL     1     -10.435  14.640  68.669  1.00  0.00    -0.244 C  
BRANCH   4   5
HETATM    5  O   UNL     1     -10.918  13.399  69.171  1.00  0.00    -0.237 OA 
BRANCH   5   6
HETATM    6  C   UNL     1     -10.662  12.236  68.510  1.00  0.00    -0.237 A  
HETATM    7  C   UNL     1      -9.561  12.074  67.660  1.00  0.00    -0.188 A  
HETATM    8  C   UNL     1      -9.318  10.894  66.975  1.00  0.00    -0.163 A  
HETATM    9  C   UNL     1     -10.176   9.801  67.158  1.00  0.00    -0.288 A  
HETATM   10  C   UNL     1     -11.278   9.950  68.042  1.00  0.00    -0.129 A  
HETATM   11  C   UNL     1      -9.836   8.638  66.428  1.00  0.00    -0.270 A  
HETATM   12  N   UNL     1      -8.779   8.619  65.593  1.00  0.00    -0.173 NA 
HETATM   13  C   UNL     1     -11.539  11.160  68.701  1.00  0.00    -0.315 A  
HETATM   14  N   UNL     1      -8.259  10.865  66.165  1.00  0.00    -0.167 NA 
HETATM   15  C   UNL     1      -8.044   9.728  65.504  1.00  0.00    -0.125 A  
BRANCH  11  16
HETATM   16  N   UNL     1     -10.579   7.445  66.625  1.00  0.00    -0.509 NA 
HETATM   17  H   UNL     1     -11.424   7.365  66.061  1.00  0.00     0.000 HD 
BRANCH  16  18
HETATM   18  C   UNL     1     -10.326   6.349  67.486  1.00  0.00    -0.196 A  
HETATM   19  C   UNL     1     -10.722   6.429  68.833  1.00  0.00    -0.339 A  
HETATM   20  C   UNL     1      -9.639   4.321  69.332  1.00  0.00    -0.267 A  
HETATM   21  C   UNL     1     -10.378   5.426  69.750  1.00  0.00    -0.375 A  
HETATM   22  C   UNL     1      -9.573   5.232  67.097  1.00  0.00    -0.149 A  
HETATM   23  C   UNL     1      -9.242   4.221  68.003  1.00  0.00    -0.182 A  
BRANCH  21  24
HETATM   24  C   UNL     1     -10.748   5.537  71.129  1.00  0.00    -0.280 C  
HETATM   25  C   UNL     1     -11.032   5.581  72.295  1.00  0.00    -0.296 C  
ENDBRANCH  21  24
ENDBRANCH  16  18
ENDBRANCH  11  16
BRANCH  13  26
HETATM   26  O   UNL     1     -12.677  11.110  69.475  1.00  0.00    -0.208 OA 
BRANCH  26  27
HETATM   27  C   UNL     1     -12.514  10.936  70.883  1.00  0.00    -0.408 C  
BRANCH  27  28
HETATM   28  C   UNL     1     -12.923   9.531  71.312  1.00  0.00    -0.328 C  
BRANCH  28  29
HETATM   29  O   UNL     1     -11.914   9.034  72.197  1.00  0.00    -0.357 OA 
HETATM   30  C   UNL     1     -10.615   9.133  71.637  1.00  0.00    -0.357 C  
ENDBRANCH  28  29
ENDBRANCH  27  28
ENDBRANCH  26  27
ENDBRANCH  13  26
ENDBRANCH   5   6
ENDBRANCH   4   5
ENDBRANCH   3   4
ENDBRANCH   2   3
TORSDOF 11
ENDMDL
MODEL       83
REMARK 921   NORMALIZED FREE ENERGY PREDICTED BY IDOCK:   -4.91 KCAL/MOL
REMARK 922        TOTAL FREE ENERGY PREDICTED BY IDOCK:   -9.20 KCAL/MOL
REMARK 923 INTER-LIGAND FREE ENERGY PREDICTED BY IDOCK:   -7.79 KCAL/MOL
REMARK 924 INTRA-LIGAND FREE ENERGY PREDICTED BY IDOCK:   -1.41 KCAL/MOL
REMARK 927      BINDING AFFINITY PREDICTED BY RF-SCORE:    0.00 PKD
ROOT
HETATM    1  C   UNL     1     -10.571   5.868  66.861  1.00  0.00    -0.315 C  
HETATM    2  O   UNL     1      -9.238   5.680  66.399  1.00  0.00    -0.143 OA 
ENDROOT
BRANCH   2   3
HETATM    3  C   UNL     1      -8.293   6.068  67.391  1.00  0.00    -0.105 C  
BRANCH   3   4
HETATM    4  C   UNL     1      -8.924   5.990  68.779  1.00  0.00    -0.118 C  
BRANCH   4   5
HETATM    5  O   UNL     1      -8.599   7.203  69.449  1.00  0.00    -0.132 OA 
BRANCH   5   6
HETATM    6  C   UNL     1      -9.567   8.111  69.750  1.00  0.00    -0.171 A  
HETATM    7  C   UNL     1     -10.455   7.946  70.819  1.00  0.00    -0.218 A  
HETATM    8  C   UNL     1     -11.453   8.865  71.107  1.00  0.00    -0.301 A  
HETATM    9  C   UNL     1     -11.565  10.026  70.330  1.00  0.00    -0.379 A  
HETATM   10  C   UNL     1     -10.647  10.213  69.261  1.00  0.00    -0.254 A  
HETATM   11  C   UNL     1     -12.602  10.909  70.711  1.00  0.00    -0.377 A  
HETATM   12  N   UNL     1     -13.434  10.615  71.728  1.00  0.00    -0.286 NA 
HETATM   13  C   UNL     1      -9.666   9.260  68.953  1.00  0.00    -0.161 A  
HETATM   14  N   UNL     1     -12.263   8.587  72.128  1.00  0.00    -0.358 NA 
HETATM   15  C   UNL     1     -13.224   9.474  72.385  1.00  0.00    -0.368 A  
BRANCH  11  16
HETATM   16  N   UNL     1     -12.732  12.161  70.055  1.00  0.00     0.192 NA 
HETATM   17  H   UNL     1     -13.252  12.138  69.178  1.00  0.00     0.000 HD 
BRANCH  16  18
HETATM   18  C   UNL     1     -12.250  13.439  70.432  1.00  0.00    -0.345 A  
HETATM   19  C   UNL     1     -12.458  13.889  71.748  1.00  0.00    -0.291 A  
HETATM   20  C   UNL     1     -11.552  16.068  71.202  1.00  0.00    -0.492 A  
HETATM   21  C   UNL     1     -12.115  15.194  72.130  1.00  0.00    -0.472 A  
HETATM   22  C   UNL     1     -11.693  14.344  69.518  1.00  0.00    -0.362 A  
HETATM   23  C   UNL     1     -11.334  15.640  69.897  1.00  0.00    -0.340 A  
BRANCH  21  24
HETATM   24  C   UNL     1     -12.371  15.658  73.460  1.00  0.00    -0.663 C  
HETATM   25  C   UNL     1     -12.639  16.049  74.563  1.00  0.00    -0.588 C  
ENDBRANCH  21  24
ENDBRANCH  16  18
ENDBRANCH  11  16
BRANCH  13  26
HETATM   26  O   UNL     1      -8.910   9.609  67.856  1.00  0.00    -0.120 OA 
BRANCH  26  27
HETATM   27  C   UNL     1      -7.615  10.159  68.093  1.00  0.00    -0.087 C  
BRANCH  27  28
HETATM   28  C   UNL     1      -7.544  11.611  67.631  1.00  0.00    -0.128 C  
BRANCH  28  29
HETATM   29  O   UNL     1      -8.545  11.799  66.627  1.00  0.00    -0.178 OA 
HETATM   30  C   UNL     1      -9.262  13.010  66.806  1.00  0.00    -0.228 C  
ENDBRANCH  28  29
ENDBRANCH  27  28
ENDBRANCH  26  27
ENDBRANCH  13  26
ENDBRANCH   5   6
ENDBRANCH   4   5
ENDBRANCH   3   4
ENDBRANCH   2   3
TORSDOF 11
ENDMDL
MODEL       84
REMARK 921   NORMALIZED FREE ENERGY PREDICTED BY IDOCK:   -4.89 KCAL/MOL
REMARK 922        TOTAL FREE ENERGY PREDICTED BY IDOCK:   -9.17 KCAL/MOL
REMARK 923 INTER-LIGAND FREE ENERGY PREDICTED BY IDOCK:   -7.88 KCAL/MOL
REMARK 924 INTRA-LIGAND FREE ENERGY PREDICTED BY IDOCK:   -1.29 KCAL/MOL
REMARK 927      BINDING AFFINITY PREDICTED BY RF-SCORE:    0.00 PKD
ROOT
HETATM    1  C   UNL     1      -5.394   8.574  70.562  1.00  0.00    -0.021 C  
HETATM    2  O   UNL     1      -6.500   8.569  69.667  1.00  0.00    -0.039 OA 
ENDROOT
BRANCH   2   3
HETATM    3  C   UNL     1      -6.982   7.245  69.457  1.00  0.00    -0.057 C  
BRANCH   3   4
HETATM    4  C   UNL     1      -7.295   7.027  67.979  1.00  0.00    -0.097 C  
BRANCH   4   5
HETATM    5  O   UNL     1      -8.711   7.063  67.847  1.00  0.00    -0.126 OA 
BRANCH   5   6
HETATM    6  C   UNL     1      -9.346   8.214  67.492  1.00  0.00    -0.140 A  
HETATM    7  C   UNL     1      -9.305   8.731  66.191  1.00  0.00    -0.297 A  
HETATM    8  C   UNL     1      -9.937   9.915  65.841  1.00  0.00    -0.277 A  
HETATM    9  C   UNL     1     -10.679  10.611  66.805  1.00  0.00    -0.272 A  
HETATM   10  C   UNL     1     -10.748  10.074  68.119  1.00  0.00    -0.282 A  
HETATM   11  C   UNL     1     -11.299  11.797  66.348  1.00  0.00    -0.297 A  
HETATM   12  N   UNL     1     -11.140  12.227  65.081  1.00  0.00    -0.308 NA 
HETATM   13  C   UNL     1     -10.074   8.898  68.475  1.00  0.00    -0.188 A  
HETATM   14  N   UNL     1      -9.801  10.330  64.582  1.00  0.00    -0.331 NA 
HETATM   15  C   UNL     1     -10.404  11.475  64.263  1.00  0.00    -0.323 A  
BRANCH  11  16
HETATM   16  N   UNL     1     -12.159  12.518  67.217  1.00  0.00    -0.480 NA 
HETATM   17  H   UNL     1     -13.132  12.214  67.212  1.00  0.00     0.000 HD 
BRANCH  16  18
HETATM   18  C   UNL     1     -11.872  13.595  68.091  1.00  0.00    -0.372 A  
HETATM   19  C   UNL     1     -11.430  14.816  67.552  1.00  0.00    -0.369 A  
HETATM   20  C   UNL     1     -11.034  15.711  69.767  1.00  0.00    -0.307 A  
HETATM   21  C   UNL     1     -11.011  15.865  68.382  1.00  0.00    -0.331 A  
HETATM   22  C   UNL     1     -11.872  13.465  69.487  1.00  0.00    -0.391 A  
HETATM   23  C   UNL     1     -11.472  14.513  70.320  1.00  0.00    -0.281 A  
BRANCH  21  24
HETATM   24  C   UNL     1     -10.521  17.090  67.824  1.00  0.00    -0.349 C  
HETATM   25  C   UNL     1     -10.164  18.133  67.350  1.00  0.00    -0.383 C  
ENDBRANCH  21  24
ENDBRANCH  16  18
ENDBRANCH  11  16
BRANCH  13  26
HETATM   26  O   UNL     1     -10.233   8.574  69.803  1.00  0.00    -0.196 OA 
BRANCH  26  27
HETATM   27  C   UNL     1     -10.482   9.640  70.720  1.00  0.00    -0.305 C  
BRANCH  27  28
HETATM   28  C   UNL     1     -11.695   9.338  71.593  1.00  0.00    -0.392 C  
BRANCH  28  29
HETATM   29  O   UNL     1     -11.706   7.932  71.856  1.00  0.00    -0.271 OA 
HETATM   30  C   UNL     1     -10.925   7.593  72.990  1.00  0.00    -0.400 C  
ENDBRANCH  28  29
ENDBRANCH  27  28
ENDBRANCH  26  27
ENDBRANCH  13  26
ENDBRANCH   5   6
ENDBRANCH   4   5
ENDBRANCH   3   4
ENDBRANCH   2   3
TORSDOF 11
ENDMDL
MODEL       85
REMARK 921   NORMALIZED FREE ENERGY PREDICTED BY IDOCK:   -4.89 KCAL/MOL
REMARK 922        TOTAL FREE ENERGY PREDICTED BY IDOCK:   -9.17 KCAL/MOL
REMARK 923 INTER-LIGAND FREE ENERGY PREDICTED BY IDOCK:   -8.02 KCAL/MOL
REMARK 924 INTRA-LIGAND FREE ENERGY PREDICTED BY IDOCK:   -1.15 KCAL/MOL
REMARK 927      BINDING AFFINITY PREDICTED BY RF-SCORE:    0.00 PKD
ROOT
HETATM    1  C   UNL     1     -10.256  19.829  68.020  1.00  0.00    -0.451 C  
HETATM    2  O   UNL     1      -8.874  19.490  68.018  1.00  0.00    -0.307 OA 
ENDROOT
BRANCH   2   3
HETATM    3  C   UNL     1      -8.286  19.744  66.745  1.00  0.00    -0.312 C  
BRANCH   3   4
HETATM    4  C   UNL     1      -7.686  18.460  66.177  1.00  0.00    -0.218 C  
BRANCH   4   5
HETATM    5  O   UNL     1      -7.923  17.434  67.135  1.00  0.00    -0.193 OA 
BRANCH   5   6
HETATM    6  C   UNL     1      -8.858  16.473  66.904  1.00  0.00    -0.208 A  
HETATM    7  C   UNL     1      -9.722  16.504  65.803  1.00  0.00    -0.237 A  
HETATM    8  C   UNL     1     -10.686  15.532  65.586  1.00  0.00    -0.366 A  
HETATM    9  C   UNL     1     -10.787  14.451  66.471  1.00  0.00    -0.310 A  
HETATM   10  C   UNL     1      -9.892  14.398  67.575  1.00  0.00    -0.220 A  
HETATM   11  C   UNL     1     -11.789  13.504  66.157  1.00  0.00    -0.389 A  
HETATM   12  N   UNL     1     -12.602  13.671  65.097  1.00  0.00    -0.605 NA 
HETATM   13  C   UNL     1      -8.946  15.405  67.809  1.00  0.00    -0.173 A  
HETATM   14  N   UNL     1     -11.477  15.683  64.524  1.00  0.00    -0.374 NA 
HETATM   15  C   UNL     1     -12.406  14.747  64.334  1.00  0.00    -0.368 A  
BRANCH  11  16
HETATM   16  N   UNL     1     -11.901  12.319  66.931  1.00  0.00    -0.581 NA 
HETATM   17  H   UNL     1     -12.629  12.338  67.645  1.00  0.00     0.000 HD 
BRANCH  16  18
HETATM   18  C   UNL     1     -11.158  11.115  66.863  1.00  0.00    -0.247 A  
HETATM   19  C   UNL     1     -11.053  10.309  68.011  1.00  0.00    -0.336 A  
HETATM   20  C   UNL     1      -9.491   8.833  66.895  1.00  0.00    -0.231 A  
HETATM   21  C   UNL     1     -10.223   9.179  68.028  1.00  0.00    -0.258 A  
HETATM   22  C   UNL     1     -10.400  10.750  65.743  1.00  0.00    -0.295 A  
HETATM   23  C   UNL     1      -9.585   9.614  65.749  1.00  0.00    -0.329 A  
BRANCH  21  24
HETATM   24  C   UNL     1     -10.089   8.388  69.215  1.00  0.00    -0.202 C  
HETATM   25  C   UNL     1      -9.954   7.771  70.236  1.00  0.00    -0.189 C  
ENDBRANCH  21  24
ENDBRANCH  16  18
ENDBRANCH  11  16
BRANCH  13  26
HETATM   26  O   UNL     1      -8.209  15.189  68.952  1.00  0.00    -0.156 OA 
BRANCH  26  27
HETATM   27  C   UNL     1      -6.801  15.007  68.808  1.00  0.00    -0.105 C  
BRANCH  27  28
HETATM   28  C   UNL     1      -6.492  13.903  67.802  1.00  0.00    -0.168 C  
BRANCH  28  29
HETATM   29  O   UNL     1      -6.869  12.655  68.393  1.00  0.00    -0.076 OA 
HETATM   30  C   UNL     1      -6.951  11.612  67.436  1.00  0.00    -0.117 C  
ENDBRANCH  28  29
ENDBRANCH  27  28
ENDBRANCH  26  27
ENDBRANCH  13  26
ENDBRANCH   5   6
ENDBRANCH   4   5
ENDBRANCH   3   4
ENDBRANCH   2   3
TORSDOF 11
ENDMDL
MODEL       86
REMARK 921   NORMALIZED FREE ENERGY PREDICTED BY IDOCK:   -4.88 KCAL/MOL
REMARK 922        TOTAL FREE ENERGY PREDICTED BY IDOCK:   -9.15 KCAL/MOL
REMARK 923 INTER-LIGAND FREE ENERGY PREDICTED BY IDOCK:   -7.86 KCAL/MOL
REMARK 924 INTRA-LIGAND FREE ENERGY PREDICTED BY IDOCK:   -1.29 KCAL/MOL
REMARK 927      BINDING AFFINITY PREDICTED BY RF-SCORE:    0.00 PKD
ROOT
HETATM    1  C   UNL     1     -10.299  19.787  67.262  1.00  0.00    -0.449 C  
HETATM    2  O   UNL     1     -10.173  19.403  68.626  1.00  0.00    -0.421 OA 
ENDROOT
BRANCH   2   3
HETATM    3  C   UNL     1     -10.137  17.985  68.757  1.00  0.00    -0.381 C  
BRANCH   3   4
HETATM    4  C   UNL     1     -10.683  17.325  67.493  1.00  0.00    -0.278 C  
BRANCH   4   5
HETATM    5  O   UNL     1     -11.110  16.018  67.861  1.00  0.00    -0.338 OA 
BRANCH   5   6
HETATM    6  C   UNL     1     -10.951  14.970  67.007  1.00  0.00    -0.318 A  
HETATM    7  C   UNL     1     -11.883  14.655  66.012  1.00  0.00    -0.280 A  
HETATM    8  C   UNL     1     -11.724  13.574  65.159  1.00  0.00    -0.322 A  
HETATM    9  C   UNL     1     -10.574  12.780  65.259  1.00  0.00    -0.312 A  
HETATM   10  C   UNL     1      -9.609  13.113  66.249  1.00  0.00    -0.241 A  
HETATM   11  C   UNL     1     -10.495  11.711  64.336  1.00  0.00    -0.322 A  
HETATM   12  N   UNL     1     -11.486  11.471  63.457  1.00  0.00    -0.346 NA 
HETATM   13  C   UNL     1      -9.797  14.184  67.133  1.00  0.00    -0.253 A  
HETATM   14  N   UNL     1     -12.693  13.348  64.272  1.00  0.00    -0.656 NA 
HETATM   15  C   UNL     1     -12.532  12.298  63.466  1.00  0.00    -0.534 A  
BRANCH  11  16
HETATM   16  N   UNL     1      -9.322  10.913  64.287  1.00  0.00    -0.222 NA 
HETATM   17  H   UNL     1      -8.543  11.322  63.771  1.00  0.00     0.000 HD 
BRANCH  16  18
HETATM   18  C   UNL     1      -9.067   9.637  64.844  1.00  0.00    -0.232 A  
HETATM   19  C   UNL     1      -8.315   8.704  64.108  1.00  0.00    -0.133 A  
HETATM   20  C   UNL     1      -8.727   6.985  65.764  1.00  0.00    -0.116 A  
HETATM   21  C   UNL     1      -8.148   7.388  64.562  1.00  0.00    -0.079 A  
HETATM   22  C   UNL     1      -9.647   9.199  66.043  1.00  0.00    -0.342 A  
HETATM   23  C   UNL     1      -9.470   7.893  66.509  1.00  0.00    -0.277 A  
BRANCH  21  24
HETATM   24  C   UNL     1      -7.417   6.433  63.784  1.00  0.00    -0.084 C  
HETATM   25  C   UNL     1      -6.773   5.675  63.112  1.00  0.00    -0.032 C  
ENDBRANCH  21  24
ENDBRANCH  16  18
ENDBRANCH  11  16
BRANCH  13  26
HETATM   26  O   UNL     1      -8.770  14.311  68.042  1.00  0.00    -0.161 OA 
BRANCH  26  27
HETATM   27  C   UNL     1      -7.446  14.031  67.589  1.00  0.00    -0.174 C  
BRANCH  27  28
HETATM   28  C   UNL     1      -6.521  15.218  67.835  1.00  0.00    -0.156 C  
BRANCH  28  29
HETATM   29  O   UNL     1      -7.302  16.411  67.725  1.00  0.00    -0.128 OA 
HETATM   30  C   UNL     1      -7.131  17.049  66.469  1.00  0.00    -0.271 C  
ENDBRANCH  28  29
ENDBRANCH  27  28
ENDBRANCH  26  27
ENDBRANCH  13  26
ENDBRANCH   5   6
ENDBRANCH   4   5
ENDBRANCH   3   4
ENDBRANCH   2   3
TORSDOF 11
ENDMDL
MODEL       87
REMARK 921   NORMALIZED FREE ENERGY PREDICTED BY IDOCK:   -4.87 KCAL/MOL
REMARK 922        TOTAL FREE ENERGY PREDICTED BY IDOCK:   -9.13 KCAL/MOL
REMARK 923 INTER-LIGAND FREE ENERGY PREDICTED BY IDOCK:   -7.90 KCAL/MOL
REMARK 924 INTRA-LIGAND FREE ENERGY PREDICTED BY IDOCK:   -1.23 KCAL/MOL
REMARK 927      BINDING AFFINITY PREDICTED BY RF-SCORE:    0.00 PKD
ROOT
HETATM    1  C   UNL     1      -8.735  19.779  66.171  1.00  0.00    -0.332 C  
HETATM    2  O   UNL     1      -9.032  20.570  67.316  1.00  0.00    -0.356 OA 
ENDROOT
BRANCH   2   3
HETATM    3  C   UNL     1      -9.940  19.895  68.182  1.00  0.00    -0.427 C  
BRANCH   3   4
HETATM    4  C   UNL     1     -10.577  18.711  67.458  1.00  0.00    -0.423 C  
BRANCH   4   5
HETATM    5  O   UNL     1     -10.793  17.698  68.434  1.00  0.00    -0.294 OA 
BRANCH   5   6
HETATM    6  C   UNL     1     -10.015  16.581  68.458  1.00  0.00    -0.251 A  
HETATM    7  C   UNL     1      -8.637  16.612  68.212  1.00  0.00    -0.212 A  
HETATM    8  C   UNL     1      -7.854  15.468  68.218  1.00  0.00    -0.127 A  
HETATM    9  C   UNL     1      -8.443  14.231  68.516  1.00  0.00    -0.164 A  
HETATM   10  C   UNL     1      -9.836  14.198  68.796  1.00  0.00    -0.168 A  
HETATM   11  C   UNL     1      -7.560  13.127  68.513  1.00  0.00    -0.122 A  
HETATM   12  N   UNL     1      -6.258  13.271  68.205  1.00  0.00    -0.096 NA 
HETATM   13  C   UNL     1     -10.627  15.354  68.749  1.00  0.00    -0.235 A  
HETATM   14  N   UNL     1      -6.560  15.612  67.936  1.00  0.00    -0.139 NA 
HETATM   15  C   UNL     1      -5.822  14.502  67.934  1.00  0.00    -0.125 A  
BRANCH  11  16
HETATM   16  N   UNL     1      -8.037  11.848  68.906  1.00  0.00    -0.350 NA 
HETATM   17  H   UNL     1      -7.813  11.579  69.863  1.00  0.00     0.000 HD 
BRANCH  16  18
HETATM   18  C   UNL     1      -8.777  10.890  68.171  1.00  0.00    -0.133 A  
HETATM   19  C   UNL     1      -8.828  10.990  66.770  1.00  0.00    -0.158 A  
HETATM   20  C   UNL     1     -10.431   9.179  66.645  1.00  0.00    -0.237 A  
HETATM   21  C   UNL     1      -9.650  10.144  66.012  1.00  0.00    -0.265 A  
HETATM   22  C   UNL     1      -9.582   9.917  68.781  1.00  0.00    -0.160 A  
HETATM   23  C   UNL     1     -10.391   9.060  68.030  1.00  0.00    -0.275 A  
BRANCH  21  24
HETATM   24  C   UNL     1      -9.729  10.282  64.589  1.00  0.00    -0.398 C  
HETATM   25  C   UNL     1      -9.757  10.357  63.391  1.00  0.00    -0.318 C  
ENDBRANCH  21  24
ENDBRANCH  16  18
ENDBRANCH  11  16
BRANCH  13  26
HETATM   26  O   UNL     1     -11.956  15.101  69.006  1.00  0.00    -0.309 OA 
BRANCH  26  27
HETATM   27  C   UNL     1     -12.305  14.664  70.319  1.00  0.00    -0.349 C  
BRANCH  27  28
HETATM   28  C   UNL     1     -12.073  15.770  71.344  1.00  0.00    -0.438 C  
BRANCH  28  29
HETATM   29  O   UNL     1     -13.269  15.906  72.118  1.00  0.00    -0.451 OA 
HETATM   30  C   UNL     1     -13.000  15.972  73.509  1.00  0.00    -0.586 C  
ENDBRANCH  28  29
ENDBRANCH  27  28
ENDBRANCH  26  27
ENDBRANCH  13  26
ENDBRANCH   5   6
ENDBRANCH   4   5
ENDBRANCH   3   4
ENDBRANCH   2   3
TORSDOF 11
ENDMDL
MODEL       88
REMARK 921   NORMALIZED FREE ENERGY PREDICTED BY IDOCK:   -4.85 KCAL/MOL
REMARK 922        TOTAL FREE ENERGY PREDICTED BY IDOCK:   -9.10 KCAL/MOL
REMARK 923 INTER-LIGAND FREE ENERGY PREDICTED BY IDOCK:   -8.02 KCAL/MOL
REMARK 924 INTRA-LIGAND FREE ENERGY PREDICTED BY IDOCK:   -1.09 KCAL/MOL
REMARK 927      BINDING AFFINITY PREDICTED BY RF-SCORE:    0.00 PKD
ROOT
HETATM    1  C   UNL     1      -9.362   4.381  73.317  1.00  0.00    -0.119 C  
HETATM    2  O   UNL     1      -8.594   5.528  72.972  1.00  0.00    -0.122 OA 
ENDROOT
BRANCH   2   3
HETATM    3  C   UNL     1      -8.298   5.546  71.578  1.00  0.00    -0.123 C  
BRANCH   3   4
HETATM    4  C   UNL     1      -8.157   6.985  71.088  1.00  0.00    -0.105 C  
BRANCH   4   5
HETATM    5  O   UNL     1      -9.473   7.473  70.854  1.00  0.00    -0.164 OA 
BRANCH   5   6
HETATM    6  C   UNL     1      -9.737   8.268  69.782  1.00  0.00    -0.180 A  
HETATM    7  C   UNL     1      -9.250   7.996  68.497  1.00  0.00    -0.135 A  
HETATM    8  C   UNL     1      -9.506   8.822  67.414  1.00  0.00    -0.146 A  
HETATM    9  C   UNL     1     -10.312   9.956  67.586  1.00  0.00    -0.275 A  
HETATM   10  C   UNL     1     -10.833  10.221  68.882  1.00  0.00    -0.263 A  
HETATM   11  C   UNL     1     -10.528  10.726  66.420  1.00  0.00    -0.233 A  
HETATM   12  N   UNL     1      -9.958  10.394  65.246  1.00  0.00    -0.293 NA 
HETATM   13  C   UNL     1     -10.537   9.402  69.980  1.00  0.00    -0.235 A  
HETATM   14  N   UNL     1      -8.962   8.483  66.246  1.00  0.00    -0.157 NA 
HETATM   15  C   UNL     1      -9.207   9.292  65.215  1.00  0.00    -0.212 A  
BRANCH  11  16
HETATM   16  N   UNL     1     -11.414  11.834  66.467  1.00  0.00    -0.456 NA 
HETATM   17  H   UNL     1     -12.234  11.707  67.060  1.00  0.00     0.000 HD 
BRANCH  16  18
HETATM   18  C   UNL     1     -11.334  13.089  65.815  1.00  0.00    -0.301 A  
HETATM   19  C   UNL     1     -10.285  13.965  66.142  1.00  0.00    -0.307 A  
HETATM   20  C   UNL     1     -11.239  15.709  64.758  1.00  0.00    -0.391 A  
HETATM   21  C   UNL     1     -10.238  15.266  65.621  1.00  0.00    -0.398 A  
HETATM   22  C   UNL     1     -12.332  13.565  64.954  1.00  0.00    -0.447 A  
HETATM   23  C   UNL     1     -12.282  14.855  64.418  1.00  0.00    -0.399 A  
BRANCH  21  24
HETATM   24  C   UNL     1      -9.189  16.167  65.994  1.00  0.00    -0.363 C  
HETATM   25  C   UNL     1      -8.312  16.901  66.359  1.00  0.00    -0.333 C  
ENDBRANCH  21  24
ENDBRANCH  16  18
ENDBRANCH  11  16
BRANCH  13  26
HETATM   26  O   UNL     1     -11.101   9.857  71.151  1.00  0.00    -0.350 OA 
BRANCH  26  27
HETATM   27  C   UNL     1     -12.355  10.532  71.063  1.00  0.00    -0.399 C  
BRANCH  27  28
HETATM   28  C   UNL     1     -13.485   9.662  71.603  1.00  0.00    -0.374 C  
BRANCH  28  29
HETATM   29  O   UNL     1     -12.896   8.512  72.217  1.00  0.00    -0.355 OA 
HETATM   30  C   UNL     1     -13.282   7.306  71.577  1.00  0.00    -0.379 C  
ENDBRANCH  28  29
ENDBRANCH  27  28
ENDBRANCH  26  27
ENDBRANCH  13  26
ENDBRANCH   5   6
ENDBRANCH   4   5
ENDBRANCH   3   4
ENDBRANCH   2   3
TORSDOF 11
ENDMDL
MODEL       89
REMARK 921   NORMALIZED FREE ENERGY PREDICTED BY IDOCK:   -4.83 KCAL/MOL
REMARK 922        TOTAL FREE ENERGY PREDICTED BY IDOCK:   -9.06 KCAL/MOL
REMARK 923 INTER-LIGAND FREE ENERGY PREDICTED BY IDOCK:   -8.35 KCAL/MOL
REMARK 924 INTRA-LIGAND FREE ENERGY PREDICTED BY IDOCK:   -0.72 KCAL/MOL
REMARK 927      BINDING AFFINITY PREDICTED BY RF-SCORE:    0.00 PKD
ROOT
HETATM    1  C   UNL     1     -12.050  12.590  63.500  1.00  0.00    -0.562 C  
HETATM    2  O   UNL     1     -13.065  13.193  64.296  1.00  0.00    -0.499 OA 
ENDROOT
BRANCH   2   3
HETATM    3  C   UNL     1     -12.502  14.093  65.247  1.00  0.00    -0.461 C  
BRANCH   3   4
HETATM    4  C   UNL     1     -11.187  13.535  65.785  1.00  0.00    -0.297 C  
BRANCH   4   5
HETATM    5  O   UNL     1     -11.504  12.777  66.947  1.00  0.00    -0.303 OA 
BRANCH   5   6
HETATM    6  C   UNL     1     -10.921  11.566  67.165  1.00  0.00    -0.286 A  
HETATM    7  C   UNL     1     -10.394  10.781  66.133  1.00  0.00    -0.300 A  
HETATM    8  C   UNL     1      -9.820   9.539  66.361  1.00  0.00    -0.253 A  
HETATM    9  C   UNL     1      -9.722   9.056  67.672  1.00  0.00    -0.196 A  
HETATM   10  C   UNL     1     -10.228   9.863  68.728  1.00  0.00    -0.205 A  
HETATM   11  C   UNL     1      -9.107   7.789  67.804  1.00  0.00    -0.134 A  
HETATM   12  N   UNL     1      -8.689   7.098  66.727  1.00  0.00    -0.122 NA 
HETATM   13  C   UNL     1     -10.842  11.099  68.485  1.00  0.00    -0.203 A  
HETATM   14  N   UNL     1      -9.384   8.864  65.298  1.00  0.00    -0.113 NA 
HETATM   15  C   UNL     1      -8.845   7.668  65.531  1.00  0.00     0.008 A  
BRANCH  11  16
HETATM   16  N   UNL     1      -8.864   7.260  69.098  1.00  0.00    -0.136 NA 
HETATM   17  H   UNL     1      -7.887   7.260  69.389  1.00  0.00     0.000 HD 
BRANCH  16  18
HETATM   18  C   UNL     1      -9.772   6.731  70.048  1.00  0.00    -0.163 A  
HETATM   19  C   UNL     1     -11.054   7.299  70.162  1.00  0.00    -0.281 A  
HETATM   20  C   UNL     1     -11.556   5.912  72.083  1.00  0.00    -0.314 A  
HETATM   21  C   UNL     1     -11.937   6.895  71.174  1.00  0.00    -0.413 A  
HETATM   22  C   UNL     1      -9.412   5.752  70.985  1.00  0.00    -0.195 A  
HETATM   23  C   UNL     1     -10.295   5.334  71.984  1.00  0.00    -0.273 A  
BRANCH  21  24
HETATM   24  C   UNL     1     -13.224   7.510  71.309  1.00  0.00    -0.313 C  
HETATM   25  C   UNL     1     -14.326   7.978  71.403  1.00  0.00    -0.490 C  
ENDBRANCH  21  24
ENDBRANCH  16  18
ENDBRANCH  11  16
BRANCH  13  26
HETATM   26  O   UNL     1     -11.304  11.700  69.635  1.00  0.00    -0.264 OA 
BRANCH  26  27
HETATM   27  C   UNL     1     -11.817  10.854  70.664  1.00  0.00    -0.352 C  
BRANCH  27  28
HETATM   28  C   UNL     1     -12.849  11.589  71.512  1.00  0.00    -0.380 C  
BRANCH  28  29
HETATM   29  O   UNL     1     -12.750  12.984  71.210  1.00  0.00    -0.368 OA 
HETATM   30  C   UNL     1     -13.574  13.774  72.052  1.00  0.00    -0.479 C  
ENDBRANCH  28  29
ENDBRANCH  27  28
ENDBRANCH  26  27
ENDBRANCH  13  26
ENDBRANCH   5   6
ENDBRANCH   4   5
ENDBRANCH   3   4
ENDBRANCH   2   3
TORSDOF 11
ENDMDL
MODEL       90
REMARK 921   NORMALIZED FREE ENERGY PREDICTED BY IDOCK:   -4.82 KCAL/MOL
REMARK 922        TOTAL FREE ENERGY PREDICTED BY IDOCK:   -9.06 KCAL/MOL
REMARK 923 INTER-LIGAND FREE ENERGY PREDICTED BY IDOCK:   -8.27 KCAL/MOL
REMARK 924 INTRA-LIGAND FREE ENERGY PREDICTED BY IDOCK:   -0.80 KCAL/MOL
REMARK 927      BINDING AFFINITY PREDICTED BY RF-SCORE:    0.00 PKD
ROOT
HETATM    1  C   UNL     1      -7.630  19.253  68.048  1.00  0.00    -0.284 C  
HETATM    2  O   UNL     1      -8.970  19.723  68.146  1.00  0.00    -0.328 OA 
ENDROOT
BRANCH   2   3
HETATM    3  C   UNL     1      -9.740  18.896  69.013  1.00  0.00    -0.303 C  
BRANCH   3   4
HETATM    4  C   UNL     1      -9.709  17.450  68.526  1.00  0.00    -0.304 C  
BRANCH   4   5
HETATM    5  O   UNL     1     -10.990  16.894  68.799  1.00  0.00    -0.311 OA 
BRANCH   5   6
HETATM    6  C   UNL     1     -11.178  15.546  68.791  1.00  0.00    -0.315 A  
HETATM    7  C   UNL     1     -11.836  14.866  69.823  1.00  0.00    -0.356 A  
HETATM    8  C   UNL     1     -12.005  13.489  69.817  1.00  0.00    -0.340 A  
HETATM    9  C   UNL     1     -11.539  12.742  68.728  1.00  0.00    -0.353 A  
HETATM   10  C   UNL     1     -10.896  13.431  67.663  1.00  0.00    -0.273 A  
HETATM   11  C   UNL     1     -11.772  11.349  68.807  1.00  0.00    -0.339 A  
HETATM   12  N   UNL     1     -12.368  10.799  69.882  1.00  0.00    -0.316 NA 
HETATM   13  C   UNL     1     -10.695  14.817  67.694  1.00  0.00    -0.270 A  
HETATM   14  N   UNL     1     -12.615  12.946  70.870  1.00  0.00    -0.320 NA 
HETATM   15  C   UNL     1     -12.761  11.621  70.857  1.00  0.00    -0.258 A  
BRANCH  11  16
HETATM   16  N   UNL     1     -11.433  10.518  67.708  1.00  0.00    -0.625 NA 
HETATM   17  H   UNL     1     -12.087  10.547  66.926  1.00  0.00     0.000 HD 
BRANCH  16  18
HETATM   18  C   UNL     1     -10.325   9.654  67.529  1.00  0.00    -0.241 A  
HETATM   19  C   UNL     1     -10.552   8.288  67.286  1.00  0.00    -0.335 A  
HETATM   20  C   UNL     1      -8.180   7.816  67.415  1.00  0.00    -0.123 A  
HETATM   21  C   UNL     1      -9.489   7.375  67.233  1.00  0.00    -0.179 A  
HETATM   22  C   UNL     1      -8.999  10.067  67.721  1.00  0.00    -0.133 A  
HETATM   23  C   UNL     1      -7.934   9.164  67.652  1.00  0.00    -0.100 A  
BRANCH  21  24
HETATM   24  C   UNL     1      -9.734   5.979  67.028  1.00  0.00    -0.159 C  
HETATM   25  C   UNL     1      -9.987   4.822  66.829  1.00  0.00    -0.253 C  
ENDBRANCH  21  24
ENDBRANCH  16  18
ENDBRANCH  11  16
BRANCH  13  26
HETATM   26  O   UNL     1     -10.015  15.282  66.591  1.00  0.00    -0.241 OA 
BRANCH  26  27
HETATM   27  C   UNL     1     -10.529  14.939  65.304  1.00  0.00    -0.404 C  
BRANCH  27  28
HETATM   28  C   UNL     1     -11.174  16.147  64.633  1.00  0.00    -0.298 C  
BRANCH  28  29
HETATM   29  O   UNL     1     -12.472  15.752  64.178  1.00  0.00    -0.599 OA 
HETATM   30  C   UNL     1     -12.883  14.516  64.740  1.00  0.00     0.094 C  
ENDBRANCH  28  29
ENDBRANCH  27  28
ENDBRANCH  26  27
ENDBRANCH  13  26
ENDBRANCH   5   6
ENDBRANCH   4   5
ENDBRANCH   3   4
ENDBRANCH   2   3
TORSDOF 11
ENDMDL
MODEL       91
REMARK 921   NORMALIZED FREE ENERGY PREDICTED BY IDOCK:   -4.82 KCAL/MOL
REMARK 922        TOTAL FREE ENERGY PREDICTED BY IDOCK:   -9.05 KCAL/MOL
REMARK 923 INTER-LIGAND FREE ENERGY PREDICTED BY IDOCK:   -8.00 KCAL/MOL
REMARK 924 INTRA-LIGAND FREE ENERGY PREDICTED BY IDOCK:   -1.05 KCAL/MOL
REMARK 927      BINDING AFFINITY PREDICTED BY RF-SCORE:    0.00 PKD
ROOT
HETATM    1  C   UNL     1     -12.229  14.836  64.465  1.00  0.00    -0.428 C  
HETATM    2  O   UNL     1     -13.053  13.793  64.973  1.00  0.00    -0.751 OA 
ENDROOT
BRANCH   2   3
HETATM    3  C   UNL     1     -12.266  12.753  65.547  1.00  0.00    -0.463 C  
BRANCH   3   4
HETATM    4  C   UNL     1     -10.901  13.293  65.963  1.00  0.00    -0.273 C  
BRANCH   4   5
HETATM    5  O   UNL     1     -10.966  13.548  67.361  1.00  0.00    -0.265 OA 
BRANCH   5   6
HETATM    6  C   UNL     1     -10.900  12.526  68.257  1.00  0.00    -0.234 A  
HETATM    7  C   UNL     1     -11.951  12.212  69.127  1.00  0.00    -0.311 A  
HETATM    8  C   UNL     1     -11.869  11.181  70.052  1.00  0.00    -0.361 A  
HETATM    9  C   UNL     1     -10.712  10.392  70.103  1.00  0.00    -0.292 A  
HETATM   10  C   UNL     1      -9.653  10.688  69.201  1.00  0.00    -0.193 A  
HETATM   11  C   UNL     1     -10.730   9.357  71.066  1.00  0.00    -0.337 A  
HETATM   12  N   UNL     1     -11.780   9.186  71.892  1.00  0.00    -0.371 NA 
HETATM   13  C   UNL     1      -9.729  11.756  68.297  1.00  0.00    -0.199 A  
HETATM   14  N   UNL     1     -12.917  10.995  70.853  1.00  0.00    -0.284 NA 
HETATM   15  C   UNL     1     -12.819  10.009  71.744  1.00  0.00    -0.446 A  
BRANCH  11  16
HETATM   16  N   UNL     1      -9.650   8.437  71.126  1.00  0.00    -0.166 NA 
HETATM   17  H   UNL     1      -8.796   8.800  71.546  1.00  0.00     0.000 HD 
BRANCH  16  18
HETATM   18  C   UNL     1      -9.579   7.091  70.692  1.00  0.00    -0.165 A  
HETATM   19  C   UNL     1      -9.856   6.789  69.347  1.00  0.00    -0.162 A  
HETATM   20  C   UNL     1      -9.711   4.413  69.795  1.00  0.00    -0.291 A  
HETATM   21  C   UNL     1      -9.926   5.461  68.902  1.00  0.00    -0.247 A  
HETATM   22  C   UNL     1      -9.380   6.016  71.570  1.00  0.00    -0.161 A  
HETATM   23  C   UNL     1      -9.430   4.691  71.129  1.00  0.00    -0.220 A  
BRANCH  21  24
HETATM   24  C   UNL     1     -10.252   5.161  67.540  1.00  0.00    -0.210 C  
HETATM   25  C   UNL     1     -10.493   4.864  66.402  1.00  0.00    -0.325 C  
ENDBRANCH  21  24
ENDBRANCH  16  18
ENDBRANCH  11  16
BRANCH  13  26
HETATM   26  O   UNL     1      -8.584  11.900  67.546  1.00  0.00    -0.147 OA 
BRANCH  26  27
HETATM   27  C   UNL     1      -7.437  12.456  68.188  1.00  0.00    -0.118 C  
BRANCH  27  28
HETATM   28  C   UNL     1      -7.556  13.972  68.306  1.00  0.00    -0.135 C  
BRANCH  28  29
HETATM   29  O   UNL     1      -6.716  14.555  67.305  1.00  0.00    -0.274 OA 
HETATM   30  C   UNL     1      -7.082  15.894  67.013  1.00  0.00    -0.172 C  
ENDBRANCH  28  29
ENDBRANCH  27  28
ENDBRANCH  26  27
ENDBRANCH  13  26
ENDBRANCH   5   6
ENDBRANCH   4   5
ENDBRANCH   3   4
ENDBRANCH   2   3
TORSDOF 11
ENDMDL
MODEL       92
REMARK 921   NORMALIZED FREE ENERGY PREDICTED BY IDOCK:   -4.81 KCAL/MOL
REMARK 922        TOTAL FREE ENERGY PREDICTED BY IDOCK:   -9.04 KCAL/MOL
REMARK 923 INTER-LIGAND FREE ENERGY PREDICTED BY IDOCK:   -7.91 KCAL/MOL
REMARK 924 INTRA-LIGAND FREE ENERGY PREDICTED BY IDOCK:   -1.13 KCAL/MOL
REMARK 927      BINDING AFFINITY PREDICTED BY RF-SCORE:    0.00 PKD
ROOT
HETATM    1  C   UNL     1     -12.166  15.566  71.564  1.00  0.00    -0.397 C  
HETATM    2  O   UNL     1     -13.548  15.819  71.337  1.00  0.00    -0.526 OA 
ENDROOT
BRANCH   2   3
HETATM    3  C   UNL     1     -14.361  14.878  72.032  1.00  0.00    -0.561 C  
BRANCH   3   4
HETATM    4  C   UNL     1     -13.538  13.650  72.412  1.00  0.00    -0.602 C  
BRANCH   4   5
HETATM    5  O   UNL     1     -13.756  12.677  71.397  1.00  0.00     0.158 OA 
BRANCH   5   6
HETATM    6  C   UNL     1     -12.817  11.727  71.134  1.00  0.00    -0.267 A  
HETATM    7  C   UNL     1     -12.815  10.471  71.753  1.00  0.00    -0.559 A  
HETATM    8  C   UNL     1     -11.844   9.516  71.495  1.00  0.00    -0.405 A  
HETATM    9  C   UNL     1     -10.841   9.789  70.555  1.00  0.00    -0.387 A  
HETATM   10  C   UNL     1     -10.856  11.051  69.902  1.00  0.00    -0.142 A  
HETATM   11  C   UNL     1      -9.907   8.747  70.350  1.00  0.00    -0.182 A  
HETATM   12  N   UNL     1      -9.973   7.599  71.049  1.00  0.00    -0.182 NA 
HETATM   13  C   UNL     1     -11.819  12.026  70.197  1.00  0.00    -0.301 A  
HETATM   14  N   UNL     1     -11.922   8.369  72.170  1.00  0.00    -0.350 NA 
HETATM   15  C   UNL     1     -10.974   7.465  71.920  1.00  0.00    -0.233 A  
BRANCH  11  16
HETATM   16  N   UNL     1      -8.916   8.884  69.343  1.00  0.00    -0.142 NA 
HETATM   17  H   UNL     1      -8.021   9.252  69.664  1.00  0.00     0.000 HD 
BRANCH  16  18
HETATM   18  C   UNL     1      -8.980   8.585  67.959  1.00  0.00    -0.141 A  
HETATM   19  C   UNL     1      -9.348   9.598  67.056  1.00  0.00    -0.180 A  
HETATM   20  C   UNL     1      -9.380   8.021  65.219  1.00  0.00     0.485 A  
HETATM   21  C   UNL     1      -9.550   9.318  65.697  1.00  0.00    -0.324 A  
HETATM   22  C   UNL     1      -8.828   7.288  67.451  1.00  0.00    -0.119 A  
HETATM   23  C   UNL     1      -9.012   7.006  66.095  1.00  0.00    -0.162 A  
BRANCH  21  24
HETATM   24  C   UNL     1      -9.967  10.347  64.792  1.00  0.00    -0.409 C  
HETATM   25  C   UNL     1     -10.329  11.242  64.078  1.00  0.00    -0.430 C  
ENDBRANCH  21  24
ENDBRANCH  16  18
ENDBRANCH  11  16
BRANCH  13  26
HETATM   26  O   UNL     1     -11.630  13.192  69.489  1.00  0.00    -0.285 OA 
BRANCH  26  27
HETATM   27  C   UNL     1     -11.346  13.082  68.095  1.00  0.00    -0.294 C  
BRANCH  27  28
HETATM   28  C   UNL     1     -11.191  14.459  67.458  1.00  0.00    -0.315 C  
BRANCH  28  29
HETATM   29  O   UNL     1     -10.588  14.280  66.172  1.00  0.00    -0.284 OA 
HETATM   30  C   UNL     1     -10.156  15.508  65.609  1.00  0.00    -0.376 C  
ENDBRANCH  28  29
ENDBRANCH  27  28
ENDBRANCH  26  27
ENDBRANCH  13  26
ENDBRANCH   5   6
ENDBRANCH   4   5
ENDBRANCH   3   4
ENDBRANCH   2   3
TORSDOF 11
ENDMDL
MODEL       93
REMARK 921   NORMALIZED FREE ENERGY PREDICTED BY IDOCK:   -4.81 KCAL/MOL
REMARK 922        TOTAL FREE ENERGY PREDICTED BY IDOCK:   -9.03 KCAL/MOL
REMARK 923 INTER-LIGAND FREE ENERGY PREDICTED BY IDOCK:   -8.27 KCAL/MOL
REMARK 924 INTRA-LIGAND FREE ENERGY PREDICTED BY IDOCK:   -0.77 KCAL/MOL
REMARK 927      BINDING AFFINITY PREDICTED BY RF-SCORE:    0.00 PKD
ROOT
HETATM    1  C   UNL     1     -10.212  17.251  66.421  1.00  0.00    -0.331 C  
HETATM    2  O   UNL     1     -10.352  16.608  65.159  1.00  0.00    -0.630 OA 
ENDROOT
BRANCH   2   3
HETATM    3  C   UNL     1     -11.091  15.396  65.281  1.00  0.00    -0.360 C  
BRANCH   3   4
HETATM    4  C   UNL     1     -10.923  14.816  66.683  1.00  0.00    -0.326 C  
BRANCH   4   5
HETATM    5  O   UNL     1     -10.948  13.399  66.549  1.00  0.00    -0.287 OA 
BRANCH   5   6
HETATM    6  C   UNL     1     -11.317  12.610  67.596  1.00  0.00    -0.310 A  
HETATM    7  C   UNL     1     -11.874  13.125  68.773  1.00  0.00    -0.361 A  
HETATM    8  C   UNL     1     -12.228  12.317  69.843  1.00  0.00    -0.163 A  
HETATM    9  C   UNL     1     -12.064  10.929  69.743  1.00  0.00    -0.409 A  
HETATM   10  C   UNL     1     -11.527  10.399  68.538  1.00  0.00    -0.231 A  
HETATM   11  C   UNL     1     -12.469  10.190  70.879  1.00  0.00    -0.360 A  
HETATM   12  N   UNL     1     -12.940  10.803  71.982  1.00  0.00    -0.428 NA 
HETATM   13  C   UNL     1     -11.135  11.226  67.477  1.00  0.00    -0.286 A  
HETATM   14  N   UNL     1     -12.716  12.920  70.927  1.00  0.00    -0.259 NA 
HETATM   15  C   UNL     1     -13.042  12.132  71.952  1.00  0.00    -0.369 A  
BRANCH  11  16
HETATM   16  N   UNL     1     -12.442   8.772  70.838  1.00  0.00    -0.492 NA 
HETATM   17  H   UNL     1     -13.326   8.330  70.584  1.00  0.00     0.000 HD 
BRANCH  16  18
HETATM   18  C   UNL     1     -11.376   7.875  71.094  1.00  0.00    -0.266 A  
HETATM   19  C   UNL     1     -11.636   6.683  71.792  1.00  0.00    -0.347 A  
HETATM   20  C   UNL     1      -9.274   6.153  71.873  1.00  0.00    -0.150 A  
HETATM   21  C   UNL     1     -10.594   5.829  72.182  1.00  0.00    -0.268 A  
HETATM   22  C   UNL     1     -10.038   8.180  70.808  1.00  0.00    -0.211 A  
HETATM   23  C   UNL     1      -8.997   7.325  71.178  1.00  0.00    -0.147 A  
BRANCH  21  24
HETATM   24  C   UNL     1     -10.864   4.639  72.931  1.00  0.00    -0.295 C  
HETATM   25  C   UNL     1     -11.143   3.641  73.538  1.00  0.00    -0.320 C  
ENDBRANCH  21  24
ENDBRANCH  16  18
ENDBRANCH  11  16
BRANCH  13  26
HETATM   26  O   UNL     1     -10.599  10.520  66.422  1.00  0.00    -0.219 OA 
BRANCH  26  27
HETATM   27  C   UNL     1      -9.182  10.348  66.393  1.00  0.00    -0.161 C  
BRANCH  27  28
HETATM   28  C   UNL     1      -8.743   9.257  67.364  1.00  0.00    -0.118 C  
BRANCH  28  29
HETATM   29  O   UNL     1      -7.359   8.989  67.124  1.00  0.00    -0.085 OA 
HETATM   30  C   UNL     1      -6.807   8.114  68.095  1.00  0.00    -0.076 C  
ENDBRANCH  28  29
ENDBRANCH  27  28
ENDBRANCH  26  27
ENDBRANCH  13  26
ENDBRANCH   5   6
ENDBRANCH   4   5
ENDBRANCH   3   4
ENDBRANCH   2   3
TORSDOF 11
ENDMDL
MODEL       94
REMARK 921   NORMALIZED FREE ENERGY PREDICTED BY IDOCK:   -4.80 KCAL/MOL
REMARK 922        TOTAL FREE ENERGY PREDICTED BY IDOCK:   -9.03 KCAL/MOL
REMARK 923 INTER-LIGAND FREE ENERGY PREDICTED BY IDOCK:   -7.84 KCAL/MOL
REMARK 924 INTRA-LIGAND FREE ENERGY PREDICTED BY IDOCK:   -1.19 KCAL/MOL
REMARK 927      BINDING AFFINITY PREDICTED BY RF-SCORE:    0.00 PKD
ROOT
HETATM    1  C   UNL     1      -6.100  19.747  65.053  1.00  0.00    -0.247 C  
HETATM    2  O   UNL     1      -5.261  19.535  66.182  1.00  0.00    -0.156 OA 
ENDROOT
BRANCH   2   3
HETATM    3  C   UNL     1      -5.512  18.264  66.774  1.00  0.00    -0.140 C  
BRANCH   3   4
HETATM    4  C   UNL     1      -6.942  18.204  67.307  1.00  0.00    -0.193 C  
BRANCH   4   5
HETATM    5  O   UNL     1      -6.954  17.237  68.351  1.00  0.00    -0.186 OA 
BRANCH   5   6
HETATM    6  C   UNL     1      -7.682  16.094  68.229  1.00  0.00    -0.148 A  
HETATM    7  C   UNL     1      -7.123  14.880  67.810  1.00  0.00    -0.192 A  
HETATM    8  C   UNL     1      -7.876  13.724  67.669  1.00  0.00    -0.178 A  
HETATM    9  C   UNL     1      -9.240  13.746  67.989  1.00  0.00    -0.195 A  
HETATM   10  C   UNL     1      -9.806  14.968  68.443  1.00  0.00    -0.222 A  
HETATM   11  C   UNL     1      -9.918  12.515  67.827  1.00  0.00    -0.210 A  
HETATM   12  N   UNL     1      -9.284  11.423  67.360  1.00  0.00    -0.162 NA 
HETATM   13  C   UNL     1      -9.047  16.142  68.546  1.00  0.00    -0.208 A  
HETATM   14  N   UNL     1      -7.245  12.636  67.229  1.00  0.00    -0.137 NA 
HETATM   15  C   UNL     1      -7.984  11.535  67.086  1.00  0.00    -0.160 A  
BRANCH  11  16
HETATM   16  N   UNL     1     -11.276  12.406  68.225  1.00  0.00    -0.242 NA 
HETATM   17  H   UNL     1     -11.956  12.520  67.474  1.00  0.00     0.000 HD 
BRANCH  16  18
HETATM   18  C   UNL     1     -11.831  12.162  69.505  1.00  0.00    -0.321 A  
HETATM   19  C   UNL     1     -12.081  10.837  69.902  1.00  0.00    -0.410 A  
HETATM   20  C   UNL     1     -13.168  11.594  71.930  1.00  0.00    -0.475 A  
HETATM   21  C   UNL     1     -12.748  10.554  71.103  1.00  0.00    -0.518 A  
HETATM   22  C   UNL     1     -12.276  13.187  70.351  1.00  0.00    -0.389 A  
HETATM   23  C   UNL     1     -12.925  12.911  71.557  1.00  0.00    -0.388 A  
BRANCH  21  24
HETATM   24  C   UNL     1     -13.037   9.203  71.479  1.00  0.00    -0.409 C  
HETATM   25  C   UNL     1     -13.225   8.057  71.785  1.00  0.00    -0.367 C  
ENDBRANCH  21  24
ENDBRANCH  16  18
ENDBRANCH  11  16
BRANCH  13  26
HETATM   26  O   UNL     1      -9.792  17.224  68.961  1.00  0.00    -0.280 OA 
BRANCH  26  27
HETATM   27  C   UNL     1     -10.990  17.516  68.243  1.00  0.00    -0.099 C  
BRANCH  27  28
HETATM   28  C   UNL     1     -10.782  18.680  67.281  1.00  0.00    -0.394 C  
BRANCH  28  29
HETATM   29  O   UNL     1     -10.162  19.745  68.009  1.00  0.00    -0.415 OA 
HETATM   30  C   UNL     1      -9.555  20.697  67.152  1.00  0.00    -0.393 C  
ENDBRANCH  28  29
ENDBRANCH  27  28
ENDBRANCH  26  27
ENDBRANCH  13  26
ENDBRANCH   5   6
ENDBRANCH   4   5
ENDBRANCH   3   4
ENDBRANCH   2   3
TORSDOF 11
ENDMDL
MODEL       95
REMARK 921   NORMALIZED FREE ENERGY PREDICTED BY IDOCK:   -4.79 KCAL/MOL
REMARK 922        TOTAL FREE ENERGY PREDICTED BY IDOCK:   -9.01 KCAL/MOL
REMARK 923 INTER-LIGAND FREE ENERGY PREDICTED BY IDOCK:   -7.82 KCAL/MOL
REMARK 924 INTRA-LIGAND FREE ENERGY PREDICTED BY IDOCK:   -1.19 KCAL/MOL
REMARK 927      BINDING AFFINITY PREDICTED BY RF-SCORE:    0.00 PKD
ROOT
HETATM    1  C   UNL     1     -10.313  20.002  66.292  1.00  0.00    -0.455 C  
HETATM    2  O   UNL     1     -10.225  19.900  67.708  1.00  0.00    -0.402 OA 
ENDROOT
BRANCH   2   3
HETATM    3  C   UNL     1     -10.278  18.540  68.128  1.00  0.00    -0.378 C  
BRANCH   3   4
HETATM    4  C   UNL     1     -10.463  17.623  66.922  1.00  0.00    -0.290 C  
BRANCH   4   5
HETATM    5  O   UNL     1     -10.955  16.383  67.416  1.00  0.00    -0.263 OA 
BRANCH   5   6
HETATM    6  C   UNL     1     -10.805  15.239  66.694  1.00  0.00    -0.310 A  
HETATM    7  C   UNL     1     -11.729  14.829  65.725  1.00  0.00    -0.252 A  
HETATM    8  C   UNL     1     -11.580  13.652  65.007  1.00  0.00    -0.332 A  
HETATM    9  C   UNL     1     -10.449  12.852  65.221  1.00  0.00    -0.312 A  
HETATM   10  C   UNL     1      -9.494  13.279  66.183  1.00  0.00    -0.153 A  
HETATM   11  C   UNL     1     -10.380  11.681  64.430  1.00  0.00    -0.313 A  
HETATM   12  N   UNL     1     -11.362  11.360  63.567  1.00  0.00    -0.301 NA 
HETATM   13  C   UNL     1      -9.671  14.450  66.932  1.00  0.00    -0.262 A  
HETATM   14  N   UNL     1     -12.540  13.343  64.135  1.00  0.00    -0.662 NA 
HETATM   15  C   UNL     1     -12.389  12.204  63.461  1.00  0.00    -0.574 A  
BRANCH  11  16
HETATM   16  N   UNL     1      -9.224  10.860  64.496  1.00  0.00    -0.237 NA 
HETATM   17  H   UNL     1      -8.366  11.294  64.159  1.00  0.00     0.000 HD 
BRANCH  16  18
HETATM   18  C   UNL     1      -9.081   9.528  64.958  1.00  0.00    -0.228 A  
HETATM   19  C   UNL     1      -9.688   9.154  66.170  1.00  0.00    -0.357 A  
HETATM   20  C   UNL     1      -8.639   6.973  66.084  1.00  0.00    -0.148 A  
HETATM   21  C   UNL     1      -9.467   7.889  66.731  1.00  0.00    -0.257 A  
HETATM   22  C   UNL     1      -8.244   8.591  64.336  1.00  0.00    -0.153 A  
HETATM   23  C   UNL     1      -8.034   7.322  64.881  1.00  0.00    -0.127 A  
BRANCH  21  24
HETATM   24  C   UNL     1     -10.054   7.532  67.987  1.00  0.00    -0.221 C  
HETATM   25  C   UNL     1     -10.523   7.279  69.063  1.00  0.00    -0.219 C  
ENDBRANCH  21  24
ENDBRANCH  16  18
ENDBRANCH  11  16
BRANCH  13  26
HETATM   26  O   UNL     1      -8.657  14.662  67.839  1.00  0.00    -0.153 OA 
BRANCH  26  27
HETATM   27  C   UNL     1      -8.182  13.535  68.575  1.00  0.00    -0.104 C  
BRANCH  27  28
HETATM   28  C   UNL     1      -6.873  13.859  69.287  1.00  0.00    -0.094 C  
BRANCH  28  29
HETATM   29  O   UNL     1      -6.455  15.160  68.864  1.00  0.00    -0.094 OA 
HETATM   30  C   UNL     1      -5.960  15.940  69.940  1.00  0.00    -0.170 C  
ENDBRANCH  28  29
ENDBRANCH  27  28
ENDBRANCH  26  27
ENDBRANCH  13  26
ENDBRANCH   5   6
ENDBRANCH   4   5
ENDBRANCH   3   4
ENDBRANCH   2   3
TORSDOF 11
ENDMDL
MODEL       96
REMARK 921   NORMALIZED FREE ENERGY PREDICTED BY IDOCK:   -4.78 KCAL/MOL
REMARK 922        TOTAL FREE ENERGY PREDICTED BY IDOCK:   -8.99 KCAL/MOL
REMARK 923 INTER-LIGAND FREE ENERGY PREDICTED BY IDOCK:   -7.82 KCAL/MOL
REMARK 924 INTRA-LIGAND FREE ENERGY PREDICTED BY IDOCK:   -1.17 KCAL/MOL
REMARK 927      BINDING AFFINITY PREDICTED BY RF-SCORE:    0.00 PKD
ROOT
HETATM    1  C   UNL     1      -7.674  20.057  65.823  1.00  0.00    -0.235 C  
HETATM    2  O   UNL     1      -6.548  19.504  66.495  1.00  0.00    -0.184 OA 
ENDROOT
BRANCH   2   3
HETATM    3  C   UNL     1      -6.844  18.208  67.007  1.00  0.00    -0.185 C  
BRANCH   3   4
HETATM    4  C   UNL     1      -7.975  18.292  68.030  1.00  0.00    -0.264 C  
BRANCH   4   5
HETATM    5  O   UNL     1      -7.756  17.249  68.973  1.00  0.00    -0.246 OA 
BRANCH   5   6
HETATM    6  C   UNL     1      -8.083  15.962  68.673  1.00  0.00    -0.162 A  
HETATM    7  C   UNL     1      -7.146  15.029  68.213  1.00  0.00    -0.115 A  
HETATM    8  C   UNL     1      -7.491  13.726  67.889  1.00  0.00    -0.152 A  
HETATM    9  C   UNL     1      -8.815  13.300  68.060  1.00  0.00    -0.190 A  
HETATM   10  C   UNL     1      -9.765  14.235  68.554  1.00  0.00    -0.225 A  
HETATM   11  C   UNL     1      -9.064  11.951  67.718  1.00  0.00    -0.180 A  
HETATM   12  N   UNL     1      -8.089  11.161  67.229  1.00  0.00    -0.131 NA 
HETATM   13  C   UNL     1      -9.416  15.562  68.842  1.00  0.00    -0.223 A  
HETATM   14  N   UNL     1      -6.522  12.935  67.428  1.00  0.00    -0.174 NA 
HETATM   15  C   UNL     1      -6.870  11.688  67.110  1.00  0.00    -0.143 A  
BRANCH  11  16
HETATM   16  N   UNL     1     -10.348  11.394  67.954  1.00  0.00    -0.178 NA 
HETATM   17  H   UNL     1     -10.950  11.333  67.133  1.00  0.00     0.000 HD 
BRANCH  16  18
HETATM   18  C   UNL     1     -10.921  10.910  69.155  1.00  0.00    -0.239 A  
HETATM   19  C   UNL     1     -11.823  11.725  69.862  1.00  0.00    -0.423 A  
HETATM   20  C   UNL     1     -11.916  10.133  71.685  1.00  0.00    -0.314 A  
HETATM   21  C   UNL     1     -12.314  11.342  71.118  1.00  0.00    -0.404 A  
HETATM   22  C   UNL     1     -10.530   9.705  69.755  1.00  0.00    -0.263 A  
HETATM   23  C   UNL     1     -11.029   9.310  70.999  1.00  0.00    -0.390 A  
BRANCH  21  24
HETATM   24  C   UNL     1     -13.198  12.199  71.850  1.00  0.00    -0.474 C  
HETATM   25  C   UNL     1     -13.982  12.896  72.434  1.00  0.00    -0.338 C  
ENDBRANCH  21  24
ENDBRANCH  16  18
ENDBRANCH  11  16
BRANCH  13  26
HETATM   26  O   UNL     1     -10.488  16.314  69.266  1.00  0.00    -0.244 OA 
BRANCH  26  27
HETATM   27  C   UNL     1     -11.788  15.733  69.163  1.00  0.00    -0.354 C  
BRANCH  27  28
HETATM   28  C   UNL     1     -12.443  15.610  70.534  1.00  0.00    -0.398 C  
BRANCH  28  29
HETATM   29  O   UNL     1     -11.677  16.391  71.456  1.00  0.00    -0.448 OA 
HETATM   30  C   UNL     1     -12.138  16.248  72.790  1.00  0.00    -0.540 C  
ENDBRANCH  28  29
ENDBRANCH  27  28
ENDBRANCH  26  27
ENDBRANCH  13  26
ENDBRANCH   5   6
ENDBRANCH   4   5
ENDBRANCH   3   4
ENDBRANCH   2   3
TORSDOF 11
ENDMDL
MODEL       97
REMARK 921   NORMALIZED FREE ENERGY PREDICTED BY IDOCK:   -4.78 KCAL/MOL
REMARK 922        TOTAL FREE ENERGY PREDICTED BY IDOCK:   -8.98 KCAL/MOL
REMARK 923 INTER-LIGAND FREE ENERGY PREDICTED BY IDOCK:   -8.13 KCAL/MOL
REMARK 924 INTRA-LIGAND FREE ENERGY PREDICTED BY IDOCK:   -0.85 KCAL/MOL
REMARK 927      BINDING AFFINITY PREDICTED BY RF-SCORE:    0.00 PKD
ROOT
HETATM    1  C   UNL     1      -6.768  19.556  65.353  1.00  0.00    -0.279 C  
HETATM    2  O   UNL     1      -7.257  18.220  65.394  1.00  0.00    -0.541 OA 
ENDROOT
BRANCH   2   3
HETATM    3  C   UNL     1      -8.177  18.045  66.468  1.00  0.00    -0.271 C  
BRANCH   3   4
HETATM    4  C   UNL     1      -7.687  16.944  67.405  1.00  0.00    -0.171 C  
BRANCH   4   5
HETATM    5  O   UNL     1      -8.836  16.416  68.058  1.00  0.00    -0.181 OA 
BRANCH   5   6
HETATM    6  C   UNL     1      -9.055  15.073  68.098  1.00  0.00    -0.178 A  
HETATM    7  C   UNL     1      -8.038  14.133  67.890  1.00  0.00    -0.154 A  
HETATM    8  C   UNL     1      -8.272  12.767  67.913  1.00  0.00    -0.168 A  
HETATM    9  C   UNL     1      -9.561  12.292  68.190  1.00  0.00    -0.213 A  
HETATM   10  C   UNL     1     -10.591  13.242  68.432  1.00  0.00    -0.263 A  
HETATM   11  C   UNL     1      -9.696  10.885  68.207  1.00  0.00    -0.165 A  
HETATM   12  N   UNL     1      -8.653  10.078  67.934  1.00  0.00    -0.121 NA 
HETATM   13  C   UNL     1     -10.354  14.622  68.369  1.00  0.00    -0.237 A  
HETATM   14  N   UNL     1      -7.235  11.966  67.666  1.00  0.00    -0.103 NA 
HETATM   15  C   UNL     1      -7.477  10.655  67.680  1.00  0.00    -0.091 A  
BRANCH  11  16
HETATM   16  N   UNL     1     -10.936  10.304  68.582  1.00  0.00    -0.238 NA 
HETATM   17  H   UNL     1     -11.519   9.993  67.806  1.00  0.00     0.000 HD 
BRANCH  16  18
HETATM   18  C   UNL     1     -11.486  10.089  69.869  1.00  0.00    -0.215 A  
HETATM   19  C   UNL     1     -10.983   9.045  70.664  1.00  0.00    -0.308 A  
HETATM   20  C   UNL     1     -12.690   9.426  72.339  1.00  0.00    -0.350 A  
HETATM   21  C   UNL     1     -11.582   8.713  71.888  1.00  0.00    -0.420 A  
HETATM   22  C   UNL     1     -12.609  10.781  70.343  1.00  0.00    -0.395 A  
HETATM   23  C   UNL     1     -13.200  10.466  71.570  1.00  0.00    -0.485 A  
BRANCH  21  24
HETATM   24  C   UNL     1     -11.089   7.619  72.671  1.00  0.00    -0.412 C  
HETATM   25  C   UNL     1     -10.728   6.697  73.349  1.00  0.00    -0.315 C  
ENDBRANCH  21  24
ENDBRANCH  16  18
ENDBRANCH  11  16
BRANCH  13  26
HETATM   26  O   UNL     1     -11.491  15.368  68.588  1.00  0.00    -0.309 OA 
BRANCH  26  27
HETATM   27  C   UNL     1     -11.680  15.917  69.892  1.00  0.00    -0.322 C  
BRANCH  27  28
HETATM   28  C   UNL     1     -11.950  14.818  70.915  1.00  0.00    -0.324 C  
BRANCH  28  29
HETATM   29  O   UNL     1     -11.593  15.324  72.205  1.00  0.00    -0.417 OA 
HETATM   30  C   UNL     1     -12.690  15.937  72.862  1.00  0.00    -0.484 C  
ENDBRANCH  28  29
ENDBRANCH  27  28
ENDBRANCH  26  27
ENDBRANCH  13  26
ENDBRANCH   5   6
ENDBRANCH   4   5
ENDBRANCH   3   4
ENDBRANCH   2   3
TORSDOF 11
ENDMDL
MODEL       98
REMARK 921   NORMALIZED FREE ENERGY PREDICTED BY IDOCK:   -4.76 KCAL/MOL
REMARK 922        TOTAL FREE ENERGY PREDICTED BY IDOCK:   -8.96 KCAL/MOL
REMARK 923 INTER-LIGAND FREE ENERGY PREDICTED BY IDOCK:   -8.12 KCAL/MOL
REMARK 924 INTRA-LIGAND FREE ENERGY PREDICTED BY IDOCK:   -0.84 KCAL/MOL
REMARK 927      BINDING AFFINITY PREDICTED BY RF-SCORE:    0.00 PKD
ROOT
HETATM    1  C   UNL     1     -12.104  14.775  64.257  1.00  0.00    -0.394 C  
HETATM    2  O   UNL     1     -11.318  14.967  65.427  1.00  0.00    -0.343 OA 
ENDROOT
BRANCH   2   3
HETATM    3  C   UNL     1     -10.251  14.025  65.488  1.00  0.00    -0.343 C  
BRANCH   3   4
HETATM    4  C   UNL     1     -10.773  12.667  65.948  1.00  0.00    -0.266 C  
BRANCH   4   5
HETATM    5  O   UNL     1     -10.005  12.294  67.087  1.00  0.00    -0.203 OA 
BRANCH   5   6
HETATM    6  C   UNL     1     -10.593  11.673  68.146  1.00  0.00    -0.201 A  
HETATM    7  C   UNL     1     -11.411  12.346  69.062  1.00  0.00    -0.336 A  
HETATM    8  C   UNL     1     -11.989  11.711  70.150  1.00  0.00    -0.359 A  
HETATM    9  C   UNL     1     -11.788  10.336  70.333  1.00  0.00    -0.396 A  
HETATM   10  C   UNL     1     -10.983   9.641  69.389  1.00  0.00    -0.215 A  
HETATM   11  C   UNL     1     -12.432   9.777  71.461  1.00  0.00    -0.403 A  
HETATM   12  N   UNL     1     -13.150  10.539  72.307  1.00  0.00    -0.300 NA 
HETATM   13  C   UNL     1     -10.370  10.299  68.314  1.00  0.00    -0.181 A  
HETATM   14  N   UNL     1     -12.720  12.459  70.975  1.00  0.00    -0.291 NA 
HETATM   15  C   UNL     1     -13.261  11.838  72.024  1.00  0.00    -0.355 A  
BRANCH  11  16
HETATM   16  N   UNL     1     -12.377   8.375  71.675  1.00  0.00    -0.307 NA 
HETATM   17  H   UNL     1     -13.132   7.842  71.243  1.00  0.00     0.000 HD 
BRANCH  16  18
HETATM   18  C   UNL     1     -11.435   7.602  72.397  1.00  0.00    -0.340 A  
HETATM   19  C   UNL     1     -11.606   6.208  72.473  1.00  0.00    -0.294 A  
HETATM   20  C   UNL     1      -9.754   6.012  74.021  1.00  0.00    -0.194 A  
HETATM   21  C   UNL     1     -10.775   5.419  73.282  1.00  0.00    -0.320 A  
HETATM   22  C   UNL     1     -10.407   8.171  73.161  1.00  0.00    -0.138 A  
HETATM   23  C   UNL     1      -9.565   7.389  73.955  1.00  0.00    -0.303 A  
BRANCH  21  24
HETATM   24  C   UNL     1     -10.984   4.007  73.388  1.00  0.00    -0.342 C  
HETATM   25  C   UNL     1     -11.112   2.814  73.447  1.00  0.00    -0.286 C  
ENDBRANCH  21  24
ENDBRANCH  16  18
ENDBRANCH  11  16
BRANCH  13  26
HETATM   26  O   UNL     1      -9.598   9.457  67.545  1.00  0.00    -0.136 OA 
BRANCH  26  27
HETATM   27  C   UNL     1     -10.258   8.389  66.866  1.00  0.00    -0.313 C  
BRANCH  27  28
HETATM   28  C   UNL     1     -10.105   7.077  67.629  1.00  0.00    -0.172 C  
BRANCH  28  29
HETATM   29  O   UNL     1     -10.287   6.006  66.698  1.00  0.00    -0.205 OA 
HETATM   30  C   UNL     1      -9.892   4.755  67.237  1.00  0.00    -0.184 C  
ENDBRANCH  28  29
ENDBRANCH  27  28
ENDBRANCH  26  27
ENDBRANCH  13  26
ENDBRANCH   5   6
ENDBRANCH   4   5
ENDBRANCH   3   4
ENDBRANCH   2   3
TORSDOF 11
ENDMDL
MODEL       99
REMARK 921   NORMALIZED FREE ENERGY PREDICTED BY IDOCK:   -4.75 KCAL/MOL
REMARK 922        TOTAL FREE ENERGY PREDICTED BY IDOCK:   -8.94 KCAL/MOL
REMARK 923 INTER-LIGAND FREE ENERGY PREDICTED BY IDOCK:   -7.67 KCAL/MOL
REMARK 924 INTRA-LIGAND FREE ENERGY PREDICTED BY IDOCK:   -1.27 KCAL/MOL
REMARK 927      BINDING AFFINITY PREDICTED BY RF-SCORE:    0.00 PKD
ROOT
HETATM    1  C   UNL     1      -9.087   4.916  66.748  1.00  0.00    -0.118 C  
HETATM    2  O   UNL     1      -9.603   5.986  67.531  1.00  0.00    -0.112 OA 
ENDROOT
BRANCH   2   3
HETATM    3  C   UNL     1      -8.623   6.472  68.444  1.00  0.00    -0.119 C  
BRANCH   3   4
HETATM    4  C   UNL     1      -9.173   7.664  69.223  1.00  0.00    -0.145 C  
BRANCH   4   5
HETATM    5  O   UNL     1     -10.362   8.077  68.559  1.00  0.00    -0.204 OA 
BRANCH   5   6
HETATM    6  C   UNL     1     -10.790   9.367  68.641  1.00  0.00    -0.109 A  
HETATM    7  C   UNL     1     -11.225   9.946  69.839  1.00  0.00    -0.298 A  
HETATM    8  C   UNL     1     -11.679  11.255  69.911  1.00  0.00    -0.352 A  
HETATM    9  C   UNL     1     -11.671  12.051  68.758  1.00  0.00    -0.377 A  
HETATM   10  C   UNL     1     -11.202  11.477  67.545  1.00  0.00    -0.360 A  
HETATM   11  C   UNL     1     -12.137  13.374  68.936  1.00  0.00    -0.252 A  
HETATM   12  N   UNL     1     -12.587  13.804  70.130  1.00  0.00    -0.250 NA 
HETATM   13  C   UNL     1     -10.782  10.141  67.473  1.00  0.00    -0.290 A  
HETATM   14  N   UNL     1     -12.102  11.689  71.097  1.00  0.00    -0.136 NA 
HETATM   15  C   UNL     1     -12.546  12.945  71.149  1.00  0.00    -0.281 A  
BRANCH  11  16
HETATM   16  N   UNL     1     -12.070  14.292  67.854  1.00  0.00    -0.567 NA 
HETATM   17  H   UNL     1     -12.892  14.309  67.251  1.00  0.00     0.000 HD 
BRANCH  16  18
HETATM   18  C   UNL     1     -11.037  15.187  67.485  1.00  0.00    -0.319 A  
HETATM   19  C   UNL     1     -10.988  16.460  68.079  1.00  0.00    -0.327 A  
HETATM   20  C   UNL     1      -9.169  17.127  66.625  1.00  0.00    -0.280 A  
HETATM   21  C   UNL     1     -10.064  17.424  67.651  1.00  0.00    -0.327 A  
HETATM   22  C   UNL     1     -10.132  14.920  66.447  1.00  0.00    -0.296 A  
HETATM   23  C   UNL     1      -9.198  15.871  66.028  1.00  0.00    -0.372 A  
BRANCH  21  24
HETATM   24  C   UNL     1     -10.050  18.733  68.232  1.00  0.00    -0.431 C  
HETATM   25  C   UNL     1     -10.024  19.807  68.768  1.00  0.00    -0.510 C  
ENDBRANCH  21  24
ENDBRANCH  16  18
ENDBRANCH  11  16
BRANCH  13  26
HETATM   26  O   UNL     1     -10.410   9.768  66.201  1.00  0.00    -0.231 OA 
BRANCH  26  27
HETATM   27  C   UNL     1      -9.046   9.403  65.991  1.00  0.00    -0.183 C  
BRANCH  27  28
HETATM   28  C   UNL     1      -8.180  10.634  65.751  1.00  0.00    -0.161 C  
BRANCH  28  29
HETATM   29  O   UNL     1      -7.508  10.942  66.976  1.00  0.00    -0.109 OA 
HETATM   30  C   UNL     1      -7.567  12.325  67.286  1.00  0.00    -0.152 C  
ENDBRANCH  28  29
ENDBRANCH  27  28
ENDBRANCH  26  27
ENDBRANCH  13  26
ENDBRANCH   5   6
ENDBRANCH   4   5
ENDBRANCH   3   4
ENDBRANCH   2   3
TORSDOF 11
ENDMDL
MODEL      100
REMARK 921   NORMALIZED FREE ENERGY PREDICTED BY IDOCK:   -4.75 KCAL/MOL
REMARK 922        TOTAL FREE ENERGY PREDICTED BY IDOCK:   -8.94 KCAL/MOL
REMARK 923 INTER-LIGAND FREE ENERGY PREDICTED BY IDOCK:   -7.49 KCAL/MOL
REMARK 924 INTRA-LIGAND FREE ENERGY PREDICTED BY IDOCK:   -1.44 KCAL/MOL
REMARK 927      BINDING AFFINITY PREDICTED BY RF-SCORE:    0.00 PKD
ROOT
HETATM    1  C   UNL     1     -12.416  14.157  65.012  1.00  0.00    -0.419 C  
HETATM    2  O   UNL     1     -11.721  14.831  66.055  1.00  0.00    -0.337 OA 
ENDROOT
BRANCH   2   3
HETATM    3  C   UNL     1     -10.370  14.387  66.140  1.00  0.00    -0.298 C  
BRANCH   3   4
HETATM    4  C   UNL     1     -10.292  12.885  65.879  1.00  0.00    -0.285 C  
BRANCH   4   5
HETATM    5  O   UNL     1      -9.586  12.312  66.974  1.00  0.00    -0.199 OA 
BRANCH   5   6
HETATM    6  C   UNL     1     -10.239  11.564  67.905  1.00  0.00    -0.184 A  
HETATM    7  C   UNL     1     -10.944  12.130  68.974  1.00  0.00    -0.255 A  
HETATM    8  C   UNL     1     -11.590  11.361  69.930  1.00  0.00    -0.323 A  
HETATM    9  C   UNL     1     -11.578   9.965  69.815  1.00  0.00    -0.138 A  
HETATM   10  C   UNL     1     -10.888   9.385  68.715  1.00  0.00    -0.147 A  
HETATM   11  C   UNL     1     -12.277   9.269  70.829  1.00  0.00    -0.134 A  
HETATM   12  N   UNL     1     -12.872   9.924  71.844  1.00  0.00    -0.419 NA 
HETATM   13  C   UNL     1     -10.205  10.168  67.775  1.00  0.00    -0.191 A  
HETATM   14  N   UNL     1     -12.200  12.008  70.923  1.00  0.00    -0.311 NA 
HETATM   15  C   UNL     1     -12.807  11.256  71.841  1.00  0.00    -0.281 A  
BRANCH  11  16
HETATM   16  N   UNL     1     -12.413   7.859  70.745  1.00  0.00    -0.511 NA 
HETATM   17  H   UNL     1     -13.276   7.533  70.310  1.00  0.00     0.000 HD 
BRANCH  16  18
HETATM   18  C   UNL     1     -11.533   6.834  71.172  1.00  0.00    -0.314 A  
HETATM   19  C   UNL     1     -10.910   6.020  70.210  1.00  0.00    -0.398 A  
HETATM   20  C   UNL     1      -9.966   4.609  71.937  1.00  0.00    -0.254 A  
HETATM   21  C   UNL     1     -10.136   4.914  70.588  1.00  0.00    -0.306 A  
HETATM   22  C   UNL     1     -11.355   6.496  72.521  1.00  0.00    -0.299 A  
HETATM   23  C   UNL     1     -10.570   5.405  72.905  1.00  0.00    -0.270 A  
BRANCH  21  24
HETATM   24  C   UNL     1      -9.540   4.065  69.601  1.00  0.00    -0.270 C  
HETATM   25  C   UNL     1      -9.091   3.352  68.745  1.00  0.00    -0.204 C  
ENDBRANCH  21  24
ENDBRANCH  16  18
ENDBRANCH  11  16
BRANCH  13  26
HETATM   26  O   UNL     1      -9.566   9.413  66.816  1.00  0.00    -0.157 OA 
BRANCH  26  27
HETATM   27  C   UNL     1      -9.884   8.024  66.748  1.00  0.00    -0.257 C  
BRANCH  27  28
HETATM   28  C   UNL     1      -8.618   7.174  66.717  1.00  0.00    -0.124 C  
BRANCH  28  29
HETATM   29  O   UNL     1      -7.676   7.761  67.620  1.00  0.00    -0.116 OA 
HETATM   30  C   UNL     1      -7.303   6.869  68.658  1.00  0.00    -0.094 C  
ENDBRANCH  28  29
ENDBRANCH  27  28
ENDBRANCH  26  27
ENDBRANCH  13  26
ENDBRANCH   5   6
ENDBRANCH   4   5
ENDBRANCH   3   4
ENDBRANCH   2   3
TORSDOF 11
ENDMDL
MODEL      101
REMARK 921   NORMALIZED FREE ENERGY PREDICTED BY IDOCK:   -4.74 KCAL/MOL
REMARK 922        TOTAL FREE ENERGY PREDICTED BY IDOCK:   -8.93 KCAL/MOL
REMARK 923 INTER-LIGAND FREE ENERGY PREDICTED BY IDOCK:   -7.66 KCAL/MOL
REMARK 924 INTRA-LIGAND FREE ENERGY PREDICTED BY IDOCK:   -1.27 KCAL/MOL
REMARK 927      BINDING AFFINITY PREDICTED BY RF-SCORE:    0.00 PKD
ROOT
HETATM    1  C   UNL     1     -12.857  15.379  71.071  1.00  0.00    -0.463 C  
HETATM    2  O   UNL     1     -11.754  16.209  70.725  1.00  0.00    -0.382 OA 
ENDROOT
BRANCH   2   3
HETATM    3  C   UNL     1     -11.356  15.994  69.374  1.00  0.00    -0.355 C  
BRANCH   3   4
HETATM    4  C   UNL     1      -9.834  16.034  69.261  1.00  0.00    -0.255 C  
BRANCH   4   5
HETATM    5  O   UNL     1      -9.503  15.544  67.967  1.00  0.00    -0.193 OA 
BRANCH   5   6
HETATM    6  C   UNL     1      -9.171  14.236  67.785  1.00  0.00    -0.194 A  
HETATM    7  C   UNL     1      -7.925  13.713  68.147  1.00  0.00    -0.148 A  
HETATM    8  C   UNL     1      -7.587  12.384  67.940  1.00  0.00    -0.130 A  
HETATM    9  C   UNL     1      -8.531  11.511  67.382  1.00  0.00    -0.147 A  
HETATM   10  C   UNL     1      -9.809  12.031  67.039  1.00  0.00    -0.205 A  
HETATM   11  C   UNL     1      -8.098  10.174  67.225  1.00  0.00    -0.114 A  
HETATM   12  N   UNL     1      -6.849   9.798  67.559  1.00  0.00    -0.081 NA 
HETATM   13  C   UNL     1     -10.129  13.384  67.216  1.00  0.00    -0.238 A  
HETATM   14  N   UNL     1      -6.359  12.004  68.292  1.00  0.00    -0.050 NA 
HETATM   15  C   UNL     1      -6.044  10.727  68.076  1.00  0.00    -0.050 A  
BRANCH  11  16
HETATM   16  N   UNL     1      -9.014   9.191  66.767  1.00  0.00    -0.126 NA 
HETATM   17  H   UNL     1      -9.124   9.140  65.755  1.00  0.00     0.000 HD 
BRANCH  16  18
HETATM   18  C   UNL     1      -9.799   8.269  67.502  1.00  0.00    -0.177 A  
HETATM   19  C   UNL     1     -10.100   8.544  68.848  1.00  0.00    -0.213 A  
HETATM   20  C   UNL     1     -11.139   6.373  69.115  1.00  0.00    -0.428 A  
HETATM   21  C   UNL     1     -10.761   7.603  69.650  1.00  0.00    -0.230 A  
HETATM   22  C   UNL     1     -10.181   7.019  66.996  1.00  0.00    -0.330 A  
HETATM   23  C   UNL     1     -10.855   6.084  67.785  1.00  0.00    -0.380 A  
BRANCH  21  24
HETATM   24  C   UNL     1     -11.025   7.875  71.031  1.00  0.00    -0.262 C  
HETATM   25  C   UNL     1     -11.247   8.158  72.176  1.00  0.00    -0.393 C  
ENDBRANCH  21  24
ENDBRANCH  16  18
ENDBRANCH  11  16
BRANCH  13  26
HETATM   26  O   UNL     1     -11.398  13.693  66.781  1.00  0.00    -0.310 OA 
BRANCH  26  27
HETATM   27  C   UNL     1     -12.072  12.731  65.969  1.00  0.00    -0.395 C  
BRANCH  27  28
HETATM   28  C   UNL     1     -12.881  13.413  64.870  1.00  0.00    -0.227 C  
BRANCH  28  29
HETATM   29  O   UNL     1     -12.961  12.510  63.763  1.00  0.00    -0.733 OA 
HETATM   30  C   UNL     1     -11.712  11.901  63.478  1.00  0.00    -0.452 C  
ENDBRANCH  28  29
ENDBRANCH  27  28
ENDBRANCH  26  27
ENDBRANCH  13  26
ENDBRANCH   5   6
ENDBRANCH   4   5
ENDBRANCH   3   4
ENDBRANCH   2   3
TORSDOF 11
ENDMDL
MODEL      102
REMARK 921   NORMALIZED FREE ENERGY PREDICTED BY IDOCK:   -4.74 KCAL/MOL
REMARK 922        TOTAL FREE ENERGY PREDICTED BY IDOCK:   -8.92 KCAL/MOL
REMARK 923 INTER-LIGAND FREE ENERGY PREDICTED BY IDOCK:   -8.23 KCAL/MOL
REMARK 924 INTRA-LIGAND FREE ENERGY PREDICTED BY IDOCK:   -0.69 KCAL/MOL
REMARK 927      BINDING AFFINITY PREDICTED BY RF-SCORE:    0.00 PKD
ROOT
HETATM    1  C   UNL     1      -8.605   4.928  65.002  1.00  0.00    -0.147 C  
HETATM    2  O   UNL     1      -8.590   6.131  65.762  1.00  0.00    -0.145 OA 
ENDROOT
BRANCH   2   3
HETATM    3  C   UNL     1      -7.800   7.130  65.123  1.00  0.00    -0.124 C  
BRANCH   3   4
HETATM    4  C   UNL     1      -8.283   8.521  65.525  1.00  0.00    -0.137 C  
BRANCH   4   5
HETATM    5  O   UNL     1      -7.968   8.685  66.903  1.00  0.00    -0.094 OA 
BRANCH   5   6
HETATM    6  C   UNL     1      -8.914   9.110  67.785  1.00  0.00    -0.127 A  
HETATM    7  C   UNL     1      -9.104   8.514  69.038  1.00  0.00    -0.146 A  
HETATM    8  C   UNL     1     -10.084   8.939  69.923  1.00  0.00    -0.195 A  
HETATM    9  C   UNL     1     -10.896  10.028  69.581  1.00  0.00    -0.292 A  
HETATM   10  C   UNL     1     -10.687  10.656  68.322  1.00  0.00    -0.260 A  
HETATM   11  C   UNL     1     -11.853  10.397  70.554  1.00  0.00    -0.337 A  
HETATM   12  N   UNL     1     -11.982   9.709  71.705  1.00  0.00    -0.392 NA 
HETATM   13  C   UNL     1      -9.721  10.195  67.417  1.00  0.00    -0.161 A  
HETATM   14  N   UNL     1     -10.197   8.274  71.072  1.00  0.00    -0.188 NA 
HETATM   15  C   UNL     1     -11.150   8.687  71.908  1.00  0.00    -0.346 A  
BRANCH  11  16
HETATM   16  N   UNL     1     -12.652  11.552  70.349  1.00  0.00    -0.202 NA 
HETATM   17  H   UNL     1     -13.603  11.368  70.031  1.00  0.00     0.000 HD 
BRANCH  16  18
HETATM   18  C   UNL     1     -12.331  12.921  70.520  1.00  0.00    -0.283 A  
HETATM   19  C   UNL     1     -12.438  13.496  71.799  1.00  0.00    -0.163 A  
HETATM   20  C   UNL     1     -11.958  15.696  70.907  1.00  0.00    -0.440 A  
HETATM   21  C   UNL     1     -12.257  14.873  71.991  1.00  0.00    -0.434 A  
HETATM   22  C   UNL     1     -12.041  13.775  69.447  1.00  0.00    -0.377 A  
HETATM   23  C   UNL     1     -11.843  15.146  69.636  1.00  0.00    -0.362 A  
BRANCH  21  24
HETATM   24  C   UNL     1     -12.411  15.456  73.290  1.00  0.00    -0.603 C  
HETATM   25  C   UNL     1     -12.491  15.924  74.393  1.00  0.00    -0.767 C  
ENDBRANCH  21  24
ENDBRANCH  16  18
ENDBRANCH  11  16
BRANCH  13  26
HETATM   26  O   UNL     1      -9.709  10.910  66.241  1.00  0.00    -0.191 OA 
BRANCH  26  27
HETATM   27  C   UNL     1     -10.773  11.836  66.018  1.00  0.00    -0.279 C  
BRANCH  27  28
HETATM   28  C   UNL     1     -10.232  13.226  65.703  1.00  0.00    -0.289 C  
BRANCH  28  29
HETATM   29  O   UNL     1     -11.076  13.808  64.705  1.00  0.00    -0.357 OA 
HETATM   30  C   UNL     1     -11.148  15.220  64.821  1.00  0.00    -0.394 C  
ENDBRANCH  28  29
ENDBRANCH  27  28
ENDBRANCH  26  27
ENDBRANCH  13  26
ENDBRANCH   5   6
ENDBRANCH   4   5
ENDBRANCH   3   4
ENDBRANCH   2   3
TORSDOF 11
ENDMDL
MODEL      103
REMARK 921   NORMALIZED FREE ENERGY PREDICTED BY IDOCK:   -4.73 KCAL/MOL
REMARK 922        TOTAL FREE ENERGY PREDICTED BY IDOCK:   -8.91 KCAL/MOL
REMARK 923 INTER-LIGAND FREE ENERGY PREDICTED BY IDOCK:   -7.63 KCAL/MOL
REMARK 924 INTRA-LIGAND FREE ENERGY PREDICTED BY IDOCK:   -1.28 KCAL/MOL
REMARK 927      BINDING AFFINITY PREDICTED BY RF-SCORE:    0.00 PKD
ROOT
HETATM    1  C   UNL     1      -6.443  18.815  66.196  1.00  0.00    -0.208 C  
HETATM    2  O   UNL     1      -7.714  18.877  65.560  1.00  0.00    -0.434 OA 
ENDROOT
BRANCH   2   3
HETATM    3  C   UNL     1      -8.652  19.594  66.358  1.00  0.00    -0.361 C  
BRANCH   3   4
HETATM    4  C   UNL     1     -10.036  18.962  66.240  1.00  0.00    -0.414 C  
BRANCH   4   5
HETATM    5  O   UNL     1     -10.276  18.263  67.457  1.00  0.00    -0.333 OA 
BRANCH   5   6
HETATM    6  C   UNL     1      -9.718  17.040  67.675  1.00  0.00    -0.257 A  
HETATM    7  C   UNL     1      -8.609  16.851  68.508  1.00  0.00    -0.251 A  
HETATM    8  C   UNL     1      -8.034  15.606  68.710  1.00  0.00    -0.172 A  
HETATM    9  C   UNL     1      -8.596  14.479  68.095  1.00  0.00    -0.169 A  
HETATM   10  C   UNL     1      -9.741  14.661  67.272  1.00  0.00    -0.231 A  
HETATM   11  C   UNL     1      -7.949  13.253  68.374  1.00  0.00    -0.132 A  
HETATM   12  N   UNL     1      -6.848  13.202  69.148  1.00  0.00    -0.092 NA 
HETATM   13  C   UNL     1     -10.292  15.929  67.042  1.00  0.00    -0.297 A  
HETATM   14  N   UNL     1      -6.958  15.550  69.495  1.00  0.00    -0.181 NA 
HETATM   15  C   UNL     1      -6.409  14.348  69.671  1.00  0.00    -0.140 A  
BRANCH  11  16
HETATM   16  N   UNL     1      -8.503  12.041  67.885  1.00  0.00    -0.151 NA 
HETATM   17  H   UNL     1      -8.477  11.932  66.872  1.00  0.00     0.000 HD 
BRANCH  16  18
HETATM   18  C   UNL     1      -9.086  10.959  68.589  1.00  0.00    -0.175 A  
HETATM   19  C   UNL     1     -10.288  11.165  69.289  1.00  0.00    -0.148 A  
HETATM   20  C   UNL     1     -10.185   8.935  70.227  1.00  0.00    -0.230 A  
HETATM   21  C   UNL     1     -10.832  10.163  70.105  1.00  0.00    -0.368 A  
HETATM   22  C   UNL     1      -8.452   9.719  68.741  1.00  0.00    -0.122 A  
HETATM   23  C   UNL     1      -8.998   8.710  69.539  1.00  0.00    -0.145 A  
BRANCH  21  24
HETATM   24  C   UNL     1     -12.034  10.396  70.848  1.00  0.00    -0.478 C  
HETATM   25  C   UNL     1     -13.070  10.585  71.423  1.00  0.00    -0.509 C  
ENDBRANCH  21  24
ENDBRANCH  16  18
ENDBRANCH  11  16
BRANCH  13  26
HETATM   26  O   UNL     1     -11.367  15.895  66.182  1.00  0.00    -0.005 OA 
BRANCH  26  27
HETATM   27  C   UNL     1     -11.101  15.674  64.797  1.00  0.00    -0.412 C  
BRANCH  27  28
HETATM   28  C   UNL     1     -12.079  14.665  64.205  1.00  0.00    -0.415 C  
BRANCH  28  29
HETATM   29  O   UNL     1     -11.371  13.439  64.000  1.00  0.00    -0.374 OA 
HETATM   30  C   UNL     1     -12.175  12.304  64.280  1.00  0.00    -0.425 C  
ENDBRANCH  28  29
ENDBRANCH  27  28
ENDBRANCH  26  27
ENDBRANCH  13  26
ENDBRANCH   5   6
ENDBRANCH   4   5
ENDBRANCH   3   4
ENDBRANCH   2   3
TORSDOF 11
ENDMDL
MODEL      104
REMARK 921   NORMALIZED FREE ENERGY PREDICTED BY IDOCK:   -4.72 KCAL/MOL
REMARK 922        TOTAL FREE ENERGY PREDICTED BY IDOCK:   -8.89 KCAL/MOL
REMARK 923 INTER-LIGAND FREE ENERGY PREDICTED BY IDOCK:   -7.82 KCAL/MOL
REMARK 924 INTRA-LIGAND FREE ENERGY PREDICTED BY IDOCK:   -1.07 KCAL/MOL
REMARK 927      BINDING AFFINITY PREDICTED BY RF-SCORE:    0.00 PKD
ROOT
HETATM    1  C   UNL     1      -5.532   9.903  65.222  1.00  0.00    -0.059 C  
HETATM    2  O   UNL     1      -5.602   8.484  65.133  1.00  0.00    -0.046 OA 
ENDROOT
BRANCH   2   3
HETATM    3  C   UNL     1      -6.820   7.996  65.688  1.00  0.00    -0.056 C  
BRANCH   3   4
HETATM    4  C   UNL     1      -8.013   8.557  64.918  1.00  0.00    -0.137 C  
BRANCH   4   5
HETATM    5  O   UNL     1      -9.050   8.779  65.866  1.00  0.00    -0.193 OA 
BRANCH   5   6
HETATM    6  C   UNL     1      -9.796   9.917  65.825  1.00  0.00    -0.287 A  
HETATM    7  C   UNL     1     -10.265  10.473  64.629  1.00  0.00    -0.364 A  
HETATM    8  C   UNL     1     -11.007  11.644  64.593  1.00  0.00    -0.301 A  
HETATM    9  C   UNL     1     -11.340  12.286  65.793  1.00  0.00    -0.400 A  
HETATM   10  C   UNL     1     -10.891  11.709  67.013  1.00  0.00    -0.311 A  
HETATM   11  C   UNL     1     -12.111  13.463  65.654  1.00  0.00    -0.434 A  
HETATM   12  N   UNL     1     -12.457  13.935  64.442  1.00  0.00    -0.659 NA 
HETATM   13  C   UNL     1     -10.108  10.547  67.038  1.00  0.00    -0.213 A  
HETATM   14  N   UNL     1     -11.370  12.100  63.395  1.00  0.00    -0.426 NA 
HETATM   15  C   UNL     1     -12.073  13.232  63.375  1.00  0.00    -0.439 A  
BRANCH  11  16
HETATM   16  N   UNL     1     -12.589  14.128  66.814  1.00  0.00    -0.503 NA 
HETATM   17  H   UNL     1     -13.571  14.399  66.783  1.00  0.00     0.000 HD 
BRANCH  16  18
HETATM   18  C   UNL     1     -11.909  14.473  68.008  1.00  0.00    -0.315 A  
HETATM   19  C   UNL     1     -12.516  14.198  69.246  1.00  0.00    -0.059 A  
HETATM   20  C   UNL     1     -10.748  15.354  70.430  1.00  0.00    -0.312 A  
HETATM   21  C   UNL     1     -11.943  14.637  70.448  1.00  0.00    -0.375 A  
HETATM   22  C   UNL     1     -10.715  15.207  68.021  1.00  0.00    -0.264 A  
HETATM   23  C   UNL     1     -10.130  15.632  69.216  1.00  0.00    -0.258 A  
BRANCH  21  24
HETATM   24  C   UNL     1     -12.590  14.390  71.701  1.00  0.00    -0.429 C  
HETATM   25  C   UNL     1     -13.105  14.226  72.773  1.00  0.00    -0.589 C  
ENDBRANCH  21  24
ENDBRANCH  16  18
ENDBRANCH  11  16
BRANCH  13  26
HETATM   26  O   UNL     1      -9.741  10.179  68.313  1.00  0.00    -0.139 OA 
BRANCH  26  27
HETATM   27  C   UNL     1      -8.801  11.007  68.996  1.00  0.00    -0.058 C  
BRANCH  27  28
HETATM   28  C   UNL     1      -7.375  10.512  68.778  1.00  0.00    -0.092 C  
BRANCH  28  29
HETATM   29  O   UNL     1      -7.290   9.181  69.298  1.00  0.00    -0.067 OA 
HETATM   30  C   UNL     1      -5.949   8.733  69.404  1.00  0.00    -0.037 C  
ENDBRANCH  28  29
ENDBRANCH  27  28
ENDBRANCH  26  27
ENDBRANCH  13  26
ENDBRANCH   5   6
ENDBRANCH   4   5
ENDBRANCH   3   4
ENDBRANCH   2   3
TORSDOF 11
ENDMDL
MODEL      105
REMARK 921   NORMALIZED FREE ENERGY PREDICTED BY IDOCK:   -4.72 KCAL/MOL
REMARK 922        TOTAL FREE ENERGY PREDICTED BY IDOCK:   -8.89 KCAL/MOL
REMARK 923 INTER-LIGAND FREE ENERGY PREDICTED BY IDOCK:   -7.72 KCAL/MOL
REMARK 924 INTRA-LIGAND FREE ENERGY PREDICTED BY IDOCK:   -1.17 KCAL/MOL
REMARK 927      BINDING AFFINITY PREDICTED BY RF-SCORE:    0.00 PKD
ROOT
HETATM    1  C   UNL     1      -7.260   5.039  72.363  1.00  0.00    -0.087 C  
HETATM    2  O   UNL     1      -8.423   5.343  73.124  1.00  0.00    -0.117 OA 
ENDROOT
BRANCH   2   3
HETATM    3  C   UNL     1      -9.455   4.390  72.884  1.00  0.00    -0.130 C  
BRANCH   3   4
HETATM    4  C   UNL     1     -10.750   5.102  72.502  1.00  0.00    -0.229 C  
BRANCH   4   5
HETATM    5  O   UNL     1     -10.556   5.641  71.199  1.00  0.00    -0.233 OA 
BRANCH   5   6
HETATM    6  C   UNL     1     -10.740   6.969  70.963  1.00  0.00    -0.233 A  
HETATM    7  C   UNL     1     -11.706   7.731  71.631  1.00  0.00    -0.316 A  
HETATM    8  C   UNL     1     -11.901   9.079  71.371  1.00  0.00    -0.325 A  
HETATM    9  C   UNL     1     -11.083   9.725  70.435  1.00  0.00    -0.367 A  
HETATM   10  C   UNL     1     -10.081   8.963  69.775  1.00  0.00    -0.205 A  
HETATM   11  C   UNL     1     -11.348  11.102  70.251  1.00  0.00    -0.148 A  
HETATM   12  N   UNL     1     -12.347  11.717  70.912  1.00  0.00    -0.366 NA 
HETATM   13  C   UNL     1      -9.916   7.592  70.015  1.00  0.00    -0.190 A  
HETATM   14  N   UNL     1     -12.873   9.695  72.042  1.00  0.00    -0.406 NA 
HETATM   15  C   UNL     1     -13.057  10.988  71.774  1.00  0.00    -0.449 A  
BRANCH  11  16
HETATM   16  N   UNL     1     -10.508  11.870  69.403  1.00  0.00    -0.427 NA 
HETATM   17  H   UNL     1      -9.515  11.834  69.631  1.00  0.00     0.000 HD 
BRANCH  16  18
HETATM   18  C   UNL     1     -10.838  12.680  68.289  1.00  0.00    -0.239 A  
HETATM   19  C   UNL     1     -10.503  14.045  68.310  1.00  0.00    -0.245 A  
HETATM   20  C   UNL     1     -11.680  14.421  66.228  1.00  0.00    -0.394 A  
HETATM   21  C   UNL     1     -10.923  14.911  67.290  1.00  0.00    -0.323 A  
HETATM   22  C   UNL     1     -11.610  12.219  67.214  1.00  0.00    -0.427 A  
HETATM   23  C   UNL     1     -12.017  13.073  66.185  1.00  0.00    -0.488 A  
BRANCH  21  24
HETATM   24  C   UNL     1     -10.615  16.308  67.343  1.00  0.00    -0.307 C  
HETATM   25  C   UNL     1     -10.302  17.467  67.377  1.00  0.00    -0.343 C  
ENDBRANCH  21  24
ENDBRANCH  16  18
ENDBRANCH  11  16
BRANCH  13  26
HETATM   26  O   UNL     1      -8.923   7.032  69.243  1.00  0.00    -0.138 OA 
BRANCH  26  27
HETATM   27  C   UNL     1      -8.131   7.909  68.443  1.00  0.00    -0.123 C  
BRANCH  27  28
HETATM   28  C   UNL     1      -8.448   7.735  66.962  1.00  0.00    -0.124 C  
BRANCH  28  29
HETATM   29  O   UNL     1      -8.177   8.978  66.308  1.00  0.00    -0.111 OA 
HETATM   30  C   UNL     1      -9.348   9.560  65.758  1.00  0.00    -0.233 C  
ENDBRANCH  28  29
ENDBRANCH  27  28
ENDBRANCH  26  27
ENDBRANCH  13  26
ENDBRANCH   5   6
ENDBRANCH   4   5
ENDBRANCH   3   4
ENDBRANCH   2   3
TORSDOF 11
ENDMDL
MODEL      106
REMARK 921   NORMALIZED FREE ENERGY PREDICTED BY IDOCK:   -4.70 KCAL/MOL
REMARK 922        TOTAL FREE ENERGY PREDICTED BY IDOCK:   -8.85 KCAL/MOL
REMARK 923 INTER-LIGAND FREE ENERGY PREDICTED BY IDOCK:   -7.68 KCAL/MOL
REMARK 924 INTRA-LIGAND FREE ENERGY PREDICTED BY IDOCK:   -1.17 KCAL/MOL
REMARK 927      BINDING AFFINITY PREDICTED BY RF-SCORE:    0.00 PKD
ROOT
HETATM    1  C   UNL     1      -8.978  15.293  66.630  1.00  0.00    -0.291 C  
HETATM    2  O   UNL     1      -9.572  15.199  65.340  1.00  0.00    -0.270 OA 
ENDROOT
BRANCH   2   3
HETATM    3  C   UNL     1     -10.988  15.338  65.418  1.00  0.00    -0.372 C  
BRANCH   3   4
HETATM    4  C   UNL     1     -11.499  14.789  66.747  1.00  0.00    -0.338 C  
BRANCH   4   5
HETATM    5  O   UNL     1     -11.898  13.444  66.512  1.00  0.00    -0.356 OA 
BRANCH   5   6
HETATM    6  C   UNL     1     -11.581  12.461  67.399  1.00  0.00    -0.365 A  
HETATM    7  C   UNL     1     -12.222  12.320  68.636  1.00  0.00     0.051 A  
HETATM    8  C   UNL     1     -11.880  11.329  69.543  1.00  0.00    -0.357 A  
HETATM    9  C   UNL     1     -10.883  10.403  69.208  1.00  0.00    -0.280 A  
HETATM   10  C   UNL     1     -10.250  10.523  67.941  1.00  0.00    -0.213 A  
HETATM   11  C   UNL     1     -10.617   9.421  70.191  1.00  0.00    -0.240 A  
HETATM   12  N   UNL     1     -11.261   9.421  71.373  1.00  0.00    -0.358 NA 
HETATM   13  C   UNL     1     -10.575  11.551  67.046  1.00  0.00    -0.242 A  
HETATM   14  N   UNL     1     -12.533  11.313  70.704  1.00  0.00    -0.352 NA 
HETATM   15  C   UNL     1     -12.185  10.362  71.571  1.00  0.00    -0.321 A  
BRANCH  11  16
HETATM   16  N   UNL     1      -9.700   8.375  69.906  1.00  0.00    -0.178 NA 
HETATM   17  H   UNL     1      -8.905   8.643  69.328  1.00  0.00     0.000 HD 
BRANCH  16  18
HETATM   18  C   UNL     1      -9.722   7.016  70.302  1.00  0.00    -0.175 A  
HETATM   19  C   UNL     1      -9.181   6.656  71.549  1.00  0.00    -0.146 A  
HETATM   20  C   UNL     1      -9.491   4.304  71.066  1.00  0.00    -0.236 A  
HETATM   21  C   UNL     1      -9.062   5.311  71.927  1.00  0.00    -0.153 A  
HETATM   22  C   UNL     1     -10.133   5.980  69.452  1.00  0.00    -0.243 A  
HETATM   23  C   UNL     1     -10.034   4.638  69.830  1.00  0.00    -0.295 A  
BRANCH  21  24
HETATM   24  C   UNL     1      -8.470   4.953  73.181  1.00  0.00    -0.104 C  
HETATM   25  C   UNL     1      -8.023   4.630  74.247  1.00  0.00    -0.100 C  
ENDBRANCH  21  24
ENDBRANCH  16  18
ENDBRANCH  11  16
BRANCH  13  26
HETATM   26  O   UNL     1      -9.817  11.516  65.897  1.00  0.00    -0.215 OA 
BRANCH  26  27
HETATM   27  C   UNL     1     -10.261  10.670  64.836  1.00  0.00    -0.324 C  
BRANCH  27  28
HETATM   28  C   UNL     1      -9.963  11.294  63.477  1.00  0.00    -0.376 C  
BRANCH  28  29
HETATM   29  O   UNL     1     -10.523  12.611  63.468  1.00  0.00    -0.390 OA 
HETATM   30  C   UNL     1     -11.927  12.594  63.267  1.00  0.00    -0.441 C  
ENDBRANCH  28  29
ENDBRANCH  27  28
ENDBRANCH  26  27
ENDBRANCH  13  26
ENDBRANCH   5   6
ENDBRANCH   4   5
ENDBRANCH   3   4
ENDBRANCH   2   3
TORSDOF 11
ENDMDL
MODEL      107
REMARK 921   NORMALIZED FREE ENERGY PREDICTED BY IDOCK:   -4.68 KCAL/MOL
REMARK 922        TOTAL FREE ENERGY PREDICTED BY IDOCK:   -8.83 KCAL/MOL
REMARK 923 INTER-LIGAND FREE ENERGY PREDICTED BY IDOCK:   -7.94 KCAL/MOL
REMARK 924 INTRA-LIGAND FREE ENERGY PREDICTED BY IDOCK:   -0.89 KCAL/MOL
REMARK 927      BINDING AFFINITY PREDICTED BY RF-SCORE:    0.00 PKD
ROOT
HETATM    1  C   UNL     1     -12.584   6.926  71.248  1.00  0.00    -0.345 C  
HETATM    2  O   UNL     1     -13.539   7.960  71.459  1.00  0.00    -0.341 OA 
ENDROOT
BRANCH   2   3
HETATM    3  C   UNL     1     -12.974   9.034  72.204  1.00  0.00    -0.424 C  
BRANCH   3   4
HETATM    4  C   UNL     1     -13.189  10.355  71.470  1.00  0.00    -0.386 C  
BRANCH   4   5
HETATM    5  O   UNL     1     -11.906  10.807  71.050  1.00  0.00    -0.323 OA 
BRANCH   5   6
HETATM    6  C   UNL     1     -11.607  10.911  69.726  1.00  0.00    -0.322 A  
HETATM    7  C   UNL     1     -10.831   9.964  69.047  1.00  0.00    -0.242 A  
HETATM    8  C   UNL     1     -10.513  10.087  67.703  1.00  0.00    -0.246 A  
HETATM    9  C   UNL     1     -11.011  11.175  66.974  1.00  0.00    -0.348 A  
HETATM   10  C   UNL     1     -11.824  12.125  67.651  1.00  0.00    -0.316 A  
HETATM   11  C   UNL     1     -10.646  11.205  65.608  1.00  0.00    -0.223 A  
HETATM   12  N   UNL     1      -9.843  10.263  65.078  1.00  0.00    -0.310 NA 
HETATM   13  C   UNL     1     -12.109  12.013  69.019  1.00  0.00    -0.166 A  
HETATM   14  N   UNL     1      -9.738   9.143  67.171  1.00  0.00    -0.170 NA 
HETATM   15  C   UNL     1      -9.431   9.281  65.881  1.00  0.00    -0.259 A  
BRANCH  11  16
HETATM   16  N   UNL     1     -11.185  12.207  64.760  1.00  0.00    -0.314 NA 
HETATM   17  H   UNL     1     -11.777  11.862  64.005  1.00  0.00     0.000 HD 
BRANCH  16  18
HETATM   18  C   UNL     1     -11.027  13.614  64.802  1.00  0.00    -0.378 A  
HETATM   19  C   UNL     1      -9.918  14.160  65.473  1.00  0.00    -0.323 A  
HETATM   20  C   UNL     1     -10.765  16.406  65.156  1.00  0.00    -0.309 A  
HETATM   21  C   UNL     1      -9.789  15.544  65.652  1.00  0.00    -0.377 A  
HETATM   22  C   UNL     1     -11.999  14.505  64.326  1.00  0.00    -0.419 A  
HETATM   23  C   UNL     1     -11.867  15.887  64.486  1.00  0.00    -0.084 A  
BRANCH  21  24
HETATM   24  C   UNL     1      -8.679  16.089  66.374  1.00  0.00    -0.362 C  
HETATM   25  C   UNL     1      -7.780  16.548  67.025  1.00  0.00    -0.244 C  
ENDBRANCH  21  24
ENDBRANCH  16  18
ENDBRANCH  11  16
BRANCH  13  26
HETATM   26  O   UNL     1     -12.873  13.057  69.491  1.00  0.00     0.414 OA 
BRANCH  26  27
HETATM   27  C   UNL     1     -12.398  13.760  70.638  1.00  0.00    -0.375 C  
BRANCH  27  28
HETATM   28  C   UNL     1     -11.266  14.712  70.267  1.00  0.00    -0.151 C  
BRANCH  28  29
HETATM   29  O   UNL     1     -11.847  15.985  69.968  1.00  0.00    -0.318 OA 
HETATM   30  C   UNL     1     -11.273  16.577  68.813  1.00  0.00    -0.277 C  
ENDBRANCH  28  29
ENDBRANCH  27  28
ENDBRANCH  26  27
ENDBRANCH  13  26
ENDBRANCH   5   6
ENDBRANCH   4   5
ENDBRANCH   3   4
ENDBRANCH   2   3
TORSDOF 11
ENDMDL
MODEL      108
REMARK 921   NORMALIZED FREE ENERGY PREDICTED BY IDOCK:   -4.68 KCAL/MOL
REMARK 922        TOTAL FREE ENERGY PREDICTED BY IDOCK:   -8.83 KCAL/MOL
REMARK 923 INTER-LIGAND FREE ENERGY PREDICTED BY IDOCK:   -7.62 KCAL/MOL
REMARK 924 INTRA-LIGAND FREE ENERGY PREDICTED BY IDOCK:   -1.21 KCAL/MOL
REMARK 927      BINDING AFFINITY PREDICTED BY RF-SCORE:    0.00 PKD
ROOT
HETATM    1  C   UNL     1      -9.598   5.494  71.835  1.00  0.00    -0.156 C  
HETATM    2  O   UNL     1      -8.956   6.551  71.131  1.00  0.00    -0.144 OA 
ENDROOT
BRANCH   2   3
HETATM    3  C   UNL     1      -9.420   6.626  69.787  1.00  0.00    -0.147 C  
BRANCH   3   4
HETATM    4  C   UNL     1      -9.181   8.025  69.225  1.00  0.00    -0.152 C  
BRANCH   4   5
HETATM    5  O   UNL     1     -10.423   8.475  68.695  1.00  0.00    -0.208 OA 
BRANCH   5   6
HETATM    6  C   UNL     1     -10.477   9.570  67.887  1.00  0.00    -0.241 A  
HETATM    7  C   UNL     1     -10.364   9.490  66.494  1.00  0.00    -0.263 A  
HETATM    8  C   UNL     1     -10.399  10.611  65.679  1.00  0.00    -0.216 A  
HETATM    9  C   UNL     1     -10.592  11.875  66.253  1.00  0.00    -0.289 A  
HETATM   10  C   UNL     1     -10.737  11.959  67.665  1.00  0.00    -0.253 A  
HETATM   11  C   UNL     1     -10.630  12.953  65.340  1.00  0.00    -0.289 A  
HETATM   12  N   UNL     1     -10.451  12.759  64.019  1.00  0.00    -0.420 NA 
HETATM   13  C   UNL     1     -10.661  10.825  68.485  1.00  0.00    -0.210 A  
HETATM   14  N   UNL     1     -10.246  10.419  64.370  1.00  0.00    -0.286 NA 
HETATM   15  C   UNL     1     -10.271  11.506  63.600  1.00  0.00    -0.405 A  
BRANCH  11  16
HETATM   16  N   UNL     1     -10.925  14.260  65.810  1.00  0.00    -0.299 NA 
HETATM   17  H   UNL     1     -11.900  14.418  66.062  1.00  0.00     0.000 HD 
BRANCH  16  18
HETATM   18  C   UNL     1     -10.073  15.378  65.982  1.00  0.00    -0.324 A  
HETATM   19  C   UNL     1      -8.787  15.183  66.517  1.00  0.00    -0.312 A  
HETATM   20  C   UNL     1      -8.402  17.573  66.599  1.00  0.00    -0.291 A  
HETATM   21  C   UNL     1      -7.959  16.272  66.826  1.00  0.00    -0.306 A  
HETATM   22  C   UNL     1     -10.496  16.698  65.776  1.00  0.00    -0.324 A  
HETATM   23  C   UNL     1      -9.669  17.786  66.066  1.00  0.00    -0.145 A  
BRANCH  21  24
HETATM   24  C   UNL     1      -6.668  16.066  67.410  1.00  0.00    -0.224 C  
HETATM   25  C   UNL     1      -5.602  15.842  67.916  1.00  0.00    -0.156 C  
ENDBRANCH  21  24
ENDBRANCH  16  18
ENDBRANCH  11  16
BRANCH  13  26
HETATM   26  O   UNL     1     -10.781  11.126  69.823  1.00  0.00    -0.161 OA 
BRANCH  26  27
HETATM   27  C   UNL     1     -12.041  11.618  70.281  1.00  0.00    -0.358 C  
BRANCH  27  28
HETATM   28  C   UNL     1     -12.999  10.472  70.586  1.00  0.00    -0.285 C  
BRANCH  28  29
HETATM   29  O   UNL     1     -12.375   9.628  71.558  1.00  0.00    -0.338 OA 
HETATM   30  C   UNL     1     -13.314   8.813  72.241  1.00  0.00    -0.419 C  
ENDBRANCH  28  29
ENDBRANCH  27  28
ENDBRANCH  26  27
ENDBRANCH  13  26
ENDBRANCH   5   6
ENDBRANCH   4   5
ENDBRANCH   3   4
ENDBRANCH   2   3
TORSDOF 11
ENDMDL
MODEL      109
REMARK 921   NORMALIZED FREE ENERGY PREDICTED BY IDOCK:   -4.66 KCAL/MOL
REMARK 922        TOTAL FREE ENERGY PREDICTED BY IDOCK:   -8.80 KCAL/MOL
REMARK 923 INTER-LIGAND FREE ENERGY PREDICTED BY IDOCK:   -7.44 KCAL/MOL
REMARK 924 INTRA-LIGAND FREE ENERGY PREDICTED BY IDOCK:   -1.36 KCAL/MOL
REMARK 927      BINDING AFFINITY PREDICTED BY RF-SCORE:    0.00 PKD
ROOT
HETATM    1  C   UNL     1      -7.440   7.587  73.336  1.00  0.00    -0.100 C  
HETATM    2  O   UNL     1      -8.202   7.273  74.496  1.00  0.00    -0.159 OA 
ENDROOT
BRANCH   2   3
HETATM    3  C   UNL     1      -8.799   5.985  74.383  1.00  0.00    -0.127 C  
BRANCH   3   4
HETATM    4  C   UNL     1     -10.320   6.109  74.365  1.00  0.00    -0.261 C  
BRANCH   4   5
HETATM    5  O   UNL     1     -10.734   5.934  73.015  1.00  0.00    -0.227 OA 
BRANCH   5   6
HETATM    6  C   UNL     1     -10.914   7.008  72.199  1.00  0.00    -0.234 A  
HETATM    7  C   UNL     1     -11.681   8.120  72.568  1.00  0.00    -0.457 A  
HETATM    8  C   UNL     1     -11.877   9.202  71.724  1.00  0.00    -0.383 A  
HETATM    9  C   UNL     1     -11.260   9.216  70.466  1.00  0.00    -0.309 A  
HETATM   10  C   UNL     1     -10.455   8.103  70.098  1.00  0.00    -0.225 A  
HETATM   11  C   UNL     1     -11.506  10.369  69.685  1.00  0.00    -0.262 A  
HETATM   12  N   UNL     1     -12.313  11.353  70.125  1.00  0.00    -0.286 NA 
HETATM   13  C   UNL     1     -10.294   6.996  70.941  1.00  0.00    -0.198 A  
HETATM   14  N   UNL     1     -12.656  10.189  72.167  1.00  0.00    -0.256 NA 
HETATM   15  C   UNL     1     -12.844  11.217  71.341  1.00  0.00    -0.410 A  
BRANCH  11  16
HETATM   16  N   UNL     1     -10.843  10.527  68.440  1.00  0.00    -0.222 NA 
HETATM   17  H   UNL     1     -10.510   9.662  68.015  1.00  0.00     0.000 HD 
BRANCH  16  18
HETATM   18  C   UNL     1     -10.573  11.703  67.698  1.00  0.00    -0.203 A  
HETATM   19  C   UNL     1     -11.266  11.928  66.495  1.00  0.00    -0.383 A  
HETATM   20  C   UNL     1      -9.920  13.886  66.025  1.00  0.00    -0.325 A  
HETATM   21  C   UNL     1     -10.940  13.008  65.663  1.00  0.00    -0.296 A  
HETATM   22  C   UNL     1      -9.544  12.595  68.030  1.00  0.00    -0.213 A  
HETATM   23  C   UNL     1      -9.227  13.683  67.213  1.00  0.00    -0.232 A  
BRANCH  21  24
HETATM   24  C   UNL     1     -11.622  13.205  64.419  1.00  0.00    -0.422 C  
HETATM   25  C   UNL     1     -12.214  13.318  63.380  1.00  0.00    -0.476 C  
ENDBRANCH  21  24
ENDBRANCH  16  18
ENDBRANCH  11  16
BRANCH  13  26
HETATM   26  O   UNL     1      -9.515   6.008  70.381  1.00  0.00    -0.160 OA 
BRANCH  26  27
HETATM   27  C   UNL     1     -10.099   5.207  69.354  1.00  0.00    -0.234 C  
BRANCH  27  28
HETATM   28  C   UNL     1      -9.048   4.763  68.342  1.00  0.00    -0.117 C  
BRANCH  28  29
HETATM   29  O   UNL     1      -8.574   5.930  67.663  1.00  0.00    -0.105 OA 
HETATM   30  C   UNL     1      -9.471   6.361  66.652  1.00  0.00    -0.161 C  
ENDBRANCH  28  29
ENDBRANCH  27  28
ENDBRANCH  26  27
ENDBRANCH  13  26
ENDBRANCH   5   6
ENDBRANCH   4   5
ENDBRANCH   3   4
ENDBRANCH   2   3
TORSDOF 11
ENDMDL
MODEL      110
REMARK 921   NORMALIZED FREE ENERGY PREDICTED BY IDOCK:   -4.66 KCAL/MOL
REMARK 922        TOTAL FREE ENERGY PREDICTED BY IDOCK:   -8.79 KCAL/MOL
REMARK 923 INTER-LIGAND FREE ENERGY PREDICTED BY IDOCK:   -7.43 KCAL/MOL
REMARK 924 INTRA-LIGAND FREE ENERGY PREDICTED BY IDOCK:   -1.35 KCAL/MOL
REMARK 927      BINDING AFFINITY PREDICTED BY RF-SCORE:    0.00 PKD
ROOT
HETATM    1  C   UNL     1     -10.501  17.187  68.460  1.00  0.00    -0.377 C  
HETATM    2  O   UNL     1     -11.477  16.197  68.761  1.00  0.00    -0.362 OA 
ENDROOT
BRANCH   2   3
HETATM    3  C   UNL     1     -10.871  15.033  69.316  1.00  0.00    -0.261 C  
BRANCH   3   4
HETATM    4  C   UNL     1     -10.004  14.341  68.267  1.00  0.00    -0.239 C  
BRANCH   4   5
HETATM    5  O   UNL     1     -10.872  13.533  67.480  1.00  0.00    -0.259 OA 
BRANCH   5   6
HETATM    6  C   UNL     1     -10.518  12.265  67.137  1.00  0.00    -0.219 A  
HETATM    7  C   UNL     1      -9.485  11.985  66.234  1.00  0.00    -0.237 A  
HETATM    8  C   UNL     1      -9.143  10.690  65.873  1.00  0.00    -0.180 A  
HETATM    9  C   UNL     1      -9.823   9.610  66.453  1.00  0.00    -0.309 A  
HETATM   10  C   UNL     1     -10.852   9.889  67.393  1.00  0.00    -0.293 A  
HETATM   11  C   UNL     1      -9.392   8.331  66.034  1.00  0.00    -0.149 A  
HETATM   12  N   UNL     1      -8.421   8.186  65.112  1.00  0.00    -0.145 NA 
HETATM   13  C   UNL     1     -11.218  11.201  67.723  1.00  0.00    -0.294 A  
HETATM   14  N   UNL     1      -8.167  10.544  64.978  1.00  0.00    -0.150 NA 
HETATM   15  C   UNL     1      -7.857   9.295  64.632  1.00  0.00    -0.120 A  
BRANCH  11  16
HETATM   16  N   UNL     1      -9.943   7.172  66.641  1.00  0.00    -0.354 NA 
HETATM   17  H   UNL     1     -10.484   6.574  66.017  1.00  0.00     0.000 HD 
BRANCH  16  18
HETATM   18  C   UNL     1      -9.856   6.719  67.980  1.00  0.00    -0.136 A  
HETATM   19  C   UNL     1      -8.591   6.584  68.577  1.00  0.00    -0.123 A  
HETATM   20  C   UNL     1      -9.571   5.584  70.553  1.00  0.00    -0.225 A  
HETATM   21  C   UNL     1      -8.448   6.017  69.852  1.00  0.00    -0.130 A  
HETATM   22  C   UNL     1     -10.967   6.263  68.704  1.00  0.00    -0.423 A  
HETATM   23  C   UNL     1     -10.832   5.713  69.982  1.00  0.00    -0.366 A  
BRANCH  21  24
HETATM   24  C   UNL     1      -7.151   5.844  70.434  1.00  0.00    -0.070 C  
HETATM   25  C   UNL     1      -6.088   5.696  70.974  1.00  0.00    -0.033 C  
ENDBRANCH  21  24
ENDBRANCH  16  18
ENDBRANCH  11  16
BRANCH  13  26
HETATM   26  O   UNL     1     -12.265  11.254  68.616  1.00  0.00    -0.562 OA 
BRANCH  26  27
HETATM   27  C   UNL     1     -11.955  11.510  69.985  1.00  0.00    -0.357 C  
BRANCH  27  28
HETATM   28  C   UNL     1     -12.642  10.501  70.900  1.00  0.00    -0.398 C  
BRANCH  28  29
HETATM   29  O   UNL     1     -11.829   9.324  70.941  1.00  0.00    -0.283 OA 
HETATM   30  C   UNL     1     -11.964   8.623  72.166  1.00  0.00    -0.379 C  
ENDBRANCH  28  29
ENDBRANCH  27  28
ENDBRANCH  26  27
ENDBRANCH  13  26
ENDBRANCH   5   6
ENDBRANCH   4   5
ENDBRANCH   3   4
ENDBRANCH   2   3
TORSDOF 11
ENDMDL
MODEL      111
REMARK 921   NORMALIZED FREE ENERGY PREDICTED BY IDOCK:   -4.63 KCAL/MOL
REMARK 922        TOTAL FREE ENERGY PREDICTED BY IDOCK:   -8.74 KCAL/MOL
REMARK 923 INTER-LIGAND FREE ENERGY PREDICTED BY IDOCK:   -7.95 KCAL/MOL
REMARK 924 INTRA-LIGAND FREE ENERGY PREDICTED BY IDOCK:   -0.79 KCAL/MOL
REMARK 927      BINDING AFFINITY PREDICTED BY RF-SCORE:    0.00 PKD
ROOT
HETATM    1  C   UNL     1     -12.941   7.373  71.670  1.00  0.00    -0.366 C  
HETATM    2  O   UNL     1     -12.991   8.544  72.476  1.00  0.00    -0.337 OA 
ENDROOT
BRANCH   2   3
HETATM    3  C   UNL     1     -12.949   9.720  71.673  1.00  0.00    -0.419 C  
BRANCH   3   4
HETATM    4  C   UNL     1     -11.647   9.768  70.877  1.00  0.00    -0.361 C  
BRANCH   4   5
HETATM    5  O   UNL     1     -11.952  10.364  69.622  1.00  0.00    -0.222 OA 
BRANCH   5   6
HETATM    6  C   UNL     1     -11.471  11.598  69.304  1.00  0.00    -0.300 A  
HETATM    7  C   UNL     1     -11.986  12.777  69.856  1.00  0.00    -0.368 A  
HETATM    8  C   UNL     1     -11.504  14.031  69.512  1.00  0.00    -0.275 A  
HETATM    9  C   UNL     1     -10.438  14.136  68.609  1.00  0.00    -0.250 A  
HETATM   10  C   UNL     1      -9.892  12.940  68.068  1.00  0.00    -0.223 A  
HETATM   11  C   UNL     1     -10.008  15.455  68.334  1.00  0.00    -0.215 A  
HETATM   12  N   UNL     1     -10.621  16.521  68.884  1.00  0.00    -0.304 NA 
HETATM   13  C   UNL     1     -10.410  11.679  68.391  1.00  0.00    -0.204 A  
HETATM   14  N   UNL     1     -12.094  15.086  70.074  1.00  0.00    -0.319 NA 
HETATM   15  C   UNL     1     -11.629  16.285  69.725  1.00  0.00    -0.135 A  
BRANCH  11  16
HETATM   16  N   UNL     1      -8.867  15.664  67.515  1.00  0.00    -0.177 NA 
HETATM   17  H   UNL     1      -8.584  14.860  66.956  1.00  0.00     0.000 HD 
BRANCH  16  18
HETATM   18  C   UNL     1      -8.063  16.818  67.355  1.00  0.00    -0.170 A  
HETATM   19  C   UNL     1      -7.576  17.479  68.498  1.00  0.00    -0.266 A  
HETATM   20  C   UNL     1      -6.667  19.267  67.142  1.00  0.00    -0.204 A  
HETATM   21  C   UNL     1      -6.887  18.695  68.393  1.00  0.00    -0.265 A  
HETATM   22  C   UNL     1      -7.837  17.424  66.112  1.00  0.00    -0.293 A  
HETATM   23  C   UNL     1      -7.136  18.628  65.999  1.00  0.00    -0.302 A  
BRANCH  21  24
HETATM   24  C   UNL     1      -6.433  19.382  69.564  1.00  0.00    -0.356 C  
HETATM   25  C   UNL     1      -6.031  19.910  70.565  1.00  0.00    -0.344 C  
ENDBRANCH  21  24
ENDBRANCH  16  18
ENDBRANCH  11  16
BRANCH  13  26
HETATM   26  O   UNL     1      -9.771  10.655  67.728  1.00  0.00    -0.158 OA 
BRANCH  26  27
HETATM   27  C   UNL     1     -10.478  10.009  66.669  1.00  0.00    -0.174 C  
BRANCH  27  28
HETATM   28  C   UNL     1      -9.746  10.177  65.341  1.00  0.00    -0.291 C  
BRANCH  28  29
HETATM   29  O   UNL     1     -10.642  10.816  64.427  1.00  0.00    -0.347 OA 
HETATM   30  C   UNL     1     -10.720  12.216  64.644  1.00  0.00    -0.304 C  
ENDBRANCH  28  29
ENDBRANCH  27  28
ENDBRANCH  26  27
ENDBRANCH  13  26
ENDBRANCH   5   6
ENDBRANCH   4   5
ENDBRANCH   3   4
ENDBRANCH   2   3
TORSDOF 11
ENDMDL
MODEL      112
REMARK 921   NORMALIZED FREE ENERGY PREDICTED BY IDOCK:   -4.62 KCAL/MOL
REMARK 922        TOTAL FREE ENERGY PREDICTED BY IDOCK:   -8.73 KCAL/MOL
REMARK 923 INTER-LIGAND FREE ENERGY PREDICTED BY IDOCK:   -7.43 KCAL/MOL
REMARK 924 INTRA-LIGAND FREE ENERGY PREDICTED BY IDOCK:   -1.30 KCAL/MOL
REMARK 927      BINDING AFFINITY PREDICTED BY RF-SCORE:    0.00 PKD
ROOT
HETATM    1  C   UNL     1     -10.676   5.497  70.041  1.00  0.00    -0.286 C  
HETATM    2  O   UNL     1     -10.855   6.733  69.358  1.00  0.00    -0.239 OA 
ENDROOT
BRANCH   2   3
HETATM    3  C   UNL     1     -11.179   6.518  67.988  1.00  0.00    -0.148 C  
BRANCH   3   4
HETATM    4  C   UNL     1     -10.573   7.622  67.124  1.00  0.00    -0.340 C  
BRANCH   4   5
HETATM    5  O   UNL     1     -10.394   8.754  67.968  1.00  0.00    -0.208 OA 
BRANCH   5   6
HETATM    6  C   UNL     1     -10.308  10.006  67.440  1.00  0.00    -0.238 A  
HETATM    7  C   UNL     1     -11.401  10.658  66.856  1.00  0.00     0.102 A  
HETATM    8  C   UNL     1     -11.302  11.925  66.301  1.00  0.00    -0.334 A  
HETATM    9  C   UNL     1     -10.079  12.607  66.353  1.00  0.00    -0.263 A  
HETATM   10  C   UNL     1      -8.973  11.961  66.972  1.00  0.00    -0.190 A  
HETATM   11  C   UNL     1     -10.082  13.898  65.776  1.00  0.00    -0.320 A  
HETATM   12  N   UNL     1     -11.185  14.400  65.189  1.00  0.00    -0.341 NA 
HETATM   13  C   UNL     1      -9.072  10.665  67.495  1.00  0.00    -0.139 A  
HETATM   14  N   UNL     1     -12.399  12.434  65.741  1.00  0.00    -0.603 NA 
HETATM   15  C   UNL     1     -12.286  13.647  65.202  1.00  0.00    -0.452 A  
BRANCH  11  16
HETATM   16  N   UNL     1      -8.922  14.711  65.872  1.00  0.00    -0.406 NA 
HETATM   17  H   UNL     1      -8.216  14.542  65.156  1.00  0.00     0.000 HD 
BRANCH  16  18
HETATM   18  C   UNL     1      -8.596  15.722  66.809  1.00  0.00    -0.270 A  
HETATM   19  C   UNL     1      -9.148  17.005  66.652  1.00  0.00    -0.278 A  
HETATM   20  C   UNL     1      -7.805  17.863  68.476  1.00  0.00    -0.301 A  
HETATM   21  C   UNL     1      -8.754  18.069  67.477  1.00  0.00    -0.248 A  
HETATM   22  C   UNL     1      -7.636  15.548  67.815  1.00  0.00    -0.162 A  
HETATM   23  C   UNL     1      -7.251  16.600  68.650  1.00  0.00    -0.192 A  
BRANCH  21  24
HETATM   24  C   UNL     1      -9.289  19.383  67.282  1.00  0.00    -0.386 C  
HETATM   25  C   UNL     1      -9.790  20.463  67.124  1.00  0.00    -0.601 C  
ENDBRANCH  21  24
ENDBRANCH  16  18
ENDBRANCH  11  16
BRANCH  13  26
HETATM   26  O   UNL     1      -7.880  10.205  68.008  1.00  0.00    -0.095 OA 
BRANCH  26  27
HETATM   27  C   UNL     1      -7.454  10.730  69.265  1.00  0.00    -0.135 C  
BRANCH  27  28
HETATM   28  C   UNL     1      -6.837   9.639  70.134  1.00  0.00    -0.097 C  
BRANCH  28  29
HETATM   29  O   UNL     1      -7.786   8.573  70.236  1.00  0.00    -0.071 OA 
HETATM   30  C   UNL     1      -8.591   8.683  71.398  1.00  0.00    -0.192 C  
ENDBRANCH  28  29
ENDBRANCH  27  28
ENDBRANCH  26  27
ENDBRANCH  13  26
ENDBRANCH   5   6
ENDBRANCH   4   5
ENDBRANCH   3   4
ENDBRANCH   2   3
TORSDOF 11
ENDMDL
MODEL      113
REMARK 921   NORMALIZED FREE ENERGY PREDICTED BY IDOCK:   -4.61 KCAL/MOL
REMARK 922        TOTAL FREE ENERGY PREDICTED BY IDOCK:   -8.72 KCAL/MOL
REMARK 923 INTER-LIGAND FREE ENERGY PREDICTED BY IDOCK:   -8.28 KCAL/MOL
REMARK 924 INTRA-LIGAND FREE ENERGY PREDICTED BY IDOCK:   -0.43 KCAL/MOL
REMARK 927      BINDING AFFINITY PREDICTED BY RF-SCORE:    0.00 PKD
ROOT
HETATM    1  C   UNL     1     -11.843   8.852  70.950  1.00  0.00    -0.240 C  
HETATM    2  O   UNL     1     -10.874   9.473  70.112  1.00  0.00    -0.227 OA 
ENDROOT
BRANCH   2   3
HETATM    3  C   UNL     1     -11.440  10.571  69.403  1.00  0.00    -0.262 C  
BRANCH   3   4
HETATM    4  C   UNL     1     -11.200  10.409  67.904  1.00  0.00    -0.263 C  
BRANCH   4   5
HETATM    5  O   UNL     1     -11.844  11.505  67.262  1.00  0.00    -0.609 OA 
BRANCH   5   6
HETATM    6  C   UNL     1     -11.347  12.767  67.380  1.00  0.00    -0.313 A  
HETATM    7  C   UNL     1     -11.698  13.624  68.429  1.00  0.00    -0.393 A  
HETATM    8  C   UNL     1     -11.204  14.916  68.531  1.00  0.00    -0.279 A  
HETATM    9  C   UNL     1     -10.290  15.382  67.577  1.00  0.00    -0.264 A  
HETATM   10  C   UNL     1      -9.908  14.505  66.526  1.00  0.00    -0.297 A  
HETATM   11  C   UNL     1      -9.832  16.705  67.776  1.00  0.00    -0.252 A  
HETATM   12  N   UNL     1     -10.286  17.458  68.796  1.00  0.00    -0.346 NA 
HETATM   13  C   UNL     1     -10.441  13.214  66.408  1.00  0.00    -0.282 A  
HETATM   14  N   UNL     1     -11.634  15.655  69.554  1.00  0.00    -0.333 NA 
HETATM   15  C   UNL     1     -11.160  16.898  69.633  1.00  0.00     0.116 A  
BRANCH  11  16
HETATM   16  N   UNL     1      -8.825  17.233  66.925  1.00  0.00    -0.231 NA 
HETATM   17  H   UNL     1      -8.622  16.674  66.097  1.00  0.00     0.000 HD 
BRANCH  16  18
HETATM   18  C   UNL     1      -8.059  18.417  67.051  1.00  0.00    -0.231 A  
HETATM   19  C   UNL     1      -7.379  18.669  68.256  1.00  0.00    -0.294 A  
HETATM   20  C   UNL     1      -6.718  20.868  67.485  1.00  0.00    -0.422 A  
HETATM   21  C   UNL     1      -6.716  19.886  68.473  1.00  0.00    -0.338 A  
HETATM   22  C   UNL     1      -8.054  19.429  66.081  1.00  0.00    -0.323 A  
HETATM   23  C   UNL     1      -7.381  20.637  66.285  1.00  0.00    -0.127 A  
BRANCH  21  24
HETATM   24  C   UNL     1      -6.063  20.151  69.720  1.00  0.00    -0.392 C  
HETATM   25  C   UNL     1      -5.546  20.332  70.788  1.00  0.00    -0.333 C  
ENDBRANCH  21  24
ENDBRANCH  16  18
ENDBRANCH  11  16
BRANCH  13  26
HETATM   26  O   UNL     1      -9.977  12.545  65.298  1.00  0.00    -0.267 OA 
BRANCH  26  27
HETATM   27  C   UNL     1     -10.671  12.743  64.066  1.00  0.00    -0.426 C  
BRANCH  27  28
HETATM   28  C   UNL     1     -10.209  11.744  63.011  1.00  0.00    -0.210 C  
BRANCH  28  29
HETATM   29  O   UNL     1      -9.317  10.821  63.643  1.00  0.00    -0.227 OA 
HETATM   30  C   UNL     1      -9.101   9.661  62.856  1.00  0.00    -0.218 C  
ENDBRANCH  28  29
ENDBRANCH  27  28
ENDBRANCH  26  27
ENDBRANCH  13  26
ENDBRANCH   5   6
ENDBRANCH   4   5
ENDBRANCH   3   4
ENDBRANCH   2   3
TORSDOF 11
ENDMDL
MODEL      114
REMARK 921   NORMALIZED FREE ENERGY PREDICTED BY IDOCK:   -4.61 KCAL/MOL
REMARK 922        TOTAL FREE ENERGY PREDICTED BY IDOCK:   -8.71 KCAL/MOL
REMARK 923 INTER-LIGAND FREE ENERGY PREDICTED BY IDOCK:   -7.19 KCAL/MOL
REMARK 924 INTRA-LIGAND FREE ENERGY PREDICTED BY IDOCK:   -1.52 KCAL/MOL
REMARK 927      BINDING AFFINITY PREDICTED BY RF-SCORE:    0.00 PKD
ROOT
HETATM    1  C   UNL     1      -9.956   4.043  62.954  1.00  0.00    -0.151 C  
HETATM    2  O   UNL     1      -9.265   4.441  64.133  1.00  0.00    -0.153 OA 
ENDROOT
BRANCH   2   3
HETATM    3  C   UNL     1      -7.948   4.891  63.827  1.00  0.00    -0.095 C  
BRANCH   3   4
HETATM    4  C   UNL     1      -7.830   6.390  64.093  1.00  0.00    -0.116 C  
BRANCH   4   5
HETATM    5  O   UNL     1      -7.710   6.551  65.502  1.00  0.00    -0.086 OA 
BRANCH   5   6
HETATM    6  C   UNL     1      -8.330   7.583  66.137  1.00  0.00    -0.138 A  
HETATM    7  C   UNL     1      -9.088   8.545  65.458  1.00  0.00    -0.150 A  
HETATM    8  C   UNL     1      -9.700   9.605  66.110  1.00  0.00    -0.252 A  
HETATM    9  C   UNL     1      -9.596   9.711  67.503  1.00  0.00    -0.180 A  
HETATM   10  C   UNL     1      -8.852   8.721  68.200  1.00  0.00    -0.141 A  
HETATM   11  C   UNL     1     -10.266  10.816  68.076  1.00  0.00    -0.178 A  
HETATM   12  N   UNL     1     -10.920  11.712  67.312  1.00  0.00    -0.251 NA 
HETATM   13  C   UNL     1      -8.204   7.674  67.530  1.00  0.00    -0.121 A  
HETATM   14  N   UNL     1     -10.367  10.480  65.358  1.00  0.00    -0.258 NA 
HETATM   15  C   UNL     1     -10.940  11.501  65.996  1.00  0.00    -0.259 A  
BRANCH  11  16
HETATM   16  N   UNL     1     -10.310  10.954  69.488  1.00  0.00    -0.417 NA 
HETATM   17  H   UNL     1      -9.614  11.586  69.883  1.00  0.00     0.000 HD 
BRANCH  16  18
HETATM   18  C   UNL     1     -11.173  10.348  70.434  1.00  0.00    -0.321 A  
HETATM   19  C   UNL     1     -10.664   9.357  71.291  1.00  0.00    -0.421 A  
HETATM   20  C   UNL     1     -12.875   8.908  72.172  1.00  0.00    -0.471 A  
HETATM   21  C   UNL     1     -11.508   8.640  72.151  1.00  0.00    -0.443 A  
HETATM   22  C   UNL     1     -12.554  10.588  70.468  1.00  0.00    -0.423 A  
HETATM   23  C   UNL     1     -13.398   9.888  71.335  1.00  0.00    -0.447 A  
BRANCH  21  24
HETATM   24  C   UNL     1     -10.987   7.602  72.990  1.00  0.00    -0.457 C  
HETATM   25  C   UNL     1     -10.501   6.736  73.665  1.00  0.00    -0.374 C  
ENDBRANCH  21  24
ENDBRANCH  16  18
ENDBRANCH  11  16
BRANCH  13  26
HETATM   26  O   UNL     1      -7.502   6.850  68.381  1.00  0.00    -0.093 OA 
BRANCH  26  27
HETATM   27  C   UNL     1      -8.169   5.693  68.883  1.00  0.00    -0.100 C  
BRANCH  27  28
HETATM   28  C   UNL     1      -8.639   5.911  70.318  1.00  0.00    -0.134 C  
BRANCH  28  29
HETATM   29  O   UNL     1      -9.970   5.395  70.425  1.00  0.00    -0.191 OA 
HETATM   30  C   UNL     1     -10.840   5.956  69.456  1.00  0.00    -0.372 C  
ENDBRANCH  28  29
ENDBRANCH  27  28
ENDBRANCH  26  27
ENDBRANCH  13  26
ENDBRANCH   5   6
ENDBRANCH   4   5
ENDBRANCH   3   4
ENDBRANCH   2   3
TORSDOF 11
ENDMDL
MODEL      115
REMARK 921   NORMALIZED FREE ENERGY PREDICTED BY IDOCK:   -4.60 KCAL/MOL
REMARK 922        TOTAL FREE ENERGY PREDICTED BY IDOCK:   -8.69 KCAL/MOL
REMARK 923 INTER-LIGAND FREE ENERGY PREDICTED BY IDOCK:   -7.63 KCAL/MOL
REMARK 924 INTRA-LIGAND FREE ENERGY PREDICTED BY IDOCK:   -1.06 KCAL/MOL
REMARK 927      BINDING AFFINITY PREDICTED BY RF-SCORE:    0.00 PKD
ROOT
HETATM    1  C   UNL     1      -9.433   4.485  74.443  1.00  0.00    -0.121 C  
HETATM    2  O   UNL     1     -10.435   5.495  74.410  1.00  0.00    -0.272 OA 
ENDROOT
BRANCH   2   3
HETATM    3  C   UNL     1     -11.326   5.297  73.316  1.00  0.00    -0.251 C  
BRANCH   3   4
HETATM    4  C   UNL     1     -10.627   5.633  72.001  1.00  0.00    -0.229 C  
BRANCH   4   5
HETATM    5  O   UNL     1     -11.603   6.233  71.156  1.00  0.00    -0.318 OA 
BRANCH   5   6
HETATM    6  C   UNL     1     -11.478   7.530  70.763  1.00  0.00    -0.284 A  
HETATM    7  C   UNL     1     -12.170   8.579  71.380  1.00  0.00    -0.343 A  
HETATM    8  C   UNL     1     -12.053   9.895  70.961  1.00  0.00    -0.358 A  
HETATM    9  C   UNL     1     -11.185  10.209  69.907  1.00  0.00    -0.343 A  
HETATM   10  C   UNL     1     -10.456   9.152  69.297  1.00  0.00    -0.231 A  
HETATM   11  C   UNL     1     -11.122  11.579  69.564  1.00  0.00    -0.191 A  
HETATM   12  N   UNL     1     -11.882  12.495  70.195  1.00  0.00    -0.303 NA 
HETATM   13  C   UNL     1     -10.610   7.818  69.701  1.00  0.00    -0.242 A  
HETATM   14  N   UNL     1     -12.787  10.806  71.600  1.00  0.00    -0.449 NA 
HETATM   15  C   UNL     1     -12.673  12.066  71.179  1.00  0.00    -0.266 A  
BRANCH  11  16
HETATM   16  N   UNL     1     -10.194  12.014  68.582  1.00  0.00    -0.301 NA 
HETATM   17  H   UNL     1      -9.258  12.217  68.931  1.00  0.00     0.000 HD 
BRANCH  16  18
HETATM   18  C   UNL     1     -10.370  12.208  67.190  1.00  0.00    -0.214 A  
HETATM   19  C   UNL     1     -10.549  13.513  66.697  1.00  0.00    -0.280 A  
HETATM   20  C   UNL     1     -10.979  12.669  64.468  1.00  0.00    -0.365 A  
HETATM   21  C   UNL     1     -10.855  13.742  65.348  1.00  0.00    -0.312 A  
HETATM   22  C   UNL     1     -10.513  11.148  66.284  1.00  0.00    -0.312 A  
HETATM   23  C   UNL     1     -10.801  11.371  64.935  1.00  0.00    -0.323 A  
BRANCH  21  24
HETATM   24  C   UNL     1     -11.078  15.071  64.863  1.00  0.00    -0.425 C  
HETATM   25  C   UNL     1     -11.321  16.178  64.466  1.00  0.00    -0.273 C  
ENDBRANCH  21  24
ENDBRANCH  16  18
ENDBRANCH  11  16
BRANCH  13  26
HETATM   26  O   UNL     1      -9.851   6.945  68.954  1.00  0.00    -0.145 OA 
BRANCH  26  27
HETATM   27  C   UNL     1      -9.423   7.376  67.663  1.00  0.00    -0.136 C  
BRANCH  27  28
HETATM   28  C   UNL     1      -9.352   6.204  66.690  1.00  0.00    -0.146 C  
BRANCH  28  29
HETATM   29  O   UNL     1      -7.971   5.906  66.465  1.00  0.00    -0.100 OA 
HETATM   30  C   UNL     1      -7.726   4.509  66.417  1.00  0.00    -0.094 C  
ENDBRANCH  28  29
ENDBRANCH  27  28
ENDBRANCH  26  27
ENDBRANCH  13  26
ENDBRANCH   5   6
ENDBRANCH   4   5
ENDBRANCH   3   4
ENDBRANCH   2   3
TORSDOF 11
ENDMDL
MODEL      116
REMARK 921   NORMALIZED FREE ENERGY PREDICTED BY IDOCK:   -4.58 KCAL/MOL
REMARK 922        TOTAL FREE ENERGY PREDICTED BY IDOCK:   -8.66 KCAL/MOL
REMARK 923 INTER-LIGAND FREE ENERGY PREDICTED BY IDOCK:   -7.30 KCAL/MOL
REMARK 924 INTRA-LIGAND FREE ENERGY PREDICTED BY IDOCK:   -1.36 KCAL/MOL
REMARK 927      BINDING AFFINITY PREDICTED BY RF-SCORE:    0.00 PKD
ROOT
HETATM    1  C   UNL     1      -7.230   5.395  65.195  1.00  0.00    -0.067 C  
HETATM    2  O   UNL     1      -6.262   5.588  66.220  1.00  0.00    -0.032 OA 
ENDROOT
BRANCH   2   3
HETATM    3  C   UNL     1      -5.490   6.761  65.980  1.00  0.00    -0.022 C  
BRANCH   3   4
HETATM    4  C   UNL     1      -6.362   7.847  65.354  1.00  0.00    -0.041 C  
BRANCH   4   5
HETATM    5  O   UNL     1      -6.349   8.954  66.249  1.00  0.00    -0.062 OA 
BRANCH   5   6
HETATM    6  C   UNL     1      -7.455   9.271  66.976  1.00  0.00    -0.091 A  
HETATM    7  C   UNL     1      -7.626   8.875  68.307  1.00  0.00    -0.092 A  
HETATM    8  C   UNL     1      -8.765   9.184  69.035  1.00  0.00    -0.135 A  
HETATM    9  C   UNL     1      -9.774   9.955  68.442  1.00  0.00    -0.161 A  
HETATM   10  C   UNL     1      -9.592  10.385  67.099  1.00  0.00    -0.192 A  
HETATM   11  C   UNL     1     -10.887  10.231  69.269  1.00  0.00    -0.238 A  
HETATM   12  N   UNL     1     -10.967   9.745  70.522  1.00  0.00    -0.297 NA 
HETATM   13  C   UNL     1      -8.456  10.034  66.358  1.00  0.00    -0.129 A  
HETATM   14  N   UNL     1      -8.835   8.724  70.284  1.00  0.00    -0.149 NA 
HETATM   15  C   UNL     1      -9.940   9.020  70.968  1.00  0.00    -0.279 A  
BRANCH  11  16
HETATM   16  N   UNL     1     -11.914  11.091  68.798  1.00  0.00    -0.632 NA 
HETATM   17  H   UNL     1     -12.789  10.627  68.556  1.00  0.00     0.000 HD 
BRANCH  16  18
HETATM   18  C   UNL     1     -11.909  12.495  68.612  1.00  0.00    -0.297 A  
HETATM   19  C   UNL     1     -11.721  13.015  67.319  1.00  0.00    -0.429 A  
HETATM   20  C   UNL     1     -11.630  15.275  68.184  1.00  0.00    -0.344 A  
HETATM   21  C   UNL     1     -11.579  14.394  67.106  1.00  0.00    -0.406 A  
HETATM   22  C   UNL     1     -11.944  13.405  69.678  1.00  0.00    -0.386 A  
HETATM   23  C   UNL     1     -11.820  14.781  69.470  1.00  0.00    -0.366 A  
BRANCH  21  24
HETATM   24  C   UNL     1     -11.345  14.911  65.792  1.00  0.00    -0.314 C  
HETATM   25  C   UNL     1     -11.117  15.385  64.712  1.00  0.00    -0.416 C  
ENDBRANCH  21  24
ENDBRANCH  16  18
ENDBRANCH  11  16
BRANCH  13  26
HETATM   26  O   UNL     1      -8.493  10.513  65.067  1.00  0.00    -0.173 OA 
BRANCH  26  27
HETATM   27  C   UNL     1      -9.498   9.991  64.197  1.00  0.00    -0.252 C  
BRANCH  27  28
HETATM   28  C   UNL     1     -10.179  11.110  63.416  1.00  0.00    -0.380 C  
BRANCH  28  29
HETATM   29  O   UNL     1     -11.184  11.682  64.259  1.00  0.00    -0.341 OA 
HETATM   30  C   UNL     1     -12.315  12.118  63.523  1.00  0.00    -0.574 C  
ENDBRANCH  28  29
ENDBRANCH  27  28
ENDBRANCH  26  27
ENDBRANCH  13  26
ENDBRANCH   5   6
ENDBRANCH   4   5
ENDBRANCH   3   4
ENDBRANCH   2   3
TORSDOF 11
ENDMDL
MODEL      117
REMARK 921   NORMALIZED FREE ENERGY PREDICTED BY IDOCK:   -4.58 KCAL/MOL
REMARK 922        TOTAL FREE ENERGY PREDICTED BY IDOCK:   -8.65 KCAL/MOL
REMARK 923 INTER-LIGAND FREE ENERGY PREDICTED BY IDOCK:   -7.51 KCAL/MOL
REMARK 924 INTRA-LIGAND FREE ENERGY PREDICTED BY IDOCK:   -1.14 KCAL/MOL
REMARK 927      BINDING AFFINITY PREDICTED BY RF-SCORE:    0.00 PKD
ROOT
HETATM    1  C   UNL     1     -13.625  15.444  72.718  1.00  0.00    -0.531 C  
HETATM    2  O   UNL     1     -12.324  15.297  72.159  1.00  0.00    -0.317 OA 
ENDROOT
BRANCH   2   3
HETATM    3  C   UNL     1     -12.310  15.680  70.787  1.00  0.00    -0.419 C  
BRANCH   3   4
HETATM    4  C   UNL     1     -11.222  14.915  70.038  1.00  0.00    -0.259 C  
BRANCH   4   5
HETATM    5  O   UNL     1     -11.794  14.483  68.808  1.00  0.00    -0.308 OA 
BRANCH   5   6
HETATM    6  C   UNL     1     -11.468  13.271  68.280  1.00  0.00    -0.316 A  
HETATM    7  C   UNL     1     -10.758  13.134  67.081  1.00  0.00    -0.263 A  
HETATM    8  C   UNL     1     -10.448  11.896  66.538  1.00  0.00    -0.221 A  
HETATM    9  C   UNL     1     -10.817  10.731  67.222  1.00  0.00    -0.344 A  
HETATM   10  C   UNL     1     -11.512  10.865  68.455  1.00  0.00    -0.380 A  
HETATM   11  C   UNL     1     -10.442   9.519  66.597  1.00  0.00    -0.171 A  
HETATM   12  N   UNL     1      -9.809   9.511  65.409  1.00  0.00    -0.266 NA 
HETATM   13  C   UNL     1     -11.856  12.119  68.978  1.00  0.00    -0.306 A  
HETATM   14  N   UNL     1      -9.800  11.886  65.373  1.00  0.00    -0.240 NA 
HETATM   15  C   UNL     1      -9.518  10.690  64.858  1.00  0.00    -0.243 A  
BRANCH  11  16
HETATM   16  N   UNL     1     -10.676   8.286  67.261  1.00  0.00    -0.471 NA 
HETATM   17  H   UNL     1     -11.473   7.754  66.914  1.00  0.00     0.000 HD 
BRANCH  16  18
HETATM   18  C   UNL     1      -9.972   7.683  68.332  1.00  0.00    -0.176 A  
HETATM   19  C   UNL     1      -8.687   7.161  68.099  1.00  0.00    -0.127 A  
HETATM   20  C   UNL     1      -8.600   6.238  70.336  1.00  0.00    -0.142 A  
HETATM   21  C   UNL     1      -8.007   6.441  69.092  1.00  0.00    -0.111 A  
HETATM   22  C   UNL     1     -10.548   7.452  69.589  1.00  0.00    -0.243 A  
HETATM   23  C   UNL     1      -9.868   6.750  70.588  1.00  0.00    -0.191 A  
BRANCH  21  24
HETATM   24  C   UNL     1      -6.717   5.877  68.832  1.00  0.00    -0.060 C  
HETATM   25  C   UNL     1      -5.649   5.399  68.559  1.00  0.00    -0.011 C  
ENDBRANCH  21  24
ENDBRANCH  16  18
ENDBRANCH  11  16
BRANCH  13  26
HETATM   26  O   UNL     1     -12.564  12.030  70.156  1.00  0.00    -0.081 OA 
BRANCH  26  27
HETATM   27  C   UNL     1     -12.192  11.003  71.075  1.00  0.00    -0.351 C  
BRANCH  27  28
HETATM   28  C   UNL     1     -13.403  10.501  71.854  1.00  0.00    -0.355 C  
BRANCH  28  29
HETATM   29  O   UNL     1     -13.788   9.240  71.299  1.00  0.00    -0.323 OA 
HETATM   30  C   UNL     1     -13.264   8.148  72.037  1.00  0.00    -0.283 C  
ENDBRANCH  28  29
ENDBRANCH  27  28
ENDBRANCH  26  27
ENDBRANCH  13  26
ENDBRANCH   5   6
ENDBRANCH   4   5
ENDBRANCH   3   4
ENDBRANCH   2   3
TORSDOF 11
ENDMDL
MODEL      118
REMARK 921   NORMALIZED FREE ENERGY PREDICTED BY IDOCK:   -4.57 KCAL/MOL
REMARK 922        TOTAL FREE ENERGY PREDICTED BY IDOCK:   -8.65 KCAL/MOL
REMARK 923 INTER-LIGAND FREE ENERGY PREDICTED BY IDOCK:   -7.57 KCAL/MOL
REMARK 924 INTRA-LIGAND FREE ENERGY PREDICTED BY IDOCK:   -1.08 KCAL/MOL
REMARK 927      BINDING AFFINITY PREDICTED BY RF-SCORE:    0.00 PKD
ROOT
HETATM    1  C   UNL     1      -8.512   1.939  65.967  1.00  0.00    -0.106 C  
HETATM    2  O   UNL     1      -8.341   3.113  65.182  1.00  0.00    -0.093 OA 
ENDROOT
BRANCH   2   3
HETATM    3  C   UNL     1      -9.368   4.064  65.452  1.00  0.00    -0.162 C  
BRANCH   3   4
HETATM    4  C   UNL     1      -9.385   4.412  66.938  1.00  0.00    -0.153 C  
BRANCH   4   5
HETATM    5  O   UNL     1     -10.627   5.057  67.196  1.00  0.00    -0.174 OA 
BRANCH   5   6
HETATM    6  C   UNL     1     -10.667   6.244  67.862  1.00  0.00    -0.305 A  
HETATM    7  C   UNL     1     -11.110   6.355  69.186  1.00  0.00    -0.428 A  
HETATM    8  C   UNL     1     -11.167   7.571  69.851  1.00  0.00    -0.108 A  
HETATM    9  C   UNL     1     -10.734   8.734  69.200  1.00  0.00    -0.150 A  
HETATM   10  C   UNL     1     -10.256   8.621  67.866  1.00  0.00    -0.273 A  
HETATM   11  C   UNL     1     -10.816   9.920  69.966  1.00  0.00    -0.294 A  
HETATM   12  N   UNL     1     -11.315   9.913  71.216  1.00  0.00    -0.368 NA 
HETATM   13  C   UNL     1     -10.238   7.395  67.188  1.00  0.00    -0.277 A  
HETATM   14  N   UNL     1     -11.639   7.563  71.097  1.00  0.00    -0.276 NA 
HETATM   15  C   UNL     1     -11.699   8.739  71.720  1.00  0.00    -0.346 A  
BRANCH  11  16
HETATM   16  N   UNL     1     -10.305  11.133  69.435  1.00  0.00    -0.425 NA 
HETATM   17  H   UNL     1      -9.317  11.304  69.622  1.00  0.00     0.000 HD 
BRANCH  16  18
HETATM   18  C   UNL     1     -10.956  12.143  68.685  1.00  0.00    -0.245 A  
HETATM   19  C   UNL     1     -11.272  11.899  67.337  1.00  0.00    -0.366 A  
HETATM   20  C   UNL     1     -12.021  14.184  67.045  1.00  0.00    -0.471 A  
HETATM   21  C   UNL     1     -11.797  12.912  66.521  1.00  0.00    -0.473 A  
HETATM   22  C   UNL     1     -11.181  13.435  69.180  1.00  0.00    -0.300 A  
HETATM   23  C   UNL     1     -11.720  14.443  68.377  1.00  0.00    -0.367 A  
BRANCH  21  24
HETATM   24  C   UNL     1     -12.075  12.667  65.138  1.00  0.00    -0.508 C  
HETATM   25  C   UNL     1     -12.332  12.513  63.976  1.00  0.00    -0.557 C  
ENDBRANCH  21  24
ENDBRANCH  16  18
ENDBRANCH  11  16
BRANCH  13  26
HETATM   26  O   UNL     1      -9.782   7.509  65.893  1.00  0.00     0.091 OA 
BRANCH  26  27
HETATM   27  C   UNL     1      -8.449   7.980  65.700  1.00  0.00    -0.149 C  
BRANCH  27  28
HETATM   28  C   UNL     1      -8.141   8.160  64.217  1.00  0.00    -0.127 C  
BRANCH  28  29
HETATM   29  O   UNL     1      -7.994   6.858  63.641  1.00  0.00    -0.119 OA 
HETATM   30  C   UNL     1      -6.644   6.565  63.319  1.00  0.00    -0.037 C  
ENDBRANCH  28  29
ENDBRANCH  27  28
ENDBRANCH  26  27
ENDBRANCH  13  26
ENDBRANCH   5   6
ENDBRANCH   4   5
ENDBRANCH   3   4
ENDBRANCH   2   3
TORSDOF 11
ENDMDL
MODEL      119
REMARK 921   NORMALIZED FREE ENERGY PREDICTED BY IDOCK:   -4.57 KCAL/MOL
REMARK 922        TOTAL FREE ENERGY PREDICTED BY IDOCK:   -8.64 KCAL/MOL
REMARK 923 INTER-LIGAND FREE ENERGY PREDICTED BY IDOCK:   -7.90 KCAL/MOL
REMARK 924 INTRA-LIGAND FREE ENERGY PREDICTED BY IDOCK:   -0.74 KCAL/MOL
REMARK 927      BINDING AFFINITY PREDICTED BY RF-SCORE:    0.00 PKD
ROOT
HETATM    1  C   UNL     1      -7.437   2.478  69.139  1.00  0.00    -0.044 C  
HETATM    2  O   UNL     1      -8.064   3.733  69.373  1.00  0.00    -0.054 OA 
ENDROOT
BRANCH   2   3
HETATM    3  C   UNL     1      -9.374   3.559  69.906  1.00  0.00    -0.177 C  
BRANCH   3   4
HETATM    4  C   UNL     1      -9.766   4.772  70.747  1.00  0.00    -0.197 C  
BRANCH   4   5
HETATM    5  O   UNL     1      -9.410   5.927  69.996  1.00  0.00    -0.145 OA 
BRANCH   5   6
HETATM    6  C   UNL     1     -10.136   7.073  70.101  1.00  0.00    -0.187 A  
HETATM    7  C   UNL     1     -11.060   7.294  71.130  1.00  0.00    -0.275 A  
HETATM    8  C   UNL     1     -11.812   8.456  71.219  1.00  0.00    -0.289 A  
HETATM    9  C   UNL     1     -11.624   9.472  70.273  1.00  0.00    -0.219 A  
HETATM   10  C   UNL     1     -10.666   9.266  69.243  1.00  0.00    -0.211 A  
HETATM   11  C   UNL     1     -12.424  10.623  70.457  1.00  0.00    -0.358 A  
HETATM   12  N   UNL     1     -13.324  10.698  71.456  1.00  0.00    -0.318 NA 
HETATM   13  C   UNL     1      -9.938   8.072  69.138  1.00  0.00    -0.188 A  
HETATM   14  N   UNL     1     -12.686   8.541  72.221  1.00  0.00    -0.369 NA 
HETATM   15  C   UNL     1     -13.410   9.659  72.287  1.00  0.00    -0.408 A  
BRANCH  11  16
HETATM   16  N   UNL     1     -12.234  11.750  69.615  1.00  0.00    -0.230 NA 
HETATM   17  H   UNL     1     -12.262  11.553  68.616  1.00  0.00     0.000 HD 
BRANCH  16  18
HETATM   18  C   UNL     1     -12.013  13.108  69.952  1.00  0.00    -0.317 A  
HETATM   19  C   UNL     1     -12.193  13.523  71.283  1.00  0.00    -0.209 A  
HETATM   20  C   UNL     1     -11.842  15.838  70.666  1.00  0.00    -0.415 A  
HETATM   21  C   UNL     1     -12.112  14.877  71.638  1.00  0.00    -0.415 A  
HETATM   22  C   UNL     1     -11.755  14.099  68.994  1.00  0.00    -0.361 A  
HETATM   23  C   UNL     1     -11.656  15.448  69.345  1.00  0.00    -0.354 A  
BRANCH  21  24
HETATM   24  C   UNL     1     -12.340  15.295  72.989  1.00  0.00    -0.525 C  
HETATM   25  C   UNL     1     -12.476  15.637  74.132  1.00  0.00    -0.804 C  
ENDBRANCH  21  24
ENDBRANCH  16  18
ENDBRANCH  11  16
BRANCH  13  26
HETATM   26  O   UNL     1      -9.098   8.055  68.047  1.00  0.00    -0.131 OA 
BRANCH  26  27
HETATM   27  C   UNL     1      -9.603   7.510  66.829  1.00  0.00    -0.206 C  
BRANCH  27  28
HETATM   28  C   UNL     1      -8.978   6.150  66.537  1.00  0.00    -0.139 C  
BRANCH  28  29
HETATM   29  O   UNL     1     -10.020   5.275  66.097  1.00  0.00    -0.171 OA 
HETATM   30  C   UNL     1      -9.648   3.909  66.194  1.00  0.00    -0.183 C  
ENDBRANCH  28  29
ENDBRANCH  27  28
ENDBRANCH  26  27
ENDBRANCH  13  26
ENDBRANCH   5   6
ENDBRANCH   4   5
ENDBRANCH   3   4
ENDBRANCH   2   3
TORSDOF 11
ENDMDL
MODEL      120
REMARK 921   NORMALIZED FREE ENERGY PREDICTED BY IDOCK:   -4.57 KCAL/MOL
REMARK 922        TOTAL FREE ENERGY PREDICTED BY IDOCK:   -8.64 KCAL/MOL
REMARK 923 INTER-LIGAND FREE ENERGY PREDICTED BY IDOCK:   -7.55 KCAL/MOL
REMARK 924 INTRA-LIGAND FREE ENERGY PREDICTED BY IDOCK:   -1.09 KCAL/MOL
REMARK 927      BINDING AFFINITY PREDICTED BY RF-SCORE:    0.00 PKD
ROOT
HETATM    1  C   UNL     1      -6.948  17.007  66.141  1.00  0.00    -0.068 C  
HETATM    2  O   UNL     1      -7.529  16.021  66.988  1.00  0.00    -0.195 OA 
ENDROOT
BRANCH   2   3
HETATM    3  C   UNL     1      -8.752  15.534  66.443  1.00  0.00    -0.298 C  
BRANCH   3   4
HETATM    4  C   UNL     1      -9.375  14.506  67.383  1.00  0.00    -0.197 C  
BRANCH   4   5
HETATM    5  O   UNL     1     -10.264  13.716  66.601  1.00  0.00    -0.266 OA 
BRANCH   5   6
HETATM    6  C   UNL     1     -10.240  12.358  66.684  1.00  0.00    -0.224 A  
HETATM    7  C   UNL     1      -9.314  11.572  65.987  1.00  0.00    -0.239 A  
HETATM    8  C   UNL     1      -9.309  10.187  66.060  1.00  0.00    -0.169 A  
HETATM    9  C   UNL     1     -10.235   9.537  66.887  1.00  0.00    -0.317 A  
HETATM   10  C   UNL     1     -11.158  10.332  67.620  1.00  0.00    -0.319 A  
HETATM   11  C   UNL     1     -10.140   8.126  66.907  1.00  0.00    -0.297 A  
HETATM   12  N   UNL     1      -9.241   7.474  66.146  1.00  0.00    -0.144 NA 
HETATM   13  C   UNL     1     -11.182  11.729  67.510  1.00  0.00    -0.291 A  
HETATM   14  N   UNL     1      -8.404   9.541  65.326  1.00  0.00    -0.132 NA 
HETATM   15  C   UNL     1      -8.419   8.210  65.397  1.00  0.00    -0.147 A  
BRANCH  11  16
HETATM   16  N   UNL     1     -10.962   7.381  67.793  1.00  0.00    -0.504 NA 
HETATM   17  H   UNL     1     -11.928   7.263  67.489  1.00  0.00     0.000 HD 
BRANCH  16  18
HETATM   18  C   UNL     1     -10.646   6.777  69.034  1.00  0.00    -0.230 A  
HETATM   19  C   UNL     1     -10.162   5.456  69.049  1.00  0.00    -0.291 A  
HETATM   20  C   UNL     1     -10.230   5.404  71.470  1.00  0.00    -0.280 A  
HETATM   21  C   UNL     1      -9.959   4.773  70.257  1.00  0.00    -0.320 A  
HETATM   22  C   UNL     1     -10.921   7.381  70.268  1.00  0.00    -0.272 A  
HETATM   23  C   UNL     1     -10.704   6.711  71.476  1.00  0.00    -0.263 A  
BRANCH  21  24
HETATM   24  C   UNL     1      -9.508   3.414  70.262  1.00  0.00    -0.247 C  
HETATM   25  C   UNL     1      -9.139   2.273  70.211  1.00  0.00    -0.174 C  
ENDBRANCH  21  24
ENDBRANCH  16  18
ENDBRANCH  11  16
BRANCH  13  26
HETATM   26  O   UNL     1     -12.178  12.306  68.265  1.00  0.00    -0.315 OA 
BRANCH  26  27
HETATM   27  C   UNL     1     -11.828  12.802  69.557  1.00  0.00    -0.316 C  
BRANCH  27  28
HETATM   28  C   UNL     1     -12.382  14.206  69.773  1.00  0.00    -0.299 C  
BRANCH  28  29
HETATM   29  O   UNL     1     -11.543  14.865  70.727  1.00  0.00    -0.281 OA 
HETATM   30  C   UNL     1     -12.268  15.775  71.539  1.00  0.00    -0.453 C  
ENDBRANCH  28  29
ENDBRANCH  27  28
ENDBRANCH  26  27
ENDBRANCH  13  26
ENDBRANCH   5   6
ENDBRANCH   4   5
ENDBRANCH   3   4
ENDBRANCH   2   3
TORSDOF 11
ENDMDL
MODEL      121
REMARK 921   NORMALIZED FREE ENERGY PREDICTED BY IDOCK:   -4.55 KCAL/MOL
REMARK 922        TOTAL FREE ENERGY PREDICTED BY IDOCK:   -8.62 KCAL/MOL
REMARK 923 INTER-LIGAND FREE ENERGY PREDICTED BY IDOCK:   -7.67 KCAL/MOL
REMARK 924 INTRA-LIGAND FREE ENERGY PREDICTED BY IDOCK:   -0.95 KCAL/MOL
REMARK 927      BINDING AFFINITY PREDICTED BY RF-SCORE:    0.00 PKD
ROOT
HETATM    1  C   UNL     1     -12.724   8.231  71.979  1.00  0.00    -0.342 C  
HETATM    2  O   UNL     1     -12.862   9.606  72.316  1.00  0.00    -0.377 OA 
ENDROOT
BRANCH   2   3
HETATM    3  C   UNL     1     -13.130  10.392  71.158  1.00  0.00    -0.383 C  
BRANCH   3   4
HETATM    4  C   UNL     1     -12.020  10.208  70.127  1.00  0.00    -0.185 C  
BRANCH   4   5
HETATM    5  O   UNL     1     -12.343  11.040  69.019  1.00  0.00    -0.481 OA 
BRANCH   5   6
HETATM    6  C   UNL     1     -11.663  12.199  68.800  1.00  0.00    -0.321 A  
HETATM    7  C   UNL     1     -11.820  13.332  69.607  1.00  0.00    -0.391 A  
HETATM    8  C   UNL     1     -11.140  14.517  69.366  1.00  0.00    -0.268 A  
HETATM    9  C   UNL     1     -10.230  14.585  68.303  1.00  0.00    -0.234 A  
HETATM   10  C   UNL     1     -10.045  13.428  67.498  1.00  0.00    -0.227 A  
HETATM   11  C   UNL     1      -9.575  15.829  68.148  1.00  0.00    -0.199 A  
HETATM   12  N   UNL     1      -9.851  16.871  68.955  1.00  0.00    -0.263 NA 
HETATM   13  C   UNL     1     -10.766  12.247  67.725  1.00  0.00    -0.217 A  
HETATM   14  N   UNL     1     -11.394  15.542  70.178  1.00  0.00    -0.295 NA 
HETATM   15  C   UNL     1     -10.742  16.677  69.928  1.00  0.00    -0.202 A  
BRANCH  11  16
HETATM   16  N   UNL     1      -8.559  15.968  67.167  1.00  0.00    -0.182 NA 
HETATM   17  H   UNL     1      -8.633  15.331  66.374  1.00  0.00     0.000 HD 
BRANCH  16  18
HETATM   18  C   UNL     1      -7.457  16.857  67.120  1.00  0.00    -0.175 A  
HETATM   19  C   UNL     1      -7.228  17.604  65.952  1.00  0.00    -0.235 A  
HETATM   20  C   UNL     1      -5.145  18.459  66.843  1.00  0.00    -0.140 A  
HETATM   21  C   UNL     1      -6.079  18.396  65.811  1.00  0.00    -0.260 A  
HETATM   22  C   UNL     1      -6.493  16.930  68.136  1.00  0.00    -0.148 A  
HETATM   23  C   UNL     1      -5.355  17.732  68.009  1.00  0.00    -0.145 A  
BRANCH  21  24
HETATM   24  C   UNL     1      -5.833  19.120  64.600  1.00  0.00    -0.319 C  
HETATM   25  C   UNL     1      -5.663  19.766  63.602  1.00  0.00    -0.326 C  
ENDBRANCH  21  24
ENDBRANCH  16  18
ENDBRANCH  11  16
BRANCH  13  26
HETATM   26  O   UNL     1     -10.473  11.261  66.809  1.00  0.00    -0.228 OA 
BRANCH  26  27
HETATM   27  C   UNL     1     -11.268  11.200  65.625  1.00  0.00     0.079 C  
BRANCH  27  28
HETATM   28  C   UNL     1     -10.404  11.357  64.378  1.00  0.00    -0.320 C  
BRANCH  28  29
HETATM   29  O   UNL     1     -10.529  12.709  63.927  1.00  0.00    -0.410 OA 
HETATM   30  C   UNL     1     -11.820  12.982  63.406  1.00  0.00    -0.476 C  
ENDBRANCH  28  29
ENDBRANCH  27  28
ENDBRANCH  26  27
ENDBRANCH  13  26
ENDBRANCH   5   6
ENDBRANCH   4   5
ENDBRANCH   3   4
ENDBRANCH   2   3
TORSDOF 11
ENDMDL
MODEL      122
REMARK 921   NORMALIZED FREE ENERGY PREDICTED BY IDOCK:   -4.55 KCAL/MOL
REMARK 922        TOTAL FREE ENERGY PREDICTED BY IDOCK:   -8.61 KCAL/MOL
REMARK 923 INTER-LIGAND FREE ENERGY PREDICTED BY IDOCK:   -7.63 KCAL/MOL
REMARK 924 INTRA-LIGAND FREE ENERGY PREDICTED BY IDOCK:   -0.98 KCAL/MOL
REMARK 927      BINDING AFFINITY PREDICTED BY RF-SCORE:    0.00 PKD
ROOT
HETATM    1  C   UNL     1      -8.402  19.261  68.031  1.00  0.00    -0.315 C  
HETATM    2  O   UNL     1      -9.479  19.684  67.203  1.00  0.00    -0.312 OA 
ENDROOT
BRANCH   2   3
HETATM    3  C   UNL     1     -10.664  18.946  67.489  1.00  0.00    -0.434 C  
BRANCH   3   4
HETATM    4  C   UNL     1     -10.320  17.676  68.261  1.00  0.00    -0.384 C  
BRANCH   4   5
HETATM    5  O   UNL     1     -11.034  16.610  67.644  1.00  0.00    -0.296 OA 
BRANCH   5   6
HETATM    6  C   UNL     1     -11.418  15.522  68.366  1.00  0.00    -0.363 A  
HETATM    7  C   UNL     1     -12.051  15.624  69.611  1.00  0.00    -0.329 A  
HETATM    8  C   UNL     1     -12.421  14.511  70.351  1.00  0.00    -0.347 A  
HETATM    9  C   UNL     1     -12.194  13.230  69.830  1.00  0.00    -0.285 A  
HETATM   10  C   UNL     1     -11.578  13.122  68.553  1.00  0.00    -0.361 A  
HETATM   11  C   UNL     1     -12.620  12.160  70.650  1.00  0.00    -0.169 A  
HETATM   12  N   UNL     1     -13.168  12.381  71.860  1.00  0.00    -0.449 NA 
HETATM   13  C   UNL     1     -11.172  14.251  67.829  1.00  0.00    -0.291 A  
HETATM   14  N   UNL     1     -12.985  14.728  71.538  1.00  0.00    -0.315 NA 
HETATM   15  C   UNL     1     -13.325  13.649  72.243  1.00  0.00    -0.525 A  
BRANCH  11  16
HETATM   16  N   UNL     1     -12.531  10.829  70.167  1.00  0.00    -0.376 NA 
HETATM   17  H   UNL     1     -13.418  10.408  69.893  1.00  0.00     0.000 HD 
BRANCH  16  18
HETATM   18  C   UNL     1     -11.398   9.994  70.007  1.00  0.00    -0.275 A  
HETATM   19  C   UNL     1     -11.383   9.051  68.965  1.00  0.00     0.373 A  
HETATM   20  C   UNL     1      -9.296   8.119  69.766  1.00  0.00    -0.159 A  
HETATM   21  C   UNL     1     -10.343   8.118  68.847  1.00  0.00    -0.225 A  
HETATM   22  C   UNL     1     -10.338   9.964  70.924  1.00  0.00    -0.119 A  
HETATM   23  C   UNL     1      -9.290   9.047  70.801  1.00  0.00    -0.305 A  
BRANCH  21  24
HETATM   24  C   UNL     1     -10.358   7.132  67.808  1.00  0.00    -0.257 C  
HETATM   25  C   UNL     1     -10.416   6.331  66.915  1.00  0.00    -0.337 C  
ENDBRANCH  21  24
ENDBRANCH  16  18
ENDBRANCH  11  16
BRANCH  13  26
HETATM   26  O   UNL     1     -10.557  13.929  66.640  1.00  0.00    -0.272 OA 
BRANCH  26  27
HETATM   27  C   UNL     1      -9.173  14.252  66.501  1.00  0.00    -0.235 C  
BRANCH  27  28
HETATM   28  C   UNL     1      -8.323  13.453  67.483  1.00  0.00    -0.190 C  
BRANCH  28  29
HETATM   29  O   UNL     1      -7.429  12.635  66.722  1.00  0.00     0.066 OA 
HETATM   30  C   UNL     1      -7.615  11.253  66.984  1.00  0.00    -0.143 C  
ENDBRANCH  28  29
ENDBRANCH  27  28
ENDBRANCH  26  27
ENDBRANCH  13  26
ENDBRANCH   5   6
ENDBRANCH   4   5
ENDBRANCH   3   4
ENDBRANCH   2   3
TORSDOF 11
ENDMDL
MODEL      123
REMARK 921   NORMALIZED FREE ENERGY PREDICTED BY IDOCK:   -4.54 KCAL/MOL
REMARK 922        TOTAL FREE ENERGY PREDICTED BY IDOCK:   -8.59 KCAL/MOL
REMARK 923 INTER-LIGAND FREE ENERGY PREDICTED BY IDOCK:   -7.30 KCAL/MOL
REMARK 924 INTRA-LIGAND FREE ENERGY PREDICTED BY IDOCK:   -1.29 KCAL/MOL
REMARK 927      BINDING AFFINITY PREDICTED BY RF-SCORE:    0.00 PKD
ROOT
HETATM    1  C   UNL     1      -9.400   2.797  68.429  1.00  0.00    -0.192 C  
HETATM    2  O   UNL     1      -9.589   3.878  69.335  1.00  0.00    -0.182 OA 
ENDROOT
BRANCH   2   3
HETATM    3  C   UNL     1      -9.508   3.433  70.686  1.00  0.00    -0.173 C  
BRANCH   3   4
HETATM    4  C   UNL     1     -10.166   4.450  71.616  1.00  0.00    -0.116 C  
BRANCH   4   5
HETATM    5  O   UNL     1      -9.355   5.620  71.587  1.00  0.00    -0.145 OA 
BRANCH   5   6
HETATM    6  C   UNL     1      -9.897   6.831  71.284  1.00  0.00    -0.176 A  
HETATM    7  C   UNL     1     -11.054   7.320  71.902  1.00  0.00    -0.270 A  
HETATM    8  C   UNL     1     -11.612   8.546  71.573  1.00  0.00    -0.292 A  
HETATM    9  C   UNL     1     -10.984   9.355  70.616  1.00  0.00    -0.352 A  
HETATM   10  C   UNL     1      -9.792   8.876  70.007  1.00  0.00    -0.188 A  
HETATM   11  C   UNL     1     -11.619  10.592  70.362  1.00  0.00    -0.351 A  
HETATM   12  N   UNL     1     -12.767  10.931  70.980  1.00  0.00    -0.390 NA 
HETATM   13  C   UNL     1      -9.257   7.619  70.317  1.00  0.00    -0.157 A  
HETATM   14  N   UNL     1     -12.735   8.894  72.201  1.00  0.00    -0.384 NA 
HETATM   15  C   UNL     1     -13.266  10.070  71.867  1.00  0.00    -0.452 A  
BRANCH  11  16
HETATM   16  N   UNL     1     -11.006  11.528  69.488  1.00  0.00    -0.424 NA 
HETATM   17  H   UNL     1     -10.289  12.113  69.916  1.00  0.00     0.000 HD 
BRANCH  16  18
HETATM   18  C   UNL     1     -11.236  11.773  68.112  1.00  0.00    -0.260 A  
HETATM   19  C   UNL     1     -10.575  10.982  67.155  1.00  0.00    -0.294 A  
HETATM   20  C   UNL     1     -11.437  12.351  65.352  1.00  0.00    -0.402 A  
HETATM   21  C   UNL     1     -10.671  11.271  65.786  1.00  0.00    -0.284 A  
HETATM   22  C   UNL     1     -11.989  12.860  67.647  1.00  0.00    -0.344 A  
HETATM   23  C   UNL     1     -12.102  13.142  66.283  1.00  0.00    -0.460 A  
BRANCH  21  24
HETATM   24  C   UNL     1      -9.960  10.487  64.822  1.00  0.00    -0.412 C  
HETATM   25  C   UNL     1      -9.345   9.878  63.989  1.00  0.00    -0.280 C  
ENDBRANCH  21  24
ENDBRANCH  16  18
ENDBRANCH  11  16
BRANCH  13  26
HETATM   26  O   UNL     1      -8.127   7.326  69.586  1.00  0.00    -0.124 OA 
BRANCH  26  27
HETATM   27  C   UNL     1      -6.865   7.449  70.241  1.00  0.00    -0.052 C  
BRANCH  27  28
HETATM   28  C   UNL     1      -6.080   8.639  69.698  1.00  0.00    -0.032 C  
BRANCH  28  29
HETATM   29  O   UNL     1      -5.632   9.413  70.815  1.00  0.00    -0.037 OA 
HETATM   30  C   UNL     1      -6.144   8.925  72.044  1.00  0.00    -0.070 C  
ENDBRANCH  28  29
ENDBRANCH  27  28
ENDBRANCH  26  27
ENDBRANCH  13  26
ENDBRANCH   5   6
ENDBRANCH   4   5
ENDBRANCH   3   4
ENDBRANCH   2   3
TORSDOF 11
ENDMDL
MODEL      124
REMARK 921   NORMALIZED FREE ENERGY PREDICTED BY IDOCK:   -4.52 KCAL/MOL
REMARK 922        TOTAL FREE ENERGY PREDICTED BY IDOCK:   -8.56 KCAL/MOL
REMARK 923 INTER-LIGAND FREE ENERGY PREDICTED BY IDOCK:   -7.56 KCAL/MOL
REMARK 924 INTRA-LIGAND FREE ENERGY PREDICTED BY IDOCK:   -1.00 KCAL/MOL
REMARK 927      BINDING AFFINITY PREDICTED BY RF-SCORE:    0.00 PKD
ROOT
HETATM    1  C   UNL     1     -12.824   7.379  71.246  1.00  0.00    -0.321 C  
HETATM    2  O   UNL     1     -12.577   8.610  71.915  1.00  0.00    -0.317 OA 
ENDROOT
BRANCH   2   3
HETATM    3  C   UNL     1     -12.042   9.581  71.020  1.00  0.00    -0.318 C  
BRANCH   3   4
HETATM    4  C   UNL     1     -10.546   9.347  70.823  1.00  0.00    -0.303 C  
BRANCH   4   5
HETATM    5  O   UNL     1     -10.322   9.267  69.419  1.00  0.00    -0.201 OA 
BRANCH   5   6
HETATM    6  C   UNL     1     -10.246  10.396  68.663  1.00  0.00    -0.181 A  
HETATM    7  C   UNL     1     -11.294  10.830  67.843  1.00  0.00    -0.372 A  
HETATM    8  C   UNL     1     -11.202  11.971  67.060  1.00  0.00    -0.320 A  
HETATM    9  C   UNL     1     -10.038  12.749  67.109  1.00  0.00    -0.234 A  
HETATM   10  C   UNL     1      -8.982  12.328  67.963  1.00  0.00    -0.190 A  
HETATM   11  C   UNL     1     -10.046  13.900  66.288  1.00  0.00    -0.300 A  
HETATM   12  N   UNL     1     -11.095  14.187  65.493  1.00  0.00    -0.302 NA 
HETATM   13  C   UNL     1      -9.068  11.153  68.722  1.00  0.00    -0.139 A  
HETATM   14  N   UNL     1     -12.249  12.269  66.291  1.00  0.00    -0.557 NA 
HETATM   15  C   UNL     1     -12.142  13.362  65.535  1.00  0.00    -0.428 A  
BRANCH  11  16
HETATM   16  N   UNL     1      -8.958  14.810  66.346  1.00  0.00    -0.451 NA 
HETATM   17  H   UNL     1      -8.084  14.464  65.950  1.00  0.00     0.000 HD 
BRANCH  16  18
HETATM   18  C   UNL     1      -8.900  16.125  66.869  1.00  0.00    -0.219 A  
HETATM   19  C   UNL     1      -8.122  17.092  66.208  1.00  0.00    -0.332 A  
HETATM   20  C   UNL     1      -8.521  18.698  67.976  1.00  0.00    -0.314 A  
HETATM   21  C   UNL     1      -7.930  18.367  66.758  1.00  0.00    -0.261 A  
HETATM   22  C   UNL     1      -9.471  16.482  68.098  1.00  0.00    -0.222 A  
HETATM   23  C   UNL     1      -9.298  17.757  68.643  1.00  0.00    -0.275 A  
BRANCH  21  24
HETATM   24  C   UNL     1      -7.101  19.331  66.099  1.00  0.00    -0.273 C  
HETATM   25  C   UNL     1      -6.448  20.149  65.511  1.00  0.00    -0.282 C  
ENDBRANCH  21  24
ENDBRANCH  16  18
ENDBRANCH  11  16
BRANCH  13  26
HETATM   26  O   UNL     1      -7.924  10.902  69.446  1.00  0.00    -0.119 OA 
BRANCH  26  27
HETATM   27  C   UNL     1      -6.722  11.551  69.032  1.00  0.00    -0.098 C  
BRANCH  27  28
HETATM   28  C   UNL     1      -5.721  11.633  70.179  1.00  0.00    -0.141 C  
BRANCH  28  29
HETATM   29  O   UNL     1      -5.191  10.321  70.391  1.00  0.00    -0.041 OA 
HETATM   30  C   UNL     1      -5.344   9.893  71.735  1.00  0.00    -0.048 C  
ENDBRANCH  28  29
ENDBRANCH  27  28
ENDBRANCH  26  27
ENDBRANCH  13  26
ENDBRANCH   5   6
ENDBRANCH   4   5
ENDBRANCH   3   4
ENDBRANCH   2   3
TORSDOF 11
ENDMDL
MODEL      125
REMARK 921   NORMALIZED FREE ENERGY PREDICTED BY IDOCK:   -4.50 KCAL/MOL
REMARK 922        TOTAL FREE ENERGY PREDICTED BY IDOCK:   -8.53 KCAL/MOL
REMARK 923 INTER-LIGAND FREE ENERGY PREDICTED BY IDOCK:   -7.09 KCAL/MOL
REMARK 924 INTRA-LIGAND FREE ENERGY PREDICTED BY IDOCK:   -1.44 KCAL/MOL
REMARK 927      BINDING AFFINITY PREDICTED BY RF-SCORE:    0.00 PKD
ROOT
HETATM    1  C   UNL     1      -5.502   7.153  66.530  1.00  0.00    -0.023 C  
HETATM    2  O   UNL     1      -6.316   6.462  65.589  1.00  0.00    -0.036 OA 
ENDROOT
BRANCH   2   3
HETATM    3  C   UNL     1      -6.486   7.227  64.399  1.00  0.00    -0.040 C  
BRANCH   3   4
HETATM    4  C   UNL     1      -6.880   8.660  64.746  1.00  0.00    -0.073 C  
BRANCH   4   5
HETATM    5  O   UNL     1      -8.295   8.743  64.612  1.00  0.00    -0.158 OA 
BRANCH   5   6
HETATM    6  C   UNL     1      -9.038   9.435  65.518  1.00  0.00    -0.218 A  
HETATM    7  C   UNL     1      -8.925  10.820  65.691  1.00  0.00    -0.205 A  
HETATM    8  C   UNL     1      -9.671  11.516  66.630  1.00  0.00    -0.199 A  
HETATM    9  C   UNL     1     -10.604  10.827  67.417  1.00  0.00    -0.287 A  
HETATM   10  C   UNL     1     -10.744   9.426  67.224  1.00  0.00    -0.258 A  
HETATM   11  C   UNL     1     -11.327  11.626  68.333  1.00  0.00    -0.279 A  
HETATM   12  N   UNL     1     -11.089  12.946  68.451  1.00  0.00    -0.247 NA 
HETATM   13  C   UNL     1      -9.959   8.724  66.300  1.00  0.00    -0.245 A  
HETATM   14  N   UNL     1      -9.454  12.827  66.732  1.00  0.00    -0.237 NA 
HETATM   15  C   UNL     1     -10.170  13.481  67.647  1.00  0.00    -0.239 A  
BRANCH  11  16
HETATM   16  N   UNL     1     -12.369  11.042  69.101  1.00  0.00    -0.632 NA 
HETATM   17  H   UNL     1     -13.307  11.170  68.723  1.00  0.00     0.000 HD 
BRANCH  16  18
HETATM   18  C   UNL     1     -12.304  10.309  70.311  1.00  0.00    -0.192 A  
HETATM   19  C   UNL     1     -11.062   9.819  70.750  1.00  0.00    -0.415 A  
HETATM   20  C   UNL     1     -12.119   8.624  72.573  1.00  0.00    -0.368 A  
HETATM   21  C   UNL     1     -10.969   8.980  71.870  1.00  0.00    -0.423 A  
HETATM   22  C   UNL     1     -13.444   9.925  71.031  1.00  0.00    -0.257 A  
HETATM   23  C   UNL     1     -13.356   9.103  72.158  1.00  0.00    -0.525 A  
BRANCH  21  24
HETATM   24  C   UNL     1      -9.705   8.450  72.285  1.00  0.00    -0.386 C  
HETATM   25  C   UNL     1      -8.672   7.980  72.675  1.00  0.00    -0.250 C  
ENDBRANCH  21  24
ENDBRANCH  16  18
ENDBRANCH  11  16
BRANCH  13  26
HETATM   26  O   UNL     1     -10.217   7.371  66.299  1.00  0.00    -0.028 OA 
BRANCH  26  27
HETATM   27  C   UNL     1      -9.370   6.535  67.086  1.00  0.00    -0.126 C  
BRANCH  27  28
HETATM   28  C   UNL     1     -10.191   5.587  67.954  1.00  0.00    -0.181 C  
BRANCH  28  29
HETATM   29  O   UNL     1     -10.843   6.368  68.960  1.00  0.00    -0.261 OA 
HETATM   30  C   UNL     1     -10.789   5.752  70.236  1.00  0.00    -0.303 C  
ENDBRANCH  28  29
ENDBRANCH  27  28
ENDBRANCH  26  27
ENDBRANCH  13  26
ENDBRANCH   5   6
ENDBRANCH   4   5
ENDBRANCH   3   4
ENDBRANCH   2   3
TORSDOF 11
ENDMDL
MODEL      126
REMARK 921   NORMALIZED FREE ENERGY PREDICTED BY IDOCK:   -4.49 KCAL/MOL
REMARK 922        TOTAL FREE ENERGY PREDICTED BY IDOCK:   -8.52 KCAL/MOL
REMARK 923 INTER-LIGAND FREE ENERGY PREDICTED BY IDOCK:   -7.76 KCAL/MOL
REMARK 924 INTRA-LIGAND FREE ENERGY PREDICTED BY IDOCK:   -0.75 KCAL/MOL
REMARK 927      BINDING AFFINITY PREDICTED BY RF-SCORE:    0.00 PKD
ROOT
HETATM    1  C   UNL     1      -8.115  16.543  68.835  1.00  0.00    -0.240 C  
HETATM    2  O   UNL     1      -9.534  16.520  68.736  1.00  0.00    -0.229 OA 
ENDROOT
BRANCH   2   3
HETATM    3  C   UNL     1     -10.051  15.238  69.083  1.00  0.00    -0.240 C  
BRANCH   3   4
HETATM    4  C   UNL     1     -11.317  15.390  69.922  1.00  0.00    -0.304 C  
BRANCH   4   5
HETATM    5  O   UNL     1     -12.292  14.519  69.360  1.00  0.00    -0.276 OA 
BRANCH   5   6
HETATM    6  C   UNL     1     -12.035  13.842  68.207  1.00  0.00    -0.357 A  
HETATM    7  C   UNL     1     -12.236  14.402  66.939  1.00  0.00    -0.300 A  
HETATM    8  C   UNL     1     -11.992  13.699  65.769  1.00  0.00    -0.395 A  
HETATM    9  C   UNL     1     -11.488  12.393  65.841  1.00  0.00    -0.422 A  
HETATM   10  C   UNL     1     -11.254  11.831  67.126  1.00  0.00    -0.375 A  
HETATM   11  C   UNL     1     -11.256  11.766  64.595  1.00  0.00    -0.286 A  
HETATM   12  N   UNL     1     -11.543  12.386  63.435  1.00  0.00    -0.473 NA 
HETATM   13  C   UNL     1     -11.541  12.534  68.304  1.00  0.00    -0.328 A  
HETATM   14  N   UNL     1     -12.253  14.320  64.619  1.00  0.00    -0.494 NA 
HETATM   15  C   UNL     1     -12.024  13.628  63.502  1.00  0.00    -0.249 A  
BRANCH  11  16
HETATM   16  N   UNL     1     -10.649  10.484  64.558  1.00  0.00    -0.233 NA 
HETATM   17  H   UNL     1     -11.201   9.757  64.103  1.00  0.00     0.000 HD 
BRANCH  16  18
HETATM   18  C   UNL     1      -9.393  10.059  65.057  1.00  0.00    -0.256 A  
HETATM   19  C   UNL     1      -9.324   8.888  65.833  1.00  0.00    -0.301 A  
HETATM   20  C   UNL     1      -6.980   9.275  66.303  1.00  0.00    -0.087 A  
HETATM   21  C   UNL     1      -8.128   8.500  66.454  1.00  0.00    -0.103 A  
HETATM   22  C   UNL     1      -8.225  10.824  64.933  1.00  0.00     0.022 A  
HETATM   23  C   UNL     1      -7.026  10.434  65.535  1.00  0.00    -0.134 A  
BRANCH  21  24
HETATM   24  C   UNL     1      -8.077   7.330  67.278  1.00  0.00    -0.112 C  
HETATM   25  C   UNL     1      -8.065   6.377  68.008  1.00  0.00    -0.116 C  
ENDBRANCH  21  24
ENDBRANCH  16  18
ENDBRANCH  11  16
BRANCH  13  26
HETATM   26  O   UNL     1     -11.285  11.798  69.439  1.00  0.00    -0.253 OA 
BRANCH  26  27
HETATM   27  C   UNL     1     -12.309  10.918  69.902  1.00  0.00    -0.285 C  
BRANCH  27  28
HETATM   28  C   UNL     1     -12.423  10.962  71.422  1.00  0.00    -0.355 C  
BRANCH  28  29
HETATM   29  O   UNL     1     -13.494  11.851  71.754  1.00  0.00    -0.307 OA 
HETATM   30  C   UNL     1     -13.036  13.014  72.425  1.00  0.00    -0.275 C  
ENDBRANCH  28  29
ENDBRANCH  27  28
ENDBRANCH  26  27
ENDBRANCH  13  26
ENDBRANCH   5   6
ENDBRANCH   4   5
ENDBRANCH   3   4
ENDBRANCH   2   3
TORSDOF 11
ENDMDL
MODEL      127
REMARK 921   NORMALIZED FREE ENERGY PREDICTED BY IDOCK:   -4.47 KCAL/MOL
REMARK 922        TOTAL FREE ENERGY PREDICTED BY IDOCK:   -8.48 KCAL/MOL
REMARK 923 INTER-LIGAND FREE ENERGY PREDICTED BY IDOCK:   -7.35 KCAL/MOL
REMARK 924 INTRA-LIGAND FREE ENERGY PREDICTED BY IDOCK:   -1.13 KCAL/MOL
REMARK 927      BINDING AFFINITY PREDICTED BY RF-SCORE:    0.00 PKD
ROOT
HETATM    1  C   UNL     1     -10.499   2.505  63.395  1.00  0.00    -0.194 C  
HETATM    2  O   UNL     1      -9.081   2.386  63.381  1.00  0.00    -0.091 OA 
ENDROOT
BRANCH   2   3
HETATM    3  C   UNL     1      -8.477   3.364  64.224  1.00  0.00    -0.089 C  
BRANCH   3   4
HETATM    4  C   UNL     1      -9.548   4.253  64.850  1.00  0.00    -0.173 C  
BRANCH   4   5
HETATM    5  O   UNL     1      -8.874   5.177  65.697  1.00  0.00    -0.137 OA 
BRANCH   5   6
HETATM    6  C   UNL     1      -9.233   5.309  67.004  1.00  0.00    -0.116 A  
HETATM    7  C   UNL     1      -9.154   4.254  67.921  1.00  0.00    -0.161 A  
HETATM    8  C   UNL     1      -9.540   4.391  69.246  1.00  0.00    -0.191 A  
HETATM    9  C   UNL     1      -9.992   5.634  69.708  1.00  0.00    -0.264 A  
HETATM   10  C   UNL     1     -10.045   6.716  68.788  1.00  0.00    -0.168 A  
HETATM   11  C   UNL     1     -10.347   5.677  71.076  1.00  0.00    -0.233 A  
HETATM   12  N   UNL     1     -10.284   4.577  71.851  1.00  0.00    -0.192 NA 
HETATM   13  C   UNL     1      -9.690   6.560  67.441  1.00  0.00    -0.126 A  
HETATM   14  N   UNL     1      -9.456   3.309  70.021  1.00  0.00    -0.177 NA 
HETATM   15  C   UNL     1      -9.841   3.452  71.289  1.00  0.00    -0.124 A  
BRANCH  11  16
HETATM   16  N   UNL     1     -10.716   6.914  71.666  1.00  0.00    -0.221 NA 
HETATM   17  H   UNL     1      -9.976   7.381  72.189  1.00  0.00     0.000 HD 
BRANCH  16  18
HETATM   18  C   UNL     1     -11.955   7.600  71.639  1.00  0.00    -0.299 A  
HETATM   19  C   UNL     1     -11.962   9.005  71.703  1.00  0.00    -0.426 A  
HETATM   20  C   UNL     1     -14.380   9.038  71.847  1.00  0.00    -0.300 A  
HETATM   21  C   UNL     1     -13.164   9.719  71.810  1.00  0.00    -0.532 A  
HETATM   22  C   UNL     1     -13.191   6.942  71.691  1.00  0.00    -0.315 A  
HETATM   23  C   UNL     1     -14.394   7.649  71.780  1.00  0.00    -0.586 A  
BRANCH  21  24
HETATM   24  C   UNL     1     -13.160  11.147  71.918  1.00  0.00    -0.513 C  
HETATM   25  C   UNL     1     -13.134  12.339  72.060  1.00  0.00    -0.461 C  
ENDBRANCH  21  24
ENDBRANCH  16  18
ENDBRANCH  11  16
BRANCH  13  26
HETATM   26  O   UNL     1      -9.855   7.714  66.709  1.00  0.00    -0.207 OA 
BRANCH  26  27
HETATM   27  C   UNL     1     -10.239   8.895  67.413  1.00  0.00    -0.249 C  
BRANCH  27  28
HETATM   28  C   UNL     1     -10.366  10.082  66.463  1.00  0.00    -0.198 C  
BRANCH  28  29
HETATM   29  O   UNL     1     -10.997  11.148  67.178  1.00  0.00    -0.265 OA 
HETATM   30  C   UNL     1     -11.350  12.227  66.328  1.00  0.00    -0.345 C  
ENDBRANCH  28  29
ENDBRANCH  27  28
ENDBRANCH  26  27
ENDBRANCH  13  26
ENDBRANCH   5   6
ENDBRANCH   4   5
ENDBRANCH   3   4
ENDBRANCH   2   3
TORSDOF 11
ENDMDL
MODEL      128
REMARK 921   NORMALIZED FREE ENERGY PREDICTED BY IDOCK:   -4.47 KCAL/MOL
REMARK 922        TOTAL FREE ENERGY PREDICTED BY IDOCK:   -8.47 KCAL/MOL
REMARK 923 INTER-LIGAND FREE ENERGY PREDICTED BY IDOCK:   -7.57 KCAL/MOL
REMARK 924 INTRA-LIGAND FREE ENERGY PREDICTED BY IDOCK:   -0.90 KCAL/MOL
REMARK 927      BINDING AFFINITY PREDICTED BY RF-SCORE:    0.00 PKD
ROOT
HETATM    1  C   UNL     1      -5.283  11.658  70.826  1.00  0.00    -0.134 C  
HETATM    2  O   UNL     1      -5.184  12.044  69.459  1.00  0.00    -0.064 OA 
ENDROOT
BRANCH   2   3
HETATM    3  C   UNL     1      -6.261  11.508  68.697  1.00  0.00    -0.052 C  
BRANCH   3   4
HETATM    4  C   UNL     1      -6.234   9.983  68.747  1.00  0.00    -0.040 C  
BRANCH   4   5
HETATM    5  O   UNL     1      -7.488   9.531  68.247  1.00  0.00    -0.077 OA 
BRANCH   5   6
HETATM    6  C   UNL     1      -8.636   9.762  68.942  1.00  0.00    -0.134 A  
HETATM    7  C   UNL     1      -9.004   9.016  70.068  1.00  0.00    -0.184 A  
HETATM    8  C   UNL     1     -10.185   9.244  70.758  1.00  0.00    -0.286 A  
HETATM    9  C   UNL     1     -11.033  10.282  70.349  1.00  0.00    -0.365 A  
HETATM   10  C   UNL     1     -10.649  11.062  69.224  1.00  0.00    -0.236 A  
HETATM   11  C   UNL     1     -12.203  10.446  71.125  1.00  0.00    -0.394 A  
HETATM   12  N   UNL     1     -12.481   9.626  72.157  1.00  0.00    -0.321 NA 
HETATM   13  C   UNL     1      -9.473  10.800  68.509  1.00  0.00    -0.181 A  
HETATM   14  N   UNL     1     -10.449   8.449  71.794  1.00  0.00    -0.258 NA 
HETATM   15  C   UNL     1     -11.593   8.672  72.441  1.00  0.00    -0.315 A  
BRANCH  11  16
HETATM   16  N   UNL     1     -13.074  11.535  70.858  1.00  0.00    -0.063 NA 
HETATM   17  H   UNL     1     -13.885  11.308  70.284  1.00  0.00     0.000 HD 
BRANCH  16  18
HETATM   18  C   UNL     1     -12.989  12.888  71.268  1.00  0.00    -0.228 A  
HETATM   19  C   UNL     1     -12.280  13.803  70.470  1.00  0.00    -0.440 A  
HETATM   20  C   UNL     1     -12.551  15.544  72.131  1.00  0.00    -0.479 A  
HETATM   21  C   UNL     1     -12.059  15.119  70.898  1.00  0.00    -0.388 A  
HETATM   22  C   UNL     1     -13.462  13.340  72.508  1.00  0.00    -0.620 A  
HETATM   23  C   UNL     1     -13.260  14.656  72.933  1.00  0.00    -0.609 A  
BRANCH  21  24
HETATM   24  C   UNL     1     -11.298  16.032  70.098  1.00  0.00    -0.369 C  
HETATM   25  C   UNL     1     -10.689  16.839  69.452  1.00  0.00    -0.300 C  
ENDBRANCH  21  24
ENDBRANCH  16  18
ENDBRANCH  11  16
BRANCH  13  26
HETATM   26  O   UNL     1      -9.308  11.639  67.429  1.00  0.00    -0.165 OA 
BRANCH  26  27
HETATM   27  C   UNL     1     -10.462  11.949  66.648  1.00  0.00    -0.216 C  
BRANCH  27  28
HETATM   28  C   UNL     1     -10.860  10.768  65.769  1.00  0.00    -0.006 C  
BRANCH  28  29
HETATM   29  O   UNL     1     -11.282  11.288  64.504  1.00  0.00    -0.244 OA 
HETATM   30  C   UNL     1     -10.186  11.569  63.649  1.00  0.00    -0.405 C  
ENDBRANCH  28  29
ENDBRANCH  27  28
ENDBRANCH  26  27
ENDBRANCH  13  26
ENDBRANCH   5   6
ENDBRANCH   4   5
ENDBRANCH   3   4
ENDBRANCH   2   3
TORSDOF 11
ENDMDL
MODEL      129
REMARK 921   NORMALIZED FREE ENERGY PREDICTED BY IDOCK:   -4.46 KCAL/MOL
REMARK 922        TOTAL FREE ENERGY PREDICTED BY IDOCK:   -8.47 KCAL/MOL
REMARK 923 INTER-LIGAND FREE ENERGY PREDICTED BY IDOCK:   -7.34 KCAL/MOL
REMARK 924 INTRA-LIGAND FREE ENERGY PREDICTED BY IDOCK:   -1.13 KCAL/MOL
REMARK 927      BINDING AFFINITY PREDICTED BY RF-SCORE:    0.00 PKD
ROOT
HETATM    1  C   UNL     1      -9.185   3.495  73.010  1.00  0.00    -0.098 C  
HETATM    2  O   UNL     1      -8.837   4.873  73.083  1.00  0.00    -0.112 OA 
ENDROOT
BRANCH   2   3
HETATM    3  C   UNL     1      -8.229   5.313  71.872  1.00  0.00    -0.118 C  
BRANCH   3   4
HETATM    4  C   UNL     1      -8.413   6.819  71.707  1.00  0.00    -0.120 C  
BRANCH   4   5
HETATM    5  O   UNL     1      -9.683   7.016  71.096  1.00  0.00    -0.173 OA 
BRANCH   5   6
HETATM    6  C   UNL     1      -9.871   8.018  70.194  1.00  0.00    -0.184 A  
HETATM    7  C   UNL     1      -9.276   8.018  68.927  1.00  0.00    -0.147 A  
HETATM    8  C   UNL     1      -9.455   9.052  68.020  1.00  0.00    -0.142 A  
HETATM    9  C   UNL     1     -10.290  10.126  68.356  1.00  0.00    -0.210 A  
HETATM   10  C   UNL     1     -10.921  10.116  69.631  1.00  0.00    -0.305 A  
HETATM   11  C   UNL     1     -10.422  11.122  67.361  1.00  0.00    -0.220 A  
HETATM   12  N   UNL     1      -9.752  11.042  66.196  1.00  0.00    -0.209 NA 
HETATM   13  C   UNL     1     -10.703   9.086  70.556  1.00  0.00    -0.239 A  
HETATM   14  N   UNL     1      -8.811   8.963  66.857  1.00  0.00    -0.125 NA 
HETATM   15  C   UNL     1      -8.983   9.969  66.001  1.00  0.00    -0.148 A  
BRANCH  11  16
HETATM   16  N   UNL     1     -11.328  12.197  67.562  1.00  0.00    -0.303 NA 
HETATM   17  H   UNL     1     -12.310  11.966  67.419  1.00  0.00     0.000 HD 
BRANCH  16  18
HETATM   18  C   UNL     1     -11.075  13.541  67.931  1.00  0.00    -0.265 A  
HETATM   19  C   UNL     1     -11.325  13.948  69.253  1.00  0.00    -0.321 A  
HETATM   20  C   UNL     1     -10.843  16.253  68.692  1.00  0.00    -0.322 A  
HETATM   21  C   UNL     1     -11.214  15.293  69.631  1.00  0.00    -0.289 A  
HETATM   22  C   UNL     1     -10.715  14.531  67.005  1.00  0.00    -0.291 A  
HETATM   23  C   UNL     1     -10.585  15.871  67.380  1.00  0.00    -0.315 A  
BRANCH  21  24
HETATM   24  C   UNL     1     -11.513  15.705  70.969  1.00  0.00    -0.439 C  
HETATM   25  C   UNL     1     -11.710  16.043  72.105  1.00  0.00    -0.587 C  
ENDBRANCH  21  24
ENDBRANCH  16  18
ENDBRANCH  11  16
BRANCH  13  26
HETATM   26  O   UNL     1     -11.369   9.288  71.744  1.00  0.00    -0.369 OA 
BRANCH  26  27
HETATM   27  C   UNL     1     -12.788   9.131  71.742  1.00  0.00    -0.377 C  
BRANCH  27  28
HETATM   28  C   UNL     1     -13.478  10.389  72.261  1.00  0.00    -0.089 C  
BRANCH  28  29
HETATM   29  O   UNL     1     -13.060  11.486  71.443  1.00  0.00    -0.380 OA 
HETATM   30  C   UNL     1     -13.420  12.738  72.004  1.00  0.00    -0.444 C  
ENDBRANCH  28  29
ENDBRANCH  27  28
ENDBRANCH  26  27
ENDBRANCH  13  26
ENDBRANCH   5   6
ENDBRANCH   4   5
ENDBRANCH   3   4
ENDBRANCH   2   3
TORSDOF 11
ENDMDL
MODEL      130
REMARK 921   NORMALIZED FREE ENERGY PREDICTED BY IDOCK:   -4.42 KCAL/MOL
REMARK 922        TOTAL FREE ENERGY PREDICTED BY IDOCK:   -8.40 KCAL/MOL
REMARK 923 INTER-LIGAND FREE ENERGY PREDICTED BY IDOCK:   -7.51 KCAL/MOL
REMARK 924 INTRA-LIGAND FREE ENERGY PREDICTED BY IDOCK:   -0.89 KCAL/MOL
REMARK 927      BINDING AFFINITY PREDICTED BY RF-SCORE:    0.00 PKD
ROOT
HETATM    1  C   UNL     1      -8.727   6.039  71.601  1.00  0.00    -0.135 C  
HETATM    2  O   UNL     1      -9.843   5.581  70.846  1.00  0.00    -0.169 OA 
ENDROOT
BRANCH   2   3
HETATM    3  C   UNL     1     -11.067   5.875  71.514  1.00  0.00    -0.250 C  
BRANCH   3   4
HETATM    4  C   UNL     1     -11.340   7.377  71.477  1.00  0.00    -0.256 C  
BRANCH   4   5
HETATM    5  O   UNL     1     -11.086   7.810  70.145  1.00  0.00    -0.257 OA 
BRANCH   5   6
HETATM    6  C   UNL     1     -11.043   9.136  69.843  1.00  0.00    -0.159 A  
HETATM    7  C   UNL     1     -11.759  10.101  70.563  1.00  0.00    -0.407 A  
HETATM    8  C   UNL     1     -11.726  11.448  70.237  1.00  0.00    -0.306 A  
HETATM    9  C   UNL     1     -10.922  11.881  69.174  1.00  0.00    -0.251 A  
HETATM   10  C   UNL     1     -10.170  10.910  68.459  1.00  0.00    -0.197 A  
HETATM   11  C   UNL     1     -10.943  13.274  68.930  1.00  0.00    -0.240 A  
HETATM   12  N   UNL     1     -11.720  14.101  69.656  1.00  0.00    -0.297 NA 
HETATM   13  C   UNL     1     -10.239   9.545  68.770  1.00  0.00    -0.198 A  
HETATM   14  N   UNL     1     -12.476  12.271  70.970  1.00  0.00    -0.336 NA 
HETATM   15  C   UNL     1     -12.444  13.562  70.638  1.00  0.00    -0.333 A  
BRANCH  11  16
HETATM   16  N   UNL     1     -10.083  13.825  67.945  1.00  0.00    -0.240 NA 
HETATM   17  H   UNL     1      -9.096  13.599  68.058  1.00  0.00     0.000 HD 
BRANCH  16  18
HETATM   18  C   UNL     1     -10.387  14.642  66.828  1.00  0.00    -0.268 A  
HETATM   19  C   UNL     1     -10.192  16.031  66.920  1.00  0.00    -0.280 A  
HETATM   20  C   UNL     1     -11.202  16.372  64.746  1.00  0.00    -0.219 A  
HETATM   21  C   UNL     1     -10.599  16.890  65.890  1.00  0.00    -0.239 A  
HETATM   22  C   UNL     1     -11.007  14.150  65.670  1.00  0.00    -0.308 A  
HETATM   23  C   UNL     1     -11.400  15.000  64.633  1.00  0.00    -0.357 A  
BRANCH  21  24
HETATM   24  C   UNL     1     -10.437  18.308  66.012  1.00  0.00    -0.380 C  
HETATM   25  C   UNL     1     -10.350  19.503  66.089  1.00  0.00    -0.614 C  
ENDBRANCH  21  24
ENDBRANCH  16  18
ENDBRANCH  11  16
BRANCH  13  26
HETATM   26  O   UNL     1      -9.471   8.768  67.932  1.00  0.00    -0.140 OA 
BRANCH  26  27
HETATM   27  C   UNL     1     -10.143   8.037  66.906  1.00  0.00    -0.292 C  
BRANCH  27  28
HETATM   28  C   UNL     1      -9.739   6.566  66.928  1.00  0.00    -0.158 C  
BRANCH  28  29
HETATM   29  O   UNL     1      -9.108   6.268  65.679  1.00  0.00    -0.090 OA 
HETATM   30  C   UNL     1      -8.725   4.906  65.585  1.00  0.00    -0.135 C  
ENDBRANCH  28  29
ENDBRANCH  27  28
ENDBRANCH  26  27
ENDBRANCH  13  26
ENDBRANCH   5   6
ENDBRANCH   4   5
ENDBRANCH   3   4
ENDBRANCH   2   3
TORSDOF 11
ENDMDL
MODEL      131
REMARK 921   NORMALIZED FREE ENERGY PREDICTED BY IDOCK:   -4.39 KCAL/MOL
REMARK 922        TOTAL FREE ENERGY PREDICTED BY IDOCK:   -8.35 KCAL/MOL
REMARK 923 INTER-LIGAND FREE ENERGY PREDICTED BY IDOCK:   -7.21 KCAL/MOL
REMARK 924 INTRA-LIGAND FREE ENERGY PREDICTED BY IDOCK:   -1.14 KCAL/MOL
REMARK 927      BINDING AFFINITY PREDICTED BY RF-SCORE:    0.00 PKD
ROOT
HETATM    1  C   UNL     1      -8.647   7.371  74.208  1.00  0.00    -0.218 C  
HETATM    2  O   UNL     1      -8.670   8.337  73.164  1.00  0.00    -0.227 OA 
ENDROOT
BRANCH   2   3
HETATM    3  C   UNL     1      -8.841   7.715  71.894  1.00  0.00    -0.116 C  
BRANCH   3   4
HETATM    4  C   UNL     1     -10.320   7.682  71.519  1.00  0.00    -0.196 C  
BRANCH   4   5
HETATM    5  O   UNL     1     -10.405   8.042  70.145  1.00  0.00    -0.206 OA 
BRANCH   5   6
HETATM    6  C   UNL     1     -10.711   9.317  69.780  1.00  0.00    -0.231 A  
HETATM    7  C   UNL     1     -11.458  10.179  70.592  1.00  0.00    -0.432 A  
HETATM    8  C   UNL     1     -11.783  11.471  70.204  1.00  0.00    -0.309 A  
HETATM    9  C   UNL     1     -11.322  11.958  68.974  1.00  0.00    -0.337 A  
HETATM   10  C   UNL     1     -10.538  11.097  68.159  1.00  0.00    -0.227 A  
HETATM   11  C   UNL     1     -11.691  13.290  68.676  1.00  0.00    -0.341 A  
HETATM   12  N   UNL     1     -12.465  14.007  69.514  1.00  0.00    -0.225 NA 
HETATM   13  C   UNL     1     -10.247   9.780  68.541  1.00  0.00    -0.186 A  
HETATM   14  N   UNL     1     -12.529  12.189  71.043  1.00  0.00    -0.339 NA 
HETATM   15  C   UNL     1     -12.844  13.425  70.653  1.00  0.00    -0.087 A  
BRANCH  11  16
HETATM   16  N   UNL     1     -11.186  13.912  67.504  1.00  0.00    -0.292 NA 
HETATM   17  H   UNL     1     -11.524  13.519  66.627  1.00  0.00     0.000 HD 
BRANCH  16  18
HETATM   18  C   UNL     1     -10.285  14.996  67.368  1.00  0.00    -0.234 A  
HETATM   19  C   UNL     1     -10.754  16.307  67.561  1.00  0.00    -0.300 A  
HETATM   20  C   UNL     1      -8.625  17.229  66.867  1.00  0.00    -0.263 A  
HETATM   21  C   UNL     1      -9.933  17.415  67.310  1.00  0.00    -0.302 A  
HETATM   22  C   UNL     1      -8.969  14.840  66.910  1.00  0.00    -0.276 A  
HETATM   23  C   UNL     1      -8.140  15.940  66.674  1.00  0.00    -0.298 A  
BRANCH  21  24
HETATM   24  C   UNL     1     -10.433  18.748  67.468  1.00  0.00    -0.495 C  
HETATM   25  C   UNL     1     -10.891  19.845  67.636  1.00  0.00    -0.291 C  
ENDBRANCH  21  24
ENDBRANCH  16  18
ENDBRANCH  11  16
BRANCH  13  26
HETATM   26  O   UNL     1      -9.514   9.101  67.593  1.00  0.00    -0.137 OA 
BRANCH  26  27
HETATM   27  C   UNL     1      -9.822   9.342  66.220  1.00  0.00    -0.291 C  
BRANCH  27  28
HETATM   28  C   UNL     1      -8.568   9.263  65.356  1.00  0.00    -0.157 C  
BRANCH  28  29
HETATM   29  O   UNL     1      -7.440   9.518  66.199  1.00  0.00    -0.098 OA 
HETATM   30  C   UNL     1      -6.744  10.695  65.820  1.00  0.00    -0.097 C  
ENDBRANCH  28  29
ENDBRANCH  27  28
ENDBRANCH  26  27
ENDBRANCH  13  26
ENDBRANCH   5   6
ENDBRANCH   4   5
ENDBRANCH   3   4
ENDBRANCH   2   3
TORSDOF 11
ENDMDL
MODEL      132
REMARK 921   NORMALIZED FREE ENERGY PREDICTED BY IDOCK:   -4.39 KCAL/MOL
REMARK 922        TOTAL FREE ENERGY PREDICTED BY IDOCK:   -8.35 KCAL/MOL
REMARK 923 INTER-LIGAND FREE ENERGY PREDICTED BY IDOCK:   -7.29 KCAL/MOL
REMARK 924 INTRA-LIGAND FREE ENERGY PREDICTED BY IDOCK:   -1.05 KCAL/MOL
REMARK 927      BINDING AFFINITY PREDICTED BY RF-SCORE:    0.00 PKD
ROOT
HETATM    1  C   UNL     1     -10.093   5.658  69.525  1.00  0.00    -0.225 C  
HETATM    2  O   UNL     1      -9.618   6.671  68.646  1.00  0.00    -0.131 OA 
ENDROOT
BRANCH   2   3
HETATM    3  C   UNL     1     -10.589   6.983  67.652  1.00  0.00    -0.257 C  
BRANCH   3   4
HETATM    4  C   UNL     1     -10.083   8.110  66.756  1.00  0.00    -0.295 C  
BRANCH   4   5
HETATM    5  O   UNL     1      -9.821   9.224  67.602  1.00  0.00    -0.161 OA 
BRANCH   5   6
HETATM    6  C   UNL     1      -9.993  10.496  67.148  1.00  0.00    -0.193 A  
HETATM    7  C   UNL     1     -11.196  10.945  66.590  1.00  0.00    -0.060 A  
HETATM    8  C   UNL     1     -11.356  12.237  66.110  1.00  0.00    -0.353 A  
HETATM    9  C   UNL     1     -10.298  13.148  66.216  1.00  0.00    -0.291 A  
HETATM   10  C   UNL     1      -9.084  12.706  66.809  1.00  0.00    -0.214 A  
HETATM   11  C   UNL     1     -10.564  14.443  65.714  1.00  0.00    -0.318 A  
HETATM   12  N   UNL     1     -11.746  14.744  65.144  1.00  0.00    -0.355 NA 
HETATM   13  C   UNL     1      -8.917  11.388  67.256  1.00  0.00    -0.159 A  
HETATM   14  N   UNL     1     -12.534  12.543  65.567  1.00  0.00    -0.635 NA 
HETATM   15  C   UNL     1     -12.671  13.784  65.100  1.00  0.00    -0.397 A  
BRANCH  11  16
HETATM   16  N   UNL     1      -9.594  15.468  65.870  1.00  0.00    -0.340 NA 
HETATM   17  H   UNL     1      -8.774  15.381  65.270  1.00  0.00     0.000 HD 
BRANCH  16  18
HETATM   18  C   UNL     1      -9.591  16.593  66.730  1.00  0.00    -0.257 A  
HETATM   19  C   UNL     1      -8.654  17.619  66.515  1.00  0.00    -0.287 A  
HETATM   20  C   UNL     1      -9.344  18.748  68.543  1.00  0.00    -0.390 A  
HETATM   21  C   UNL     1      -8.528  18.686  67.415  1.00  0.00    -0.277 A  
HETATM   22  C   UNL     1     -10.390  16.676  67.879  1.00  0.00    -0.310 A  
HETATM   23  C   UNL     1     -10.281  17.746  68.771  1.00  0.00    -0.373 A  
BRANCH  21  24
HETATM   24  C   UNL     1      -7.541  19.703  67.211  1.00  0.00    -0.280 C  
HETATM   25  C   UNL     1      -6.754  20.590  67.020  1.00  0.00    -0.320 C  
ENDBRANCH  21  24
ENDBRANCH  16  18
ENDBRANCH  11  16
BRANCH  13  26
HETATM   26  O   UNL     1      -7.656  11.151  67.756  1.00  0.00    -0.095 OA 
BRANCH  26  27
HETATM   27  C   UNL     1      -6.598  12.001  67.315  1.00  0.00    -0.145 C  
BRANCH  27  28
HETATM   28  C   UNL     1      -5.330  11.200  67.038  1.00  0.00    -0.068 C  
BRANCH  28  29
HETATM   29  O   UNL     1      -5.598  10.325  65.938  1.00  0.00    -0.063 OA 
HETATM   30  C   UNL     1      -5.578   8.960  66.322  1.00  0.00    -0.045 C  
ENDBRANCH  28  29
ENDBRANCH  27  28
ENDBRANCH  26  27
ENDBRANCH  13  26
ENDBRANCH   5   6
ENDBRANCH   4   5
ENDBRANCH   3   4
ENDBRANCH   2   3
TORSDOF 11
ENDMDL
MODEL      133
REMARK 921   NORMALIZED FREE ENERGY PREDICTED BY IDOCK:   -4.39 KCAL/MOL
REMARK 922        TOTAL FREE ENERGY PREDICTED BY IDOCK:   -8.34 KCAL/MOL
REMARK 923 INTER-LIGAND FREE ENERGY PREDICTED BY IDOCK:   -7.51 KCAL/MOL
REMARK 924 INTRA-LIGAND FREE ENERGY PREDICTED BY IDOCK:   -0.83 KCAL/MOL
REMARK 927      BINDING AFFINITY PREDICTED BY RF-SCORE:    0.00 PKD
ROOT
HETATM    1  C   UNL     1      -8.139   8.633  70.843  1.00  0.00    -0.136 C  
HETATM    2  O   UNL     1      -9.048   9.702  71.079  1.00  0.00    -0.180 OA 
ENDROOT
BRANCH   2   3
HETATM    3  C   UNL     1     -10.384   9.221  71.199  1.00  0.00    -0.322 C  
BRANCH   3   4
HETATM    4  C   UNL     1     -10.986   8.988  69.816  1.00  0.00    -0.166 C  
BRANCH   4   5
HETATM    5  O   UNL     1     -12.065   9.906  69.676  1.00  0.00     0.068 OA 
BRANCH   5   6
HETATM    6  C   UNL     1     -11.828  11.218  69.402  1.00  0.00    -0.355 A  
HETATM    7  C   UNL     1     -12.020  12.236  70.345  1.00  0.00    -0.349 A  
HETATM    8  C   UNL     1     -11.796  13.573  70.053  1.00  0.00    -0.301 A  
HETATM    9  C   UNL     1     -11.323  13.931  68.783  1.00  0.00    -0.310 A  
HETATM   10  C   UNL     1     -11.098  12.899  67.832  1.00  0.00    -0.283 A  
HETATM   11  C   UNL     1     -11.111  15.315  68.587  1.00  0.00    -0.279 A  
HETATM   12  N   UNL     1     -11.386  16.210  69.554  1.00  0.00    -0.332 NA 
HETATM   13  C   UNL     1     -11.365  11.554  68.122  1.00  0.00    -0.298 A  
HETATM   14  N   UNL     1     -12.046  14.458  71.017  1.00  0.00    -0.337 NA 
HETATM   15  C   UNL     1     -11.837  15.740  70.718  1.00  0.00    -0.404 A  
BRANCH  11  16
HETATM   16  N   UNL     1     -10.534  15.770  67.372  1.00  0.00    -0.291 NA 
HETATM   17  H   UNL     1     -10.466  15.068  66.636  1.00  0.00     0.000 HD 
BRANCH  16  18
HETATM   18  C   UNL     1     -10.038  17.051  67.026  1.00  0.00    -0.295 A  
HETATM   19  C   UNL     1      -8.648  17.260  66.984  1.00  0.00    -0.246 A  
HETATM   20  C   UNL     1      -8.962  19.630  66.595  1.00  0.00    -0.419 A  
HETATM   21  C   UNL     1      -8.114  18.539  66.774  1.00  0.00    -0.267 A  
HETATM   22  C   UNL     1     -10.867  18.169  66.855  1.00  0.00    -0.115 A  
HETATM   23  C   UNL     1     -10.340  19.443  66.629  1.00  0.00    -0.555 A  
BRANCH  21  24
HETATM   24  C   UNL     1      -6.697  18.750  66.776  1.00  0.00    -0.208 C  
HETATM   25  C   UNL     1      -5.519  18.981  66.788  1.00  0.00    -0.158 C  
ENDBRANCH  21  24
ENDBRANCH  16  18
ENDBRANCH  11  16
BRANCH  13  26
HETATM   26  O   UNL     1     -11.123  10.720  67.053  1.00  0.00    -0.265 OA 
BRANCH  26  27
HETATM   27  C   UNL     1     -10.189  11.160  66.068  1.00  0.00    -0.250 C  
BRANCH  27  28
HETATM   28  C   UNL     1      -8.975  10.238  66.014  1.00  0.00    -0.152 C  
BRANCH  28  29
HETATM   29  O   UNL     1      -9.412   8.921  66.361  1.00  0.00    -0.182 OA 
HETATM   30  C   UNL     1      -8.392   7.953  66.172  1.00  0.00    -0.127 C  
ENDBRANCH  28  29
ENDBRANCH  27  28
ENDBRANCH  26  27
ENDBRANCH  13  26
ENDBRANCH   5   6
ENDBRANCH   4   5
ENDBRANCH   3   4
ENDBRANCH   2   3
TORSDOF 11
ENDMDL
MODEL      134
REMARK 921   NORMALIZED FREE ENERGY PREDICTED BY IDOCK:   -4.38 KCAL/MOL
REMARK 922        TOTAL FREE ENERGY PREDICTED BY IDOCK:   -8.33 KCAL/MOL
REMARK 923 INTER-LIGAND FREE ENERGY PREDICTED BY IDOCK:   -7.08 KCAL/MOL
REMARK 924 INTRA-LIGAND FREE ENERGY PREDICTED BY IDOCK:   -1.25 KCAL/MOL
REMARK 927      BINDING AFFINITY PREDICTED BY RF-SCORE:    0.00 PKD
ROOT
HETATM    1  C   UNL     1      -8.912   5.479  73.772  1.00  0.00    -0.124 C  
HETATM    2  O   UNL     1      -9.235   6.864  73.829  1.00  0.00    -0.152 OA 
ENDROOT
BRANCH   2   3
HETATM    3  C   UNL     1      -8.129   7.629  74.298  1.00  0.00    -0.206 C  
BRANCH   3   4
HETATM    4  C   UNL     1      -7.605   8.534  73.186  1.00  0.00     0.020 C  
BRANCH   4   5
HETATM    5  O   UNL     1      -8.738   8.984  72.452  1.00  0.00    -0.347 OA 
BRANCH   5   6
HETATM    6  C   UNL     1      -8.794   8.835  71.100  1.00  0.00    -0.219 A  
HETATM    7  C   UNL     1      -7.856   8.083  70.382  1.00  0.00    -0.091 A  
HETATM    8  C   UNL     1      -7.906   7.953  69.003  1.00  0.00    -0.110 A  
HETATM    9  C   UNL     1      -8.951   8.557  68.291  1.00  0.00    -0.139 A  
HETATM   10  C   UNL     1      -9.923   9.297  69.018  1.00  0.00    -0.187 A  
HETATM   11  C   UNL     1      -8.925   8.353  66.892  1.00  0.00    -0.145 A  
HETATM   12  N   UNL     1      -7.934   7.656  66.304  1.00  0.00    -0.101 NA 
HETATM   13  C   UNL     1      -9.842   9.457  70.408  1.00  0.00    -0.259 A  
HETATM   14  N   UNL     1      -6.940   7.242  68.421  1.00  0.00    -0.076 NA 
HETATM   15  C   UNL     1      -6.995   7.134  67.094  1.00  0.00    -0.078 A  
BRANCH  11  16
HETATM   16  N   UNL     1      -9.995   8.835  66.094  1.00  0.00    -0.428 NA 
HETATM   17  H   UNL     1     -10.833   8.255  66.099  1.00  0.00     0.000 HD 
BRANCH  16  18
HETATM   18  C   UNL     1     -10.077   9.999  65.291  1.00  0.00    -0.229 A  
HETATM   19  C   UNL     1     -10.940  11.039  65.677  1.00  0.00    -0.090 A  
HETATM   20  C   UNL     1     -10.497  12.243  63.623  1.00  0.00    -0.483 A  
HETATM   21  C   UNL     1     -11.152  12.151  64.850  1.00  0.00    -0.367 A  
HETATM   22  C   UNL     1      -9.441  10.114  64.047  1.00  0.00    -0.341 A  
HETATM   23  C   UNL     1      -9.635  11.227  63.225  1.00  0.00    -0.373 A  
BRANCH  21  24
HETATM   24  C   UNL     1     -12.067  13.185  65.232  1.00  0.00    -0.471 C  
HETATM   25  C   UNL     1     -12.835  14.068  65.498  1.00  0.00    -0.453 C  
ENDBRANCH  21  24
ENDBRANCH  16  18
ENDBRANCH  11  16
BRANCH  13  26
HETATM   26  O   UNL     1     -10.853  10.244  70.913  1.00  0.00    -0.220 OA 
BRANCH  26  27
HETATM   27  C   UNL     1     -12.157   9.670  71.002  1.00  0.00    -0.337 C  
BRANCH  27  28
HETATM   28  C   UNL     1     -13.170  10.690  71.510  1.00  0.00    -0.360 C  
BRANCH  28  29
HETATM   29  O   UNL     1     -12.759  11.981  71.052  1.00  0.00    -0.334 OA 
HETATM   30  C   UNL     1     -13.127  13.012  71.953  1.00  0.00    -0.384 C  
ENDBRANCH  28  29
ENDBRANCH  27  28
ENDBRANCH  26  27
ENDBRANCH  13  26
ENDBRANCH   5   6
ENDBRANCH   4   5
ENDBRANCH   3   4
ENDBRANCH   2   3
TORSDOF 11
ENDMDL
MODEL      135
REMARK 921   NORMALIZED FREE ENERGY PREDICTED BY IDOCK:   -4.38 KCAL/MOL
REMARK 922        TOTAL FREE ENERGY PREDICTED BY IDOCK:   -8.33 KCAL/MOL
REMARK 923 INTER-LIGAND FREE ENERGY PREDICTED BY IDOCK:   -7.36 KCAL/MOL
REMARK 924 INTRA-LIGAND FREE ENERGY PREDICTED BY IDOCK:   -0.97 KCAL/MOL
REMARK 927      BINDING AFFINITY PREDICTED BY RF-SCORE:    0.00 PKD
ROOT
HETATM    1  C   UNL     1      -6.275  17.658  65.765  1.00  0.00    -0.099 C  
HETATM    2  O   UNL     1      -6.853  16.772  66.716  1.00  0.00    -0.198 OA 
ENDROOT
BRANCH   2   3
HETATM    3  C   UNL     1      -8.197  16.455  66.369  1.00  0.00    -0.331 C  
BRANCH   3   4
HETATM    4  C   UNL     1      -8.856  15.655  67.490  1.00  0.00    -0.181 C  
BRANCH   4   5
HETATM    5  O   UNL     1      -9.930  14.928  66.903  1.00  0.00    -0.236 OA 
BRANCH   5   6
HETATM    6  C   UNL     1     -10.133  13.619  67.215  1.00  0.00    -0.239 A  
HETATM    7  C   UNL     1      -9.881  12.577  66.314  1.00  0.00    -0.260 A  
HETATM    8  C   UNL     1     -10.111  11.247  66.632  1.00  0.00    -0.214 A  
HETATM    9  C   UNL     1     -10.576  10.914  67.912  1.00  0.00    -0.246 A  
HETATM   10  C   UNL     1     -10.805  11.966  68.840  1.00  0.00    -0.261 A  
HETATM   11  C   UNL     1     -10.763   9.532  68.145  1.00  0.00    -0.197 A  
HETATM   12  N   UNL     1     -10.541   8.622  67.178  1.00  0.00    -0.282 NA 
HETATM   13  C   UNL     1     -10.608  13.310  68.498  1.00  0.00    -0.256 A  
HETATM   14  N   UNL     1      -9.869  10.342  65.684  1.00  0.00    -0.242 NA 
HETATM   15  C   UNL     1     -10.104   9.069  66.000  1.00  0.00    -0.084 A  
BRANCH  11  16
HETATM   16  N   UNL     1     -11.130   9.084  69.441  1.00  0.00    -0.434 NA 
HETATM   17  H   UNL     1     -12.123   9.158  69.659  1.00  0.00     0.000 HD 
BRANCH  16  18
HETATM   18  C   UNL     1     -10.327   8.548  70.478  1.00  0.00    -0.200 A  
HETATM   19  C   UNL     1     -10.752   7.383  71.140  1.00  0.00    -0.246 A  
HETATM   20  C   UNL     1      -8.926   7.553  72.722  1.00  0.00    -0.195 A  
HETATM   21  C   UNL     1     -10.059   6.890  72.256  1.00  0.00    -0.194 A  
HETATM   22  C   UNL     1      -9.191   9.200  70.977  1.00  0.00    -0.321 A  
HETATM   23  C   UNL     1      -8.487   8.705  72.078  1.00  0.00    -0.191 A  
BRANCH  21  24
HETATM   24  C   UNL     1     -10.523   5.728  72.951  1.00  0.00    -0.244 C  
HETATM   25  C   UNL     1     -10.890   4.774  73.581  1.00  0.00    -0.377 C  
ENDBRANCH  21  24
ENDBRANCH  16  18
ENDBRANCH  11  16
BRANCH  13  26
HETATM   26  O   UNL     1     -10.928  14.173  69.522  1.00  0.00    -0.224 OA 
BRANCH  26  27
HETATM   27  C   UNL     1     -12.275  14.641  69.596  1.00  0.00    -0.283 C  
BRANCH  27  28
HETATM   28  C   UNL     1     -12.660  14.975  71.034  1.00  0.00    -0.350 C  
BRANCH  28  29
HETATM   29  O   UNL     1     -14.012  14.553  71.233  1.00  0.00    -0.372 OA 
HETATM   30  C   UNL     1     -14.171  13.814  72.434  1.00  0.00    -0.402 C  
ENDBRANCH  28  29
ENDBRANCH  27  28
ENDBRANCH  26  27
ENDBRANCH  13  26
ENDBRANCH   5   6
ENDBRANCH   4   5
ENDBRANCH   3   4
ENDBRANCH   2   3
TORSDOF 11
ENDMDL
MODEL      136
REMARK 921   NORMALIZED FREE ENERGY PREDICTED BY IDOCK:   -4.38 KCAL/MOL
REMARK 922        TOTAL FREE ENERGY PREDICTED BY IDOCK:   -8.33 KCAL/MOL
REMARK 923 INTER-LIGAND FREE ENERGY PREDICTED BY IDOCK:   -7.20 KCAL/MOL
REMARK 924 INTRA-LIGAND FREE ENERGY PREDICTED BY IDOCK:   -1.13 KCAL/MOL
REMARK 927      BINDING AFFINITY PREDICTED BY RF-SCORE:    0.00 PKD
ROOT
HETATM    1  C   UNL     1      -5.347  14.173  73.117  1.00  0.00    -0.243 C  
HETATM    2  O   UNL     1      -5.157  14.734  71.823  1.00  0.00    -0.152 OA 
ENDROOT
BRANCH   2   3
HETATM    3  C   UNL     1      -6.127  14.241  70.904  1.00  0.00    -0.155 C  
BRANCH   3   4
HETATM    4  C   UNL     1      -5.660  12.917  70.304  1.00  0.00    -0.148 C  
BRANCH   4   5
HETATM    5  O   UNL     1      -5.834  13.018  68.895  1.00  0.00    -0.070 OA 
BRANCH   5   6
HETATM    6  C   UNL     1      -6.961  13.574  68.373  1.00  0.00    -0.105 A  
HETATM    7  C   UNL     1      -8.236  13.033  68.576  1.00  0.00    -0.067 A  
HETATM    8  C   UNL     1      -9.378  13.594  68.023  1.00  0.00    -0.208 A  
HETATM    9  C   UNL     1      -9.273  14.766  67.263  1.00  0.00    -0.211 A  
HETATM   10  C   UNL     1      -7.984  15.336  67.079  1.00  0.00    -0.243 A  
HETATM   11  C   UNL     1     -10.494  15.269  66.757  1.00  0.00    -0.293 A  
HETATM   12  N   UNL     1     -11.658  14.627  66.971  1.00  0.00    -0.373 NA 
HETATM   13  C   UNL     1      -6.830  14.742  67.608  1.00  0.00    -0.182 A  
HETATM   14  N   UNL     1     -10.535  12.973  68.254  1.00  0.00    -0.244 NA 
HETATM   15  C   UNL     1     -11.623  13.516  67.708  1.00  0.00    -0.339 A  
BRANCH  11  16
HETATM   16  N   UNL     1     -10.508  16.507  66.064  1.00  0.00    -0.328 NA 
HETATM   17  H   UNL     1     -10.841  16.460  65.101  1.00  0.00     0.000 HD 
BRANCH  16  18
HETATM   18  C   UNL     1     -10.130  17.799  66.505  1.00  0.00    -0.358 A  
HETATM   19  C   UNL     1      -8.966  18.389  65.981  1.00  0.00     0.025 A  
HETATM   20  C   UNL     1      -9.161  20.257  67.510  1.00  0.00    -0.491 A  
HETATM   21  C   UNL     1      -8.483  19.607  66.481  1.00  0.00    -0.374 A  
HETATM   22  C   UNL     1     -10.784  18.471  67.547  1.00  0.00    -0.419 A  
HETATM   23  C   UNL     1     -10.317  19.693  68.038  1.00  0.00    -0.579 A  
BRANCH  21  24
HETATM   24  C   UNL     1      -7.273  20.179  65.972  1.00  0.00    -0.312 C  
HETATM   25  C   UNL     1      -6.240  20.606  65.534  1.00  0.00    -0.277 C  
ENDBRANCH  21  24
ENDBRANCH  16  18
ENDBRANCH  11  16
BRANCH  13  26
HETATM   26  O   UNL     1      -5.680  15.424  67.278  1.00  0.00    -0.336 OA 
BRANCH  26  27
HETATM   27  C   UNL     1      -5.810  16.792  66.891  1.00  0.00    -0.146 C  
BRANCH  27  28
HETATM   28  C   UNL     1      -5.154  17.715  67.912  1.00  0.00    -0.132 C  
BRANCH  28  29
HETATM   29  O   UNL     1      -6.087  17.924  68.976  1.00  0.00    -0.198 OA 
HETATM   30  C   UNL     1      -5.495  18.580  70.086  1.00  0.00    -0.239 C  
ENDBRANCH  28  29
ENDBRANCH  27  28
ENDBRANCH  26  27
ENDBRANCH  13  26
ENDBRANCH   5   6
ENDBRANCH   4   5
ENDBRANCH   3   4
ENDBRANCH   2   3
TORSDOF 11
ENDMDL
MODEL      137
REMARK 921   NORMALIZED FREE ENERGY PREDICTED BY IDOCK:   -4.37 KCAL/MOL
REMARK 922        TOTAL FREE ENERGY PREDICTED BY IDOCK:   -8.32 KCAL/MOL
REMARK 923 INTER-LIGAND FREE ENERGY PREDICTED BY IDOCK:   -7.12 KCAL/MOL
REMARK 924 INTRA-LIGAND FREE ENERGY PREDICTED BY IDOCK:   -1.20 KCAL/MOL
REMARK 927      BINDING AFFINITY PREDICTED BY RF-SCORE:    0.00 PKD
ROOT
HETATM    1  C   UNL     1     -12.305  14.197  64.055  1.00  0.00    -0.275 C  
HETATM    2  O   UNL     1     -12.791  13.334  65.077  1.00  0.00    -0.686 OA 
ENDROOT
BRANCH   2   3
HETATM    3  C   UNL     1     -12.013  12.143  65.153  1.00  0.00    -0.262 C  
BRANCH   3   4
HETATM    4  C   UNL     1     -10.568  12.478  65.513  1.00  0.00    -0.275 C  
BRANCH   4   5
HETATM    5  O   UNL     1     -10.571  12.914  66.868  1.00  0.00    -0.250 OA 
BRANCH   5   6
HETATM    6  C   UNL     1     -10.669  12.015  67.885  1.00  0.00    -0.210 A  
HETATM    7  C   UNL     1     -11.864  11.780  68.576  1.00  0.00    -0.365 A  
HETATM    8  C   UNL     1     -11.952  10.878  69.625  1.00  0.00    -0.343 A  
HETATM    9  C   UNL     1     -10.820  10.138  69.995  1.00  0.00    -0.361 A  
HETATM   10  C   UNL     1      -9.612  10.352  69.277  1.00  0.00    -0.226 A  
HETATM   11  C   UNL     1     -11.014   9.233  71.064  1.00  0.00    -0.320 A  
HETATM   12  N   UNL     1     -12.200   9.135  71.692  1.00  0.00    -0.337 NA 
HETATM   13  C   UNL     1      -9.522  11.294  68.244  1.00  0.00    -0.190 A  
HETATM   14  N   UNL     1     -13.132  10.762  70.233  1.00  0.00    -0.097 NA 
HETATM   15  C   UNL     1     -13.199   9.899  71.247  1.00  0.00    -0.383 A  
BRANCH  11  16
HETATM   16  N   UNL     1      -9.959   8.363  71.444  1.00  0.00    -0.197 NA 
HETATM   17  H   UNL     1      -9.207   8.801  71.976  1.00  0.00     0.000 HD 
BRANCH  16  18
HETATM   18  C   UNL     1      -9.791   6.978  71.199  1.00  0.00    -0.176 A  
HETATM   19  C   UNL     1     -10.377   6.050  72.078  1.00  0.00    -0.241 A  
HETATM   20  C   UNL     1      -9.298   4.207  70.937  1.00  0.00    -0.217 A  
HETATM   21  C   UNL     1     -10.131   4.676  71.951  1.00  0.00    -0.266 A  
HETATM   22  C   UNL     1      -8.948   6.478  70.197  1.00  0.00    -0.155 A  
HETATM   23  C   UNL     1      -8.713   5.108  70.054  1.00  0.00    -0.123 A  
BRANCH  21  24
HETATM   24  C   UNL     1     -10.698   3.742  72.877  1.00  0.00    -0.200 C  
HETATM   25  C   UNL     1     -11.165   2.918  73.614  1.00  0.00    -0.305 C  
ENDBRANCH  21  24
ENDBRANCH  16  18
ENDBRANCH  11  16
BRANCH  13  26
HETATM   26  O   UNL     1      -8.256  11.379  67.709  1.00  0.00    -0.118 OA 
BRANCH  26  27
HETATM   27  C   UNL     1      -7.241  11.992  68.503  1.00  0.00    -0.101 C  
BRANCH  27  28
HETATM   28  C   UNL     1      -7.415  13.507  68.540  1.00  0.00    -0.122 C  
BRANCH  28  29
HETATM   29  O   UNL     1      -7.431  13.978  67.189  1.00  0.00    -0.104 OA 
HETATM   30  C   UNL     1      -7.677  15.372  67.111  1.00  0.00    -0.211 C  
ENDBRANCH  28  29
ENDBRANCH  27  28
ENDBRANCH  26  27
ENDBRANCH  13  26
ENDBRANCH   5   6
ENDBRANCH   4   5
ENDBRANCH   3   4
ENDBRANCH   2   3
TORSDOF 11
ENDMDL
MODEL      138
REMARK 921   NORMALIZED FREE ENERGY PREDICTED BY IDOCK:   -4.37 KCAL/MOL
REMARK 922        TOTAL FREE ENERGY PREDICTED BY IDOCK:   -8.31 KCAL/MOL
REMARK 923 INTER-LIGAND FREE ENERGY PREDICTED BY IDOCK:   -8.01 KCAL/MOL
REMARK 924 INTRA-LIGAND FREE ENERGY PREDICTED BY IDOCK:   -0.30 KCAL/MOL
REMARK 927      BINDING AFFINITY PREDICTED BY RF-SCORE:    0.00 PKD
ROOT
HETATM    1  C   UNL     1      -7.885  10.497  69.555  1.00  0.00    -0.127 C  
HETATM    2  O   UNL     1      -8.439   9.593  70.505  1.00  0.00    -0.190 OA 
ENDROOT
BRANCH   2   3
HETATM    3  C   UNL     1      -8.824   8.370  69.884  1.00  0.00    -0.137 C  
BRANCH   3   4
HETATM    4  C   UNL     1     -10.243   7.992  70.300  1.00  0.00    -0.200 C  
BRANCH   4   5
HETATM    5  O   UNL     1     -11.120   8.542  69.323  1.00  0.00    -0.040 OA 
BRANCH   5   6
HETATM    6  C   UNL     1     -11.457   9.861  69.358  1.00  0.00    -0.026 A  
HETATM    7  C   UNL     1     -11.840  10.514  70.536  1.00  0.00    -0.442 A  
HETATM    8  C   UNL     1     -12.202  11.852  70.560  1.00  0.00    -0.336 A  
HETATM    9  C   UNL     1     -12.151  12.602  69.378  1.00  0.00    -0.236 A  
HETATM   10  C   UNL     1     -11.734  11.951  68.185  1.00  0.00    -0.388 A  
HETATM   11  C   UNL     1     -12.523  13.960  69.508  1.00  0.00    -0.095 A  
HETATM   12  N   UNL     1     -12.931  14.465  70.687  1.00  0.00    -0.339 NA 
HETATM   13  C   UNL     1     -11.408  10.588  68.161  1.00  0.00    -0.254 A  
HETATM   14  N   UNL     1     -12.584  12.360  71.732  1.00  0.00    -0.102 NA 
HETATM   15  C   UNL     1     -12.940  13.644  71.739  1.00  0.00    -0.353 A  
BRANCH  11  16
HETATM   16  N   UNL     1     -12.404  14.829  68.391  1.00  0.00    -0.593 NA 
HETATM   17  H   UNL     1     -12.876  15.727  68.491  1.00  0.00     0.000 HD 
BRANCH  16  18
HETATM   18  C   UNL     1     -11.729  14.639  67.160  1.00  0.00    -0.373 A  
HETATM   19  C   UNL     1     -12.325  13.841  66.168  1.00  0.00    -0.496 A  
HETATM   20  C   UNL     1     -10.347  13.998  64.780  1.00  0.00    -0.407 A  
HETATM   21  C   UNL     1     -11.639  13.519  64.988  1.00  0.00    -0.345 A  
HETATM   22  C   UNL     1     -10.424  15.096  66.928  1.00  0.00    -0.282 A  
HETATM   23  C   UNL     1      -9.742  14.793  65.747  1.00  0.00    -0.347 A  
BRANCH  21  24
HETATM   24  C   UNL     1     -12.236  12.670  64.002  1.00  0.00    -0.544 C  
HETATM   25  C   UNL     1     -12.762  11.929  63.217  1.00  0.00    -0.407 C  
ENDBRANCH  21  24
ENDBRANCH  16  18
ENDBRANCH  11  16
BRANCH  13  26
HETATM   26  O   UNL     1     -11.073  10.142  66.902  1.00  0.00    -0.116 OA 
BRANCH  26  27
HETATM   27  C   UNL     1      -9.875  10.651  66.316  1.00  0.00    -0.214 C  
BRANCH  27  28
HETATM   28  C   UNL     1      -9.540   9.910  65.026  1.00  0.00    -0.297 C  
BRANCH  28  29
HETATM   29  O   UNL     1      -8.315  10.449  64.518  1.00  0.00    -0.166 OA 
HETATM   30  C   UNL     1      -8.157  10.204  63.130  1.00  0.00    -0.158 C  
ENDBRANCH  28  29
ENDBRANCH  27  28
ENDBRANCH  26  27
ENDBRANCH  13  26
ENDBRANCH   5   6
ENDBRANCH   4   5
ENDBRANCH   3   4
ENDBRANCH   2   3
TORSDOF 11
ENDMDL
MODEL      139
REMARK 921   NORMALIZED FREE ENERGY PREDICTED BY IDOCK:   -4.35 KCAL/MOL
REMARK 922        TOTAL FREE ENERGY PREDICTED BY IDOCK:   -8.29 KCAL/MOL
REMARK 923 INTER-LIGAND FREE ENERGY PREDICTED BY IDOCK:   -7.10 KCAL/MOL
REMARK 924 INTRA-LIGAND FREE ENERGY PREDICTED BY IDOCK:   -1.18 KCAL/MOL
REMARK 927      BINDING AFFINITY PREDICTED BY RF-SCORE:    0.00 PKD
ROOT
HETATM    1  C   UNL     1     -10.859   6.827  67.748  1.00  0.00    -0.264 C  
HETATM    2  O   UNL     1     -10.309   7.482  66.611  1.00  0.00    -0.264 OA 
ENDROOT
BRANCH   2   3
HETATM    3  C   UNL     1     -10.000   8.842  66.903  1.00  0.00    -0.257 C  
BRANCH   3   4
HETATM    4  C   UNL     1     -10.998   9.403  67.913  1.00  0.00    -0.058 C  
BRANCH   4   5
HETATM    5  O   UNL     1     -10.247  10.149  68.864  1.00  0.00    -0.179 OA 
BRANCH   5   6
HETATM    6  C   UNL     1      -9.569  11.268  68.489  1.00  0.00    -0.198 A  
HETATM    7  C   UNL     1      -8.171  11.343  68.489  1.00  0.00    -0.153 A  
HETATM    8  C   UNL     1      -7.487  12.493  68.125  1.00  0.00    -0.117 A  
HETATM    9  C   UNL     1      -8.207  13.618  67.703  1.00  0.00    -0.178 A  
HETATM   10  C   UNL     1      -9.626  13.538  67.673  1.00  0.00    -0.222 A  
HETATM   11  C   UNL     1      -7.421  14.736  67.338  1.00  0.00    -0.194 A  
HETATM   12  N   UNL     1      -6.078  14.709  67.434  1.00  0.00    -0.316 NA 
HETATM   13  C   UNL     1     -10.311  12.385  68.080  1.00  0.00    -0.226 A  
HETATM   14  N   UNL     1      -6.157  12.460  68.197  1.00  0.00    -0.059 NA 
HETATM   15  C   UNL     1      -5.513  13.577  67.855  1.00  0.00    -0.107 A  
BRANCH  11  16
HETATM   16  N   UNL     1      -8.050  15.888  66.798  1.00  0.00    -0.249 NA 
HETATM   17  H   UNL     1      -8.280  15.830  65.806  1.00  0.00     0.000 HD 
BRANCH  16  18
HETATM   18  C   UNL     1      -8.408  17.106  67.425  1.00  0.00    -0.190 A  
HETATM   19  C   UNL     1      -7.404  17.896  68.013  1.00  0.00    -0.230 A  
HETATM   20  C   UNL     1      -9.055  19.419  68.917  1.00  0.00    -0.363 A  
HETATM   21  C   UNL     1      -7.724  19.041  68.756  1.00  0.00    -0.382 A  
HETATM   22  C   UNL     1      -9.739  17.504  67.614  1.00  0.00    -0.275 A  
HETATM   23  C   UNL     1     -10.063  18.654  68.339  1.00  0.00    -0.426 A  
BRANCH  21  24
HETATM   24  C   UNL     1      -6.697  19.814  69.387  1.00  0.00    -0.382 C  
HETATM   25  C   UNL     1      -5.837  20.497  69.872  1.00  0.00    -0.372 C  
ENDBRANCH  21  24
ENDBRANCH  16  18
ENDBRANCH  11  16
BRANCH  13  26
HETATM   26  O   UNL     1     -11.679  12.527  68.018  1.00  0.00    -0.327 OA 
BRANCH  26  27
HETATM   27  C   UNL     1     -12.279  13.525  68.843  1.00  0.00    -0.159 C  
BRANCH  27  28
HETATM   28  C   UNL     1     -12.217  13.129  70.314  1.00  0.00    -0.306 C  
BRANCH  28  29
HETATM   29  O   UNL     1     -12.200  14.331  71.091  1.00  0.00    -0.328 OA 
HETATM   30  C   UNL     1     -11.736  15.444  70.343  1.00  0.00    -0.319 C  
ENDBRANCH  28  29
ENDBRANCH  27  28
ENDBRANCH  26  27
ENDBRANCH  13  26
ENDBRANCH   5   6
ENDBRANCH   4   5
ENDBRANCH   3   4
ENDBRANCH   2   3
TORSDOF 11
ENDMDL
MODEL      140
REMARK 921   NORMALIZED FREE ENERGY PREDICTED BY IDOCK:   -4.35 KCAL/MOL
REMARK 922        TOTAL FREE ENERGY PREDICTED BY IDOCK:   -8.28 KCAL/MOL
REMARK 923 INTER-LIGAND FREE ENERGY PREDICTED BY IDOCK:   -7.31 KCAL/MOL
REMARK 924 INTRA-LIGAND FREE ENERGY PREDICTED BY IDOCK:   -0.97 KCAL/MOL
REMARK 927      BINDING AFFINITY PREDICTED BY RF-SCORE:    0.00 PKD
ROOT
HETATM    1  C   UNL     1      -8.609   3.921  68.543  1.00  0.00    -0.094 C  
HETATM    2  O   UNL     1      -8.738   5.054  69.394  1.00  0.00    -0.090 OA 
ENDROOT
BRANCH   2   3
HETATM    3  C   UNL     1      -8.706   4.671  70.766  1.00  0.00    -0.104 C  
BRANCH   3   4
HETATM    4  C   UNL     1      -8.239   5.841  71.628  1.00  0.00    -0.119 C  
BRANCH   4   5
HETATM    5  O   UNL     1      -8.204   6.987  70.786  1.00  0.00    -0.118 OA 
BRANCH   5   6
HETATM    6  C   UNL     1      -9.224   7.888  70.798  1.00  0.00    -0.157 A  
HETATM    7  C   UNL     1     -10.350   7.748  71.619  1.00  0.00    -0.236 A  
HETATM    8  C   UNL     1     -11.395   8.659  71.611  1.00  0.00    -0.307 A  
HETATM    9  C   UNL     1     -11.319   9.788  70.784  1.00  0.00    -0.416 A  
HETATM   10  C   UNL     1     -10.165   9.951  69.971  1.00  0.00    -0.319 A  
HETATM   11  C   UNL     1     -12.425  10.666  70.859  1.00  0.00    -0.397 A  
HETATM   12  N   UNL     1     -13.482  10.395  71.647  1.00  0.00    -0.290 NA 
HETATM   13  C   UNL     1      -9.131   9.005  69.956  1.00  0.00    -0.176 A  
HETATM   14  N   UNL     1     -12.432   8.405  72.409  1.00  0.00    -0.357 NA 
HETATM   15  C   UNL     1     -13.434   9.283  72.382  1.00  0.00    -0.459 A  
BRANCH  11  16
HETATM   16  N   UNL     1     -12.397  11.890  70.140  1.00  0.00    -0.215 NA 
HETATM   17  H   UNL     1     -12.485  11.799  69.129  1.00  0.00     0.000 HD 
BRANCH  16  18
HETATM   18  C   UNL     1     -12.267  13.218  70.614  1.00  0.00    -0.338 A  
HETATM   19  C   UNL     1     -11.761  14.207  69.752  1.00  0.00    -0.370 A  
HETATM   20  C   UNL     1     -11.734  15.833  71.546  1.00  0.00    -0.523 A  
HETATM   21  C   UNL     1     -11.493  15.503  70.214  1.00  0.00    -0.352 A  
HETATM   22  C   UNL     1     -12.488  13.576  71.951  1.00  0.00    -0.108 A  
HETATM   23  C   UNL     1     -12.239  14.871  72.414  1.00  0.00    -0.411 A  
BRANCH  21  24
HETATM   24  C   UNL     1     -10.936  16.491  69.340  1.00  0.00    -0.288 C  
HETATM   25  C   UNL     1     -10.504  17.301  68.566  1.00  0.00    -0.375 C  
ENDBRANCH  21  24
ENDBRANCH  16  18
ENDBRANCH  11  16
BRANCH  13  26
HETATM   26  O   UNL     1      -8.128   9.326  69.068  1.00  0.00    -0.101 OA 
BRANCH  26  27
HETATM   27  C   UNL     1      -8.256  10.545  68.337  1.00  0.00    -0.121 C  
BRANCH  27  28
HETATM   28  C   UNL     1      -7.337  10.552  67.120  1.00  0.00    -0.093 C  
BRANCH  28  29
HETATM   29  O   UNL     1      -8.142  10.821  65.967  1.00  0.00    -0.156 OA 
HETATM   30  C   UNL     1      -9.227  11.686  66.262  1.00  0.00    -0.217 C  
ENDBRANCH  28  29
ENDBRANCH  27  28
ENDBRANCH  26  27
ENDBRANCH  13  26
ENDBRANCH   5   6
ENDBRANCH   4   5
ENDBRANCH   3   4
ENDBRANCH   2   3
TORSDOF 11
ENDMDL
MODEL      141
REMARK 921   NORMALIZED FREE ENERGY PREDICTED BY IDOCK:   -4.34 KCAL/MOL
REMARK 922        TOTAL FREE ENERGY PREDICTED BY IDOCK:   -8.26 KCAL/MOL
REMARK 923 INTER-LIGAND FREE ENERGY PREDICTED BY IDOCK:   -7.79 KCAL/MOL
REMARK 924 INTRA-LIGAND FREE ENERGY PREDICTED BY IDOCK:   -0.47 KCAL/MOL
REMARK 927      BINDING AFFINITY PREDICTED BY RF-SCORE:    0.00 PKD
ROOT
HETATM    1  C   UNL     1      -6.998  17.640  66.091  1.00  0.00    -0.303 C  
HETATM    2  O   UNL     1      -7.945  16.593  66.269  1.00  0.00    -0.305 OA 
ENDROOT
BRANCH   2   3
HETATM    3  C   UNL     1      -8.974  16.981  67.174  1.00  0.00    -0.222 C  
BRANCH   3   4
HETATM    4  C   UNL     1     -10.312  17.069  66.444  1.00  0.00    -0.303 C  
BRANCH   4   5
HETATM    5  O   UNL     1     -11.155  16.069  67.005  1.00  0.00    -0.222 OA 
BRANCH   5   6
HETATM    6  C   UNL     1     -10.942  14.752  66.736  1.00  0.00    -0.327 A  
HETATM    7  C   UNL     1     -10.872  14.247  65.432  1.00  0.00    -0.348 A  
HETATM    8  C   UNL     1     -10.676  12.900  65.165  1.00  0.00    -0.305 A  
HETATM    9  C   UNL     1     -10.502  12.005  66.229  1.00  0.00    -0.273 A  
HETATM   10  C   UNL     1     -10.542  12.517  67.555  1.00  0.00    -0.238 A  
HETATM   11  C   UNL     1     -10.292  10.657  65.856  1.00  0.00    -0.224 A  
HETATM   12  N   UNL     1     -10.302  10.279  64.564  1.00  0.00    -0.125 NA 
HETATM   13  C   UNL     1     -10.780  13.873  67.816  1.00  0.00    -0.246 A  
HETATM   14  N   UNL     1     -10.662  12.527  63.886  1.00  0.00    -0.410 NA 
HETATM   15  C   UNL     1     -10.483  11.228  63.645  1.00  0.00    -0.405 A  
BRANCH  11  16
HETATM   16  N   UNL     1     -10.000   9.691  66.854  1.00  0.00    -0.198 NA 
HETATM   17  H   UNL     1      -9.879  10.064  67.795  1.00  0.00     0.000 HD 
BRANCH  16  18
HETATM   18  C   UNL     1      -9.853   8.286  66.743  1.00  0.00    -0.263 A  
HETATM   19  C   UNL     1      -8.701   7.764  66.128  1.00  0.00    -0.177 A  
HETATM   20  C   UNL     1      -9.592   5.515  66.250  1.00  0.00    -0.173 A  
HETATM   21  C   UNL     1      -8.572   6.390  65.880  1.00  0.00    -0.151 A  
HETATM   22  C   UNL     1     -10.867   7.384  67.093  1.00  0.00    -0.340 A  
HETATM   23  C   UNL     1     -10.736   6.011  66.864  1.00  0.00    -0.407 A  
BRANCH  21  24
HETATM   24  C   UNL     1      -7.415   5.872  65.214  1.00  0.00    -0.082 C  
HETATM   25  C   UNL     1      -6.460   5.387  64.672  1.00  0.00    -0.038 C  
ENDBRANCH  21  24
ENDBRANCH  16  18
ENDBRANCH  11  16
BRANCH  13  26
HETATM   26  O   UNL     1     -10.825  14.156  69.163  1.00  0.00    -0.250 OA 
BRANCH  26  27
HETATM   27  C   UNL     1     -11.710  15.190  69.594  1.00  0.00    -0.327 C  
BRANCH  27  28
HETATM   28  C   UNL     1     -12.864  14.619  70.410  1.00  0.00    -0.270 C  
BRANCH  28  29
HETATM   29  O   UNL     1     -12.344  13.564  71.224  1.00  0.00    -0.336 OA 
HETATM   30  C   UNL     1     -13.305  13.075  72.146  1.00  0.00    -0.524 C  
ENDBRANCH  28  29
ENDBRANCH  27  28
ENDBRANCH  26  27
ENDBRANCH  13  26
ENDBRANCH   5   6
ENDBRANCH   4   5
ENDBRANCH   3   4
ENDBRANCH   2   3
TORSDOF 11
ENDMDL
MODEL      142
REMARK 921   NORMALIZED FREE ENERGY PREDICTED BY IDOCK:   -4.33 KCAL/MOL
REMARK 922        TOTAL FREE ENERGY PREDICTED BY IDOCK:   -8.24 KCAL/MOL
REMARK 923 INTER-LIGAND FREE ENERGY PREDICTED BY IDOCK:   -7.78 KCAL/MOL
REMARK 924 INTRA-LIGAND FREE ENERGY PREDICTED BY IDOCK:   -0.47 KCAL/MOL
REMARK 927      BINDING AFFINITY PREDICTED BY RF-SCORE:    0.00 PKD
ROOT
HETATM    1  C   UNL     1      -5.156  17.970  66.316  1.00  0.00    -0.165 C  
HETATM    2  O   UNL     1      -6.215  17.064  66.023  1.00  0.00    -0.164 OA 
ENDROOT
BRANCH   2   3
HETATM    3  C   UNL     1      -7.484  17.688  66.195  1.00  0.00    -0.299 C  
BRANCH   3   4
HETATM    4  C   UNL     1      -8.604  16.697  65.890  1.00  0.00    -0.036 C  
BRANCH   4   5
HETATM    5  O   UNL     1      -9.186  16.334  67.137  1.00  0.00    -0.208 OA 
BRANCH   5   6
HETATM    6  C   UNL     1      -9.160  15.042  67.565  1.00  0.00    -0.185 A  
HETATM    7  C   UNL     1      -8.011  14.442  68.095  1.00  0.00    -0.136 A  
HETATM    8  C   UNL     1      -7.986  13.120  68.510  1.00  0.00    -0.094 A  
HETATM    9  C   UNL     1      -9.157  12.352  68.438  1.00  0.00    -0.141 A  
HETATM   10  C   UNL     1     -10.334  12.965  67.928  1.00  0.00    -0.233 A  
HETATM   11  C   UNL     1      -9.035  11.021  68.899  1.00  0.00    -0.115 A  
HETATM   12  N   UNL     1      -7.858  10.536  69.337  1.00  0.00    -0.155 NA 
HETATM   13  C   UNL     1     -10.340  14.291  67.474  1.00  0.00    -0.248 A  
HETATM   14  N   UNL     1      -6.827  12.645  68.966  1.00  0.00    -0.098 NA 
HETATM   15  C   UNL     1      -6.816  11.368  69.350  1.00  0.00    -0.112 A  
BRANCH  11  16
HETATM   16  N   UNL     1     -10.188  10.195  68.966  1.00  0.00    -0.194 NA 
HETATM   17  H   UNL     1     -10.307   9.556  68.181  1.00  0.00     0.000 HD 
BRANCH  16  18
HETATM   18  C   UNL     1     -11.197  10.122  69.958  1.00  0.00    -0.299 A  
HETATM   19  C   UNL     1     -11.801  11.309  70.409  1.00  0.00    -0.443 A  
HETATM   20  C   UNL     1     -13.032  10.098  72.107  1.00  0.00    -0.436 A  
HETATM   21  C   UNL     1     -12.709  11.299  71.478  1.00  0.00    -0.481 A  
HETATM   22  C   UNL     1     -11.532   8.932  70.618  1.00  0.00    -0.280 A  
HETATM   23  C   UNL     1     -12.449   8.913  71.673  1.00  0.00    -0.403 A  
BRANCH  21  24
HETATM   24  C   UNL     1     -13.287  12.517  71.959  1.00  0.00    -0.528 C  
HETATM   25  C   UNL     1     -13.771  13.517  72.415  1.00  0.00    -0.704 C  
ENDBRANCH  21  24
ENDBRANCH  16  18
ENDBRANCH  11  16
BRANCH  13  26
HETATM   26  O   UNL     1     -11.565  14.679  66.978  1.00  0.00    -0.362 OA 
BRANCH  26  27
HETATM   27  C   UNL     1     -11.590  15.317  65.702  1.00  0.00    -0.039 C  
BRANCH  27  28
HETATM   28  C   UNL     1     -12.370  14.485  64.689  1.00  0.00    -0.403 C  
BRANCH  28  29
HETATM   29  O   UNL     1     -11.483  13.492  64.164  1.00  0.00    -0.384 OA 
HETATM   30  C   UNL     1     -12.127  12.640  63.231  1.00  0.00    -0.433 C  
ENDBRANCH  28  29
ENDBRANCH  27  28
ENDBRANCH  26  27
ENDBRANCH  13  26
ENDBRANCH   5   6
ENDBRANCH   4   5
ENDBRANCH   3   4
ENDBRANCH   2   3
TORSDOF 11
ENDMDL
MODEL      143
REMARK 921   NORMALIZED FREE ENERGY PREDICTED BY IDOCK:   -4.32 KCAL/MOL
REMARK 922        TOTAL FREE ENERGY PREDICTED BY IDOCK:   -8.24 KCAL/MOL
REMARK 923 INTER-LIGAND FREE ENERGY PREDICTED BY IDOCK:   -7.11 KCAL/MOL
REMARK 924 INTRA-LIGAND FREE ENERGY PREDICTED BY IDOCK:   -1.13 KCAL/MOL
REMARK 927      BINDING AFFINITY PREDICTED BY RF-SCORE:    0.00 PKD
ROOT
HETATM    1  C   UNL     1     -12.077  14.783  64.227  1.00  0.00    -0.394 C  
HETATM    2  O   UNL     1     -12.966  14.056  65.066  1.00  0.00    -0.728 OA 
ENDROOT
BRANCH   2   3
HETATM    3  C   UNL     1     -12.356  12.861  65.546  1.00  0.00    -0.461 C  
BRANCH   3   4
HETATM    4  C   UNL     1     -10.893  13.120  65.894  1.00  0.00    -0.273 C  
BRANCH   4   5
HETATM    5  O   UNL     1     -10.846  13.415  67.286  1.00  0.00    -0.264 OA 
BRANCH   5   6
HETATM    6  C   UNL     1     -10.812  12.412  68.206  1.00  0.00    -0.237 A  
HETATM    7  C   UNL     1     -11.829  12.212  69.147  1.00  0.00    -0.361 A  
HETATM    8  C   UNL     1     -11.778  11.201  70.095  1.00  0.00    -0.353 A  
HETATM    9  C   UNL     1     -10.692  10.315  70.099  1.00  0.00    -0.334 A  
HETATM   10  C   UNL     1      -9.671  10.495  69.127  1.00  0.00    -0.226 A  
HETATM   11  C   UNL     1     -10.738   9.309  71.092  1.00  0.00    -0.333 A  
HETATM   12  N   UNL     1     -11.745   9.251  71.984  1.00  0.00    -0.333 NA 
HETATM   13  C   UNL     1      -9.711  11.544  68.198  1.00  0.00    -0.192 A  
HETATM   14  N   UNL     1     -12.786  11.127  70.963  1.00  0.00    -0.381 NA 
HETATM   15  C   UNL     1     -12.717  10.158  71.876  1.00  0.00    -0.396 A  
BRANCH  11  16
HETATM   16  N   UNL     1      -9.740   8.300  71.114  1.00  0.00    -0.159 NA 
HETATM   17  H   UNL     1      -9.058   8.384  71.867  1.00  0.00     0.000 HD 
BRANCH  16  18
HETATM   18  C   UNL     1      -9.548   7.194  70.251  1.00  0.00    -0.169 A  
HETATM   19  C   UNL     1      -8.492   7.224  69.322  1.00  0.00    -0.133 A  
HETATM   20  C   UNL     1      -9.243   5.151  68.321  1.00  0.00    -0.139 A  
HETATM   21  C   UNL     1      -8.342   6.213  68.362  1.00  0.00    -0.114 A  
HETATM   22  C   UNL     1     -10.445   6.120  70.177  1.00  0.00    -0.291 A  
HETATM   23  C   UNL     1     -10.291   5.100  69.233  1.00  0.00    -0.248 A  
BRANCH  21  24
HETATM   24  C   UNL     1      -7.290   6.275  67.393  1.00  0.00    -0.084 C  
HETATM   25  C   UNL     1      -6.382   6.285  66.608  1.00  0.00    -0.041 C  
ENDBRANCH  21  24
ENDBRANCH  16  18
ENDBRANCH  11  16
BRANCH  13  26
HETATM   26  O   UNL     1      -8.607  11.569  67.375  1.00  0.00    -0.138 OA 
BRANCH  26  27
HETATM   27  C   UNL     1      -7.325  11.411  67.982  1.00  0.00    -0.090 C  
BRANCH  27  28
HETATM   28  C   UNL     1      -6.597  10.197  67.415  1.00  0.00    -0.068 C  
BRANCH  28  29
HETATM   29  O   UNL     1      -6.985  10.055  66.045  1.00  0.00    -0.098 OA 
HETATM   30  C   UNL     1      -6.031  10.615  65.158  1.00  0.00    -0.070 C  
ENDBRANCH  28  29
ENDBRANCH  27  28
ENDBRANCH  26  27
ENDBRANCH  13  26
ENDBRANCH   5   6
ENDBRANCH   4   5
ENDBRANCH   3   4
ENDBRANCH   2   3
TORSDOF 11
ENDMDL
MODEL      144
REMARK 921   NORMALIZED FREE ENERGY PREDICTED BY IDOCK:   -4.32 KCAL/MOL
REMARK 922        TOTAL FREE ENERGY PREDICTED BY IDOCK:   -8.24 KCAL/MOL
REMARK 923 INTER-LIGAND FREE ENERGY PREDICTED BY IDOCK:   -7.04 KCAL/MOL
REMARK 924 INTRA-LIGAND FREE ENERGY PREDICTED BY IDOCK:   -1.20 KCAL/MOL
REMARK 927      BINDING AFFINITY PREDICTED BY RF-SCORE:    0.00 PKD
ROOT
HETATM    1  C   UNL     1      -7.317   3.474  66.750  1.00  0.00    -0.068 C  
HETATM    2  O   UNL     1      -7.663   4.765  67.240  1.00  0.00    -0.089 OA 
ENDROOT
BRANCH   2   3
HETATM    3  C   UNL     1      -6.497   5.520  67.558  1.00  0.00    -0.051 C  
BRANCH   3   4
HETATM    4  C   UNL     1      -6.890   6.902  68.074  1.00  0.00    -0.078 C  
BRANCH   4   5
HETATM    5  O   UNL     1      -8.261   6.828  68.450  1.00  0.00    -0.118 OA 
BRANCH   5   6
HETATM    6  C   UNL     1      -9.082   7.902  68.292  1.00  0.00    -0.134 A  
HETATM    7  C   UNL     1      -9.619   8.611  69.373  1.00  0.00    -0.166 A  
HETATM    8  C   UNL     1     -10.471   9.692  69.204  1.00  0.00    -0.214 A  
HETATM    9  C   UNL     1     -10.787  10.126  67.910  1.00  0.00    -0.336 A  
HETATM   10  C   UNL     1     -10.221   9.427  66.808  1.00  0.00    -0.320 A  
HETATM   11  C   UNL     1     -11.650  11.244  67.842  1.00  0.00    -0.256 A  
HETATM   12  N   UNL     1     -12.151  11.811  68.955  1.00  0.00    -0.294 NA 
HETATM   13  C   UNL     1      -9.391   8.312  66.987  1.00  0.00    -0.160 A  
HETATM   14  N   UNL     1     -10.950  10.269  70.306  1.00  0.00    -0.303 NA 
HETATM   15  C   UNL     1     -11.777  11.299  70.129  1.00  0.00    -0.343 A  
BRANCH  11  16
HETATM   16  N   UNL     1     -11.945  11.825  66.581  1.00  0.00    -0.499 NA 
HETATM   17  H   UNL     1     -12.568  11.277  65.988  1.00  0.00     0.000 HD 
BRANCH  16  18
HETATM   18  C   UNL     1     -11.508  13.049  66.020  1.00  0.00    -0.335 A  
HETATM   19  C   UNL     1     -10.326  13.641  66.501  1.00  0.00    -0.282 A  
HETATM   20  C   UNL     1     -10.695  15.611  65.142  1.00  0.00    -0.463 A  
HETATM   21  C   UNL     1      -9.925  14.913  66.070  1.00  0.00    -0.337 A  
HETATM   22  C   UNL     1     -12.269  13.781  65.097  1.00  0.00    -0.453 A  
HETATM   23  C   UNL     1     -11.864  15.041  64.650  1.00  0.00    -0.378 A  
BRANCH  21  24
HETATM   24  C   UNL     1      -8.743  15.526  66.598  1.00  0.00    -0.326 C  
HETATM   25  C   UNL     1      -7.740  16.057  66.989  1.00  0.00    -0.264 C  
ENDBRANCH  21  24
ENDBRANCH  16  18
ENDBRANCH  11  16
BRANCH  13  26
HETATM   26  O   UNL     1      -8.985   7.753  65.796  1.00  0.00    -0.150 OA 
BRANCH  26  27
HETATM   27  C   UNL     1      -8.465   8.630  64.797  1.00  0.00    -0.149 C  
BRANCH  27  28
HETATM   28  C   UNL     1      -8.072   7.858  63.542  1.00  0.00    -0.079 C  
BRANCH  28  29
HETATM   29  O   UNL     1      -8.364   8.685  62.411  1.00  0.00    -0.183 OA 
HETATM   30  C   UNL     1      -8.785   9.984  62.793  1.00  0.00    -0.210 C  
ENDBRANCH  28  29
ENDBRANCH  27  28
ENDBRANCH  26  27
ENDBRANCH  13  26
ENDBRANCH   5   6
ENDBRANCH   4   5
ENDBRANCH   3   4
ENDBRANCH   2   3
TORSDOF 11
ENDMDL
MODEL      145
REMARK 921   NORMALIZED FREE ENERGY PREDICTED BY IDOCK:   -4.31 KCAL/MOL
REMARK 922        TOTAL FREE ENERGY PREDICTED BY IDOCK:   -8.21 KCAL/MOL
REMARK 923 INTER-LIGAND FREE ENERGY PREDICTED BY IDOCK:   -7.09 KCAL/MOL
REMARK 924 INTRA-LIGAND FREE ENERGY PREDICTED BY IDOCK:   -1.12 KCAL/MOL
REMARK 927      BINDING AFFINITY PREDICTED BY RF-SCORE:    0.00 PKD
ROOT
HETATM    1  C   UNL     1     -10.403  19.717  68.005  1.00  0.00    -0.453 C  
HETATM    2  O   UNL     1     -10.818  18.964  66.871  1.00  0.00    -0.403 OA 
ENDROOT
BRANCH   2   3
HETATM    3  C   UNL     1      -9.746  18.178  66.358  1.00  0.00    -0.327 C  
BRANCH   3   4
HETATM    4  C   UNL     1     -10.284  16.889  65.745  1.00  0.00    -0.268 C  
BRANCH   4   5
HETATM    5  O   UNL     1     -10.748  16.082  66.821  1.00  0.00    -0.317 OA 
BRANCH   5   6
HETATM    6  C   UNL     1     -10.398  14.769  66.905  1.00  0.00    -0.267 A  
HETATM    7  C   UNL     1     -10.483  13.891  65.818  1.00  0.00    -0.313 A  
HETATM    8  C   UNL     1     -10.144  12.550  65.916  1.00  0.00    -0.254 A  
HETATM    9  C   UNL     1      -9.661  12.048  67.132  1.00  0.00    -0.203 A  
HETATM   10  C   UNL     1      -9.545  12.942  68.232  1.00  0.00    -0.212 A  
HETATM   11  C   UNL     1      -9.327  10.674  67.128  1.00  0.00    -0.155 A  
HETATM   12  N   UNL     1      -9.506   9.913  66.032  1.00  0.00    -0.186 NA 
HETATM   13  C   UNL     1      -9.927  14.287  68.135  1.00  0.00    -0.230 A  
HETATM   14  N   UNL     1     -10.297  11.801  64.825  1.00  0.00    -0.274 NA 
HETATM   15  C   UNL     1      -9.978  10.511  64.937  1.00  0.00    -0.334 A  
BRANCH  11  16
HETATM   16  N   UNL     1      -8.731  10.095  68.279  1.00  0.00    -0.118 NA 
HETATM   17  H   UNL     1      -7.714  10.040  68.257  1.00  0.00     0.000 HD 
BRANCH  16  18
HETATM   18  C   UNL     1      -9.334   9.581  69.453  1.00  0.00    -0.180 A  
HETATM   19  C   UNL     1      -8.528   9.293  70.568  1.00  0.00    -0.251 A  
HETATM   20  C   UNL     1     -10.408   8.318  71.743  1.00  0.00    -0.321 A  
HETATM   21  C   UNL     1      -9.059   8.664  71.703  1.00  0.00    -0.318 A  
HETATM   22  C   UNL     1     -10.685   9.210  69.517  1.00  0.00    -0.226 A  
HETATM   23  C   UNL     1     -11.223   8.598  70.652  1.00  0.00    -0.284 A  
BRANCH  21  24
HETATM   24  C   UNL     1      -8.221   8.335  72.817  1.00  0.00    -0.221 C  
HETATM   25  C   UNL     1      -7.486   8.105  73.739  1.00  0.00    -0.211 C  
ENDBRANCH  21  24
ENDBRANCH  16  18
ENDBRANCH  11  16
BRANCH  13  26
HETATM   26  O   UNL     1      -9.779  14.970  69.321  1.00  0.00    -0.218 OA 
BRANCH  26  27
HETATM   27  C   UNL     1      -8.869  16.070  69.344  1.00  0.00    -0.159 C  
BRANCH  27  28
HETATM   28  C   UNL     1      -7.449  15.599  69.637  1.00  0.00    -0.134 C  
BRANCH  28  29
HETATM   29  O   UNL     1      -6.669  15.798  68.454  1.00  0.00    -0.110 OA 
HETATM   30  C   UNL     1      -5.932  14.640  68.098  1.00  0.00    -0.139 C  
ENDBRANCH  28  29
ENDBRANCH  27  28
ENDBRANCH  26  27
ENDBRANCH  13  26
ENDBRANCH   5   6
ENDBRANCH   4   5
ENDBRANCH   3   4
ENDBRANCH   2   3
TORSDOF 11
ENDMDL
MODEL      146
REMARK 921   NORMALIZED FREE ENERGY PREDICTED BY IDOCK:   -4.29 KCAL/MOL
REMARK 922        TOTAL FREE ENERGY PREDICTED BY IDOCK:   -8.18 KCAL/MOL
REMARK 923 INTER-LIGAND FREE ENERGY PREDICTED BY IDOCK:   -7.53 KCAL/MOL
REMARK 924 INTRA-LIGAND FREE ENERGY PREDICTED BY IDOCK:   -0.66 KCAL/MOL
REMARK 927      BINDING AFFINITY PREDICTED BY RF-SCORE:    0.00 PKD
ROOT
HETATM    1  C   UNL     1      -9.919  11.346  63.272  1.00  0.00    -0.401 C  
HETATM    2  O   UNL     1     -11.229  11.463  63.815  1.00  0.00    -0.399 OA 
ENDROOT
BRANCH   2   3
HETATM    3  C   UNL     1     -11.448  12.768  64.345  1.00  0.00    -0.354 C  
BRANCH   3   4
HETATM    4  C   UNL     1     -12.381  12.696  65.551  1.00  0.00    -0.391 C  
BRANCH   4   5
HETATM    5  O   UNL     1     -11.655  12.063  66.598  1.00  0.00    -0.436 OA 
BRANCH   5   6
HETATM    6  C   UNL     1     -10.555  12.657  67.137  1.00  0.00    -0.236 A  
HETATM    7  C   UNL     1      -9.250  12.263  66.819  1.00  0.00    -0.210 A  
HETATM    8  C   UNL     1      -8.134  12.859  67.387  1.00  0.00    -0.181 A  
HETATM    9  C   UNL     1      -8.302  13.921  68.286  1.00  0.00    -0.163 A  
HETATM   10  C   UNL     1      -9.625  14.344  68.589  1.00  0.00    -0.208 A  
HETATM   11  C   UNL     1      -7.105  14.472  68.799  1.00  0.00    -0.112 A  
HETATM   12  N   UNL     1      -5.902  13.970  68.462  1.00  0.00    -0.086 NA 
HETATM   13  C   UNL     1     -10.748  13.711  68.040  1.00  0.00    -0.247 A  
HETATM   14  N   UNL     1      -6.941  12.378  67.037  1.00  0.00    -0.069 NA 
HETATM   15  C   UNL     1      -5.878  12.953  67.600  1.00  0.00    -0.136 A  
BRANCH  11  16
HETATM   16  N   UNL     1      -7.163  15.619  69.633  1.00  0.00    -0.186 NA 
HETATM   17  H   UNL     1      -7.279  15.424  70.627  1.00  0.00     0.000 HD 
BRANCH  16  18
HETATM   18  C   UNL     1      -7.085  16.993  69.297  1.00  0.00    -0.177 A  
HETATM   19  C   UNL     1      -8.133  17.581  68.568  1.00  0.00    -0.275 A  
HETATM   20  C   UNL     1      -6.899  19.654  68.363  1.00  0.00    -0.329 A  
HETATM   21  C   UNL     1      -8.041  18.900  68.101  1.00  0.00    -0.333 A  
HETATM   22  C   UNL     1      -5.944  17.772  69.534  1.00  0.00    -0.245 A  
HETATM   23  C   UNL     1      -5.853  19.092  69.086  1.00  0.00    -0.247 A  
BRANCH  21  24
HETATM   24  C   UNL     1      -9.095  19.476  67.322  1.00  0.00    -0.373 C  
HETATM   25  C   UNL     1      -9.959  19.932  66.624  1.00  0.00    -0.578 C  
ENDBRANCH  21  24
ENDBRANCH  16  18
ENDBRANCH  11  16
BRANCH  13  26
HETATM   26  O   UNL     1     -11.934  14.242  68.495  1.00  0.00    -0.341 OA 
BRANCH  26  27
HETATM   27  C   UNL     1     -12.463  13.730  69.718  1.00  0.00    -0.162 C  
BRANCH  27  28
HETATM   28  C   UNL     1     -11.705  12.483  70.163  1.00  0.00    -0.175 C  
BRANCH  28  29
HETATM   29  O   UNL     1     -12.648  11.589  70.762  1.00  0.00    -0.338 OA 
HETATM   30  C   UNL     1     -12.014  10.576  71.525  1.00  0.00    -0.138 C  
ENDBRANCH  28  29
ENDBRANCH  27  28
ENDBRANCH  26  27
ENDBRANCH  13  26
ENDBRANCH   5   6
ENDBRANCH   4   5
ENDBRANCH   3   4
ENDBRANCH   2   3
TORSDOF 11
ENDMDL
MODEL      147
REMARK 921   NORMALIZED FREE ENERGY PREDICTED BY IDOCK:   -4.29 KCAL/MOL
REMARK 922        TOTAL FREE ENERGY PREDICTED BY IDOCK:   -8.18 KCAL/MOL
REMARK 923 INTER-LIGAND FREE ENERGY PREDICTED BY IDOCK:   -6.96 KCAL/MOL
REMARK 924 INTRA-LIGAND FREE ENERGY PREDICTED BY IDOCK:   -1.22 KCAL/MOL
REMARK 927      BINDING AFFINITY PREDICTED BY RF-SCORE:    0.00 PKD
ROOT
HETATM    1  C   UNL     1     -12.645   6.709  71.706  1.00  0.00    -0.274 C  
HETATM    2  O   UNL     1     -13.430   7.860  71.415  1.00  0.00    -0.312 OA 
ENDROOT
BRANCH   2   3
HETATM    3  C   UNL     1     -12.932   9.006  72.099  1.00  0.00    -0.424 C  
BRANCH   3   4
HETATM    4  C   UNL     1     -12.936  10.217  71.170  1.00  0.00    -0.409 C  
BRANCH   4   5
HETATM    5  O   UNL     1     -11.576  10.580  70.959  1.00  0.00    -0.330 OA 
BRANCH   5   6
HETATM    6  C   UNL     1     -11.101  10.792  69.701  1.00  0.00    -0.279 A  
HETATM    7  C   UNL     1     -11.830  11.478  68.722  1.00  0.00    -0.394 A  
HETATM    8  C   UNL     1     -11.348  11.672  67.436  1.00  0.00    -0.300 A  
HETATM    9  C   UNL     1     -10.071  11.202  67.100  1.00  0.00    -0.223 A  
HETATM   10  C   UNL     1      -9.316  10.530  68.099  1.00  0.00    -0.150 A  
HETATM   11  C   UNL     1      -9.663  11.462  65.771  1.00  0.00    -0.233 A  
HETATM   12  N   UNL     1     -10.477  12.084  64.898  1.00  0.00    -0.273 NA 
HETATM   13  C   UNL     1      -9.826  10.304  69.385  1.00  0.00    -0.227 A  
HETATM   14  N   UNL     1     -12.143  12.309  66.577  1.00  0.00    -0.599 NA 
HETATM   15  C   UNL     1     -11.672  12.478  65.341  1.00  0.00    -0.398 A  
BRANCH  11  16
HETATM   16  N   UNL     1      -8.347  11.120  65.363  1.00  0.00    -0.377 NA 
HETATM   17  H   UNL     1      -7.642  11.836  65.536  1.00  0.00     0.000 HD 
BRANCH  16  18
HETATM   18  C   UNL     1      -7.863   9.937  64.753  1.00  0.00    -0.141 A  
HETATM   19  C   UNL     1      -8.375   8.694  65.166  1.00  0.00    -0.178 A  
HETATM   20  C   UNL     1      -6.779   7.516  63.776  1.00  0.00    -0.053 A  
HETATM   21  C   UNL     1      -7.835   7.493  64.684  1.00  0.00    -0.130 A  
HETATM   22  C   UNL     1      -6.793   9.929  63.847  1.00  0.00    -0.125 A  
HETATM   23  C   UNL     1      -6.263   8.736  63.351  1.00  0.00    -0.085 A  
BRANCH  21  24
HETATM   24  C   UNL     1      -8.333   6.231  65.144  1.00  0.00    -0.119 C  
HETATM   25  C   UNL     1      -8.775   5.166  65.478  1.00  0.00    -0.147 C  
ENDBRANCH  21  24
ENDBRANCH  16  18
ENDBRANCH  11  16
BRANCH  13  26
HETATM   26  O   UNL     1      -8.956   9.599  70.187  1.00  0.00    -0.218 OA 
BRANCH  26  27
HETATM   27  C   UNL     1      -9.064   8.176  70.189  1.00  0.00    -0.147 C  
BRANCH  27  28
HETATM   28  C   UNL     1      -8.551   7.589  71.500  1.00  0.00    -0.116 C  
BRANCH  28  29
HETATM   29  O   UNL     1      -9.017   6.240  71.587  1.00  0.00    -0.144 OA 
HETATM   30  C   UNL     1      -9.348   5.705  70.316  1.00  0.00    -0.152 C  
ENDBRANCH  28  29
ENDBRANCH  27  28
ENDBRANCH  26  27
ENDBRANCH  13  26
ENDBRANCH   5   6
ENDBRANCH   4   5
ENDBRANCH   3   4
ENDBRANCH   2   3
TORSDOF 11
ENDMDL
MODEL      148
REMARK 921   NORMALIZED FREE ENERGY PREDICTED BY IDOCK:   -4.28 KCAL/MOL
REMARK 922        TOTAL FREE ENERGY PREDICTED BY IDOCK:   -8.17 KCAL/MOL
REMARK 923 INTER-LIGAND FREE ENERGY PREDICTED BY IDOCK:   -7.16 KCAL/MOL
REMARK 924 INTRA-LIGAND FREE ENERGY PREDICTED BY IDOCK:   -1.01 KCAL/MOL
REMARK 927      BINDING AFFINITY PREDICTED BY RF-SCORE:    0.00 PKD
ROOT
HETATM    1  C   UNL     1      -8.783  15.047  67.737  1.00  0.00    -0.164 C  
HETATM    2  O   UNL     1      -9.316  15.010  66.418  1.00  0.00    -0.267 OA 
ENDROOT
BRANCH   2   3
HETATM    3  C   UNL     1     -10.711  15.301  66.422  1.00  0.00    -0.318 C  
BRANCH   3   4
HETATM    4  C   UNL     1     -11.367  14.717  67.670  1.00  0.00    -0.339 C  
BRANCH   4   5
HETATM    5  O   UNL     1     -11.976  13.491  67.282  1.00  0.00    -0.370 OA 
BRANCH   5   6
HETATM    6  C   UNL     1     -11.549  12.308  67.804  1.00  0.00    -0.351 A  
HETATM    7  C   UNL     1     -12.003  11.814  69.032  1.00  0.00    -0.341 A  
HETATM    8  C   UNL     1     -11.548  10.619  69.567  1.00  0.00    -0.288 A  
HETATM    9  C   UNL     1     -10.628   9.846  68.846  1.00  0.00    -0.239 A  
HETATM   10  C   UNL     1     -10.186  10.329  67.584  1.00  0.00    -0.247 A  
HETATM   11  C   UNL     1     -10.237   8.638  69.467  1.00  0.00    -0.209 A  
HETATM   12  N   UNL     1     -10.700   8.293  70.683  1.00  0.00    -0.216 NA 
HETATM   13  C   UNL     1     -10.622  11.558  67.068  1.00  0.00    -0.242 A  
HETATM   14  N   UNL     1     -12.023  10.265  70.761  1.00  0.00    -0.331 NA 
HETATM   15  C   UNL     1     -11.569   9.119  71.268  1.00  0.00    -0.331 A  
BRANCH  11  16
HETATM   16  N   UNL     1      -9.391   7.735  68.771  1.00  0.00    -0.146 NA 
HETATM   17  H   UNL     1      -8.414   8.018  68.710  1.00  0.00     0.000 HD 
BRANCH  16  18
HETATM   18  C   UNL     1      -9.697   6.499  68.150  1.00  0.00    -0.126 A  
HETATM   19  C   UNL     1      -9.391   5.301  68.819  1.00  0.00    -0.157 A  
HETATM   20  C   UNL     1     -10.034   3.994  66.884  1.00  0.00    -0.059 A  
HETATM   21  C   UNL     1      -9.554   4.058  68.191  1.00  0.00    -0.189 A  
HETATM   22  C   UNL     1     -10.166   6.404  66.832  1.00  0.00    -0.277 A  
HETATM   23  C   UNL     1     -10.348   5.167  66.207  1.00  0.00    -0.313 A  
BRANCH  21  24
HETATM   24  C   UNL     1      -9.199   2.845  68.864  1.00  0.00    -0.228 C  
HETATM   25  C   UNL     1      -8.948   1.804  69.407  1.00  0.00    -0.144 C  
ENDBRANCH  21  24
ENDBRANCH  16  18
ENDBRANCH  11  16
BRANCH  13  26
HETATM   26  O   UNL     1     -10.042  11.862  65.857  1.00  0.00    -0.221 OA 
BRANCH  26  27
HETATM   27  C   UNL     1     -10.197  10.922  64.794  1.00  0.00    -0.333 C  
BRANCH  27  28
HETATM   28  C   UNL     1      -8.980  10.010  64.688  1.00  0.00    -0.214 C  
BRANCH  28  29
HETATM   29  O   UNL     1      -8.675   9.847  63.299  1.00  0.00    -0.183 OA 
HETATM   30  C   UNL     1      -8.798  11.062  62.578  1.00  0.00    -0.315 C  
ENDBRANCH  28  29
ENDBRANCH  27  28
ENDBRANCH  26  27
ENDBRANCH  13  26
ENDBRANCH   5   6
ENDBRANCH   4   5
ENDBRANCH   3   4
ENDBRANCH   2   3
TORSDOF 11
ENDMDL
MODEL      149
REMARK 921   NORMALIZED FREE ENERGY PREDICTED BY IDOCK:   -4.28 KCAL/MOL
REMARK 922        TOTAL FREE ENERGY PREDICTED BY IDOCK:   -8.17 KCAL/MOL
REMARK 923 INTER-LIGAND FREE ENERGY PREDICTED BY IDOCK:   -6.83 KCAL/MOL
REMARK 924 INTRA-LIGAND FREE ENERGY PREDICTED BY IDOCK:   -1.34 KCAL/MOL
REMARK 927      BINDING AFFINITY PREDICTED BY RF-SCORE:    0.00 PKD
ROOT
HETATM    1  C   UNL     1      -8.252  19.505  68.122  1.00  0.00    -0.317 C  
HETATM    2  O   UNL     1      -9.447  20.130  67.667  1.00  0.00    -0.361 OA 
ENDROOT
BRANCH   2   3
HETATM    3  C   UNL     1     -10.498  19.179  67.519  1.00  0.00    -0.455 C  
BRANCH   3   4
HETATM    4  C   UNL     1     -10.052  18.040  66.607  1.00  0.00    -0.372 C  
BRANCH   4   5
HETATM    5  O   UNL     1     -10.432  16.826  67.245  1.00  0.00    -0.317 OA 
BRANCH   5   6
HETATM    6  C   UNL     1      -9.579  15.766  67.284  1.00  0.00    -0.217 A  
HETATM    7  C   UNL     1      -8.234  15.889  67.655  1.00  0.00    -0.164 A  
HETATM    8  C   UNL     1      -7.366  14.808  67.673  1.00  0.00    -0.186 A  
HETATM    9  C   UNL     1      -7.845  13.533  67.345  1.00  0.00    -0.157 A  
HETATM   10  C   UNL     1      -9.217  13.398  66.996  1.00  0.00    -0.242 A  
HETATM   11  C   UNL     1      -6.888  12.494  67.408  1.00  0.00    -0.145 A  
HETATM   12  N   UNL     1      -5.603  12.743  67.724  1.00  0.00    -0.115 NA 
HETATM   13  C   UNL     1     -10.079  14.502  66.943  1.00  0.00    -0.257 A  
HETATM   14  N   UNL     1      -6.099  15.049  68.008  1.00  0.00    -0.139 NA 
HETATM   15  C   UNL     1      -5.272  14.003  68.010  1.00  0.00    -0.098 A  
BRANCH  11  16
HETATM   16  N   UNL     1      -7.297  11.151  67.197  1.00  0.00    -0.114 NA 
HETATM   17  H   UNL     1      -7.082  10.773  66.275  1.00  0.00     0.000 HD 
BRANCH  16  18
HETATM   18  C   UNL     1      -7.958  10.255  68.073  1.00  0.00    -0.101 A  
HETATM   19  C   UNL     1      -8.791   9.259  67.533  1.00  0.00    -0.123 A  
HETATM   20  C   UNL     1      -9.513   8.590  69.746  1.00  0.00    -0.166 A  
HETATM   21  C   UNL     1      -9.565   8.435  68.362  1.00  0.00    -0.157 A  
HETATM   22  C   UNL     1      -7.936  10.396  69.467  1.00  0.00    -0.152 A  
HETATM   23  C   UNL     1      -8.692   9.566  70.299  1.00  0.00    -0.270 A  
BRANCH  21  24
HETATM   24  C   UNL     1     -10.444   7.452  67.803  1.00  0.00    -0.298 C  
HETATM   25  C   UNL     1     -11.135   6.601  67.312  1.00  0.00    -0.418 C  
ENDBRANCH  21  24
ENDBRANCH  16  18
ENDBRANCH  11  16
BRANCH  13  26
HETATM   26  O   UNL     1     -11.352  14.165  66.541  1.00  0.00    -0.321 OA 
BRANCH  26  27
HETATM   27  C   UNL     1     -12.140  13.375  67.431  1.00  0.00    -0.293 C  
BRANCH  27  28
HETATM   28  C   UNL     1     -12.111  13.948  68.844  1.00  0.00    -0.319 C  
BRANCH  28  29
HETATM   29  O   UNL     1     -12.129  12.850  69.762  1.00  0.00    -0.299 OA 
HETATM   30  C   UNL     1     -12.142  11.597  69.097  1.00  0.00    -0.251 C  
ENDBRANCH  28  29
ENDBRANCH  27  28
ENDBRANCH  26  27
ENDBRANCH  13  26
ENDBRANCH   5   6
ENDBRANCH   4   5
ENDBRANCH   3   4
ENDBRANCH   2   3
TORSDOF 11
ENDMDL
MODEL      150
REMARK 921   NORMALIZED FREE ENERGY PREDICTED BY IDOCK:   -4.27 KCAL/MOL
REMARK 922        TOTAL FREE ENERGY PREDICTED BY IDOCK:   -8.15 KCAL/MOL
REMARK 923 INTER-LIGAND FREE ENERGY PREDICTED BY IDOCK:   -6.95 KCAL/MOL
REMARK 924 INTRA-LIGAND FREE ENERGY PREDICTED BY IDOCK:   -1.20 KCAL/MOL
REMARK 927      BINDING AFFINITY PREDICTED BY RF-SCORE:    0.00 PKD
ROOT
HETATM    1  C   UNL     1      -9.876   5.229  66.170  1.00  0.00    -0.165 C  
HETATM    2  O   UNL     1     -11.087   5.950  66.363  1.00  0.00    -0.140 OA 
ENDROOT
BRANCH   2   3
HETATM    3  C   UNL     1     -11.207   6.397  67.710  1.00  0.00    -0.152 C  
BRANCH   3   4
HETATM    4  C   UNL     1     -10.137   7.442  68.016  1.00  0.00    -0.179 C  
BRANCH   4   5
HETATM    5  O   UNL     1     -10.697   8.711  67.697  1.00  0.00    -0.224 OA 
BRANCH   5   6
HETATM    6  C   UNL     1      -9.958   9.847  67.823  1.00  0.00    -0.165 A  
HETATM    7  C   UNL     1      -8.707   9.872  68.453  1.00  0.00    -0.120 A  
HETATM    8  C   UNL     1      -7.969  11.037  68.596  1.00  0.00    -0.143 A  
HETATM    9  C   UNL     1      -8.461  12.235  68.062  1.00  0.00    -0.171 A  
HETATM   10  C   UNL     1      -9.717  12.210  67.395  1.00  0.00    -0.180 A  
HETATM   11  C   UNL     1      -7.629  13.364  68.244  1.00  0.00    -0.135 A  
HETATM   12  N   UNL     1      -6.468  13.276  68.920  1.00  0.00    -0.094 NA 
HETATM   13  C   UNL     1     -10.475  11.036  67.289  1.00  0.00    -0.231 A  
HETATM   14  N   UNL     1      -6.808  10.947  69.244  1.00  0.00    -0.092 NA 
HETATM   15  C   UNL     1      -6.114  12.077  69.384  1.00  0.00    -0.098 A  
BRANCH  11  16
HETATM   16  N   UNL     1      -7.988  14.602  67.649  1.00  0.00    -0.163 NA 
HETATM   17  H   UNL     1      -7.445  14.858  66.825  1.00  0.00     0.000 HD 
BRANCH  16  18
HETATM   18  C   UNL     1      -8.985  15.535  68.024  1.00  0.00    -0.174 A  
HETATM   19  C   UNL     1      -9.206  16.664  67.216  1.00  0.00    -0.228 A  
HETATM   20  C   UNL     1     -10.769  17.576  68.825  1.00  0.00    -0.134 A  
HETATM   21  C   UNL     1     -10.088  17.679  67.614  1.00  0.00    -0.339 A  
HETATM   22  C   UNL     1      -9.674  15.465  69.243  1.00  0.00    -0.268 A  
HETATM   23  C   UNL     1     -10.568  16.465  69.637  1.00  0.00    -0.307 A  
BRANCH  21  24
HETATM   24  C   UNL     1     -10.275  18.845  66.805  1.00  0.00    -0.451 C  
HETATM   25  C   UNL     1     -10.469  19.795  66.096  1.00  0.00    -0.613 C  
ENDBRANCH  21  24
ENDBRANCH  16  18
ENDBRANCH  11  16
BRANCH  13  26
HETATM   26  O   UNL     1     -11.677  11.234  66.647  1.00  0.00    -0.368 OA 
BRANCH  26  27
HETATM   27  C   UNL     1     -12.014  12.569  66.271  1.00  0.00    -0.343 C  
BRANCH  27  28
HETATM   28  C   UNL     1     -12.164  12.689  64.758  1.00  0.00    -0.465 C  
BRANCH  28  29
HETATM   29  O   UNL     1     -10.894  13.075  64.223  1.00  0.00    -0.363 OA 
HETATM   30  C   UNL     1     -10.257  12.010  63.536  1.00  0.00    -0.450 C  
ENDBRANCH  28  29
ENDBRANCH  27  28
ENDBRANCH  26  27
ENDBRANCH  13  26
ENDBRANCH   5   6
ENDBRANCH   4   5
ENDBRANCH   3   4
ENDBRANCH   2   3
TORSDOF 11
ENDMDL
MODEL      151
REMARK 921   NORMALIZED FREE ENERGY PREDICTED BY IDOCK:   -4.25 KCAL/MOL
REMARK 922        TOTAL FREE ENERGY PREDICTED BY IDOCK:   -8.12 KCAL/MOL
REMARK 923 INTER-LIGAND FREE ENERGY PREDICTED BY IDOCK:   -7.19 KCAL/MOL
REMARK 924 INTRA-LIGAND FREE ENERGY PREDICTED BY IDOCK:   -0.92 KCAL/MOL
REMARK 927      BINDING AFFINITY PREDICTED BY RF-SCORE:    0.00 PKD
ROOT
HETATM    1  C   UNL     1      -9.695   4.267  69.229  1.00  0.00    -0.170 C  
HETATM    2  O   UNL     1      -9.396   5.640  69.003  1.00  0.00    -0.120 OA 
ENDROOT
BRANCH   2   3
HETATM    3  C   UNL     1     -10.575   6.375  68.683  1.00  0.00    -0.253 C  
BRANCH   3   4
HETATM    4  C   UNL     1     -10.523   7.759  69.324  1.00  0.00    -0.217 C  
BRANCH   4   5
HETATM    5  O   UNL     1     -11.251   8.636  68.472  1.00  0.00     0.234 OA 
BRANCH   5   6
HETATM    6  C   UNL     1     -11.107   9.985  68.580  1.00  0.00    -0.167 A  
HETATM    7  C   UNL     1     -11.750  10.740  69.568  1.00  0.00    -0.384 A  
HETATM    8  C   UNL     1     -11.614  12.117  69.659  1.00  0.00    -0.291 A  
HETATM    9  C   UNL     1     -10.776  12.788  68.758  1.00  0.00    -0.246 A  
HETATM   10  C   UNL     1     -10.098  12.023  67.770  1.00  0.00    -0.199 A  
HETATM   11  C   UNL     1     -10.691  14.188  68.941  1.00  0.00    -0.256 A  
HETATM   12  N   UNL     1     -11.404  14.814  69.896  1.00  0.00    -0.264 NA 
HETATM   13  C   UNL     1     -10.271  10.636  67.661  1.00  0.00    -0.194 A  
HETATM   14  N   UNL     1     -12.301  12.736  70.618  1.00  0.00    -0.345 NA 
HETATM   15  C   UNL     1     -12.170  14.061  70.686  1.00  0.00    -0.372 A  
BRANCH  11  16
HETATM   16  N   UNL     1      -9.789  14.944  68.148  1.00  0.00    -0.215 NA 
HETATM   17  H   UNL     1      -9.602  14.562  67.222  1.00  0.00     0.000 HD 
BRANCH  16  18
HETATM   18  C   UNL     1      -9.107  16.149  68.447  1.00  0.00    -0.199 A  
HETATM   19  C   UNL     1      -9.676  17.374  68.056  1.00  0.00    -0.281 A  
HETATM   20  C   UNL     1      -7.703  18.581  68.773  1.00  0.00    -0.305 A  
HETATM   21  C   UNL     1      -8.980  18.580  68.214  1.00  0.00    -0.332 A  
HETATM   22  C   UNL     1      -7.818  16.180  68.996  1.00  0.00    -0.227 A  
HETATM   23  C   UNL     1      -7.125  17.381  69.172  1.00  0.00    -0.196 A  
BRANCH  21  24
HETATM   24  C   UNL     1      -9.549  19.818  67.772  1.00  0.00    -0.469 C  
HETATM   25  C   UNL     1     -10.012  20.842  67.349  1.00  0.00    -0.355 C  
ENDBRANCH  21  24
ENDBRANCH  16  18
ENDBRANCH  11  16
BRANCH  13  26
HETATM   26  O   UNL     1      -9.562  10.092  66.614  1.00  0.00    -0.171 OA 
BRANCH  26  27
HETATM   27  C   UNL     1      -9.412  10.881  65.435  1.00  0.00    -0.214 C  
BRANCH  27  28
HETATM   28  C   UNL     1      -9.617  10.037  64.181  1.00  0.00    -0.208 C  
BRANCH  28  29
HETATM   29  O   UNL     1      -9.856  10.929  63.088  1.00  0.00    -0.313 OA 
HETATM   30  C   UNL     1     -10.637  12.049  63.473  1.00  0.00    -0.465 C  
ENDBRANCH  28  29
ENDBRANCH  27  28
ENDBRANCH  26  27
ENDBRANCH  13  26
ENDBRANCH   5   6
ENDBRANCH   4   5
ENDBRANCH   3   4
ENDBRANCH   2   3
TORSDOF 11
ENDMDL
MODEL      152
REMARK 921   NORMALIZED FREE ENERGY PREDICTED BY IDOCK:   -4.24 KCAL/MOL
REMARK 922        TOTAL FREE ENERGY PREDICTED BY IDOCK:   -8.10 KCAL/MOL
REMARK 923 INTER-LIGAND FREE ENERGY PREDICTED BY IDOCK:   -6.82 KCAL/MOL
REMARK 924 INTRA-LIGAND FREE ENERGY PREDICTED BY IDOCK:   -1.28 KCAL/MOL
REMARK 927      BINDING AFFINITY PREDICTED BY RF-SCORE:    0.00 PKD
ROOT
HETATM    1  C   UNL     1      -9.511   7.297  73.978  1.00  0.00    -0.251 C  
HETATM    2  O   UNL     1     -10.785   6.776  73.614  1.00  0.00    -0.316 OA 
ENDROOT
BRANCH   2   3
HETATM    3  C   UNL     1     -11.497   7.695  72.791  1.00  0.00    -0.332 C  
BRANCH   3   4
HETATM    4  C   UNL     1     -11.954   7.006  71.507  1.00  0.00    -0.334 C  
BRANCH   4   5
HETATM    5  O   UNL     1     -10.780   6.570  70.832  1.00  0.00    -0.225 OA 
BRANCH   5   6
HETATM    6  C   UNL     1     -10.104   7.412  70.002  1.00  0.00    -0.191 A  
HETATM    7  C   UNL     1      -9.201   8.374  70.470  1.00  0.00    -0.165 A  
HETATM    8  C   UNL     1      -8.531   9.241  69.620  1.00  0.00    -0.140 A  
HETATM    9  C   UNL     1      -8.728   9.139  68.236  1.00  0.00    -0.129 A  
HETATM   10  C   UNL     1      -9.622   8.144  67.754  1.00  0.00    -0.180 A  
HETATM   11  C   UNL     1      -7.989  10.056  67.452  1.00  0.00    -0.106 A  
HETATM   12  N   UNL     1      -7.190  10.978  68.021  1.00  0.00    -0.084 NA 
HETATM   13  C   UNL     1     -10.324   7.297  68.622  1.00  0.00    -0.193 A  
HETATM   14  N   UNL     1      -7.722  10.140  70.179  1.00  0.00    -0.161 NA 
HETATM   15  C   UNL     1      -7.094  10.975  69.351  1.00  0.00    -0.128 A  
BRANCH  11  16
HETATM   16  N   UNL     1      -8.037   9.964  66.037  1.00  0.00    -0.117 NA 
HETATM   17  H   UNL     1      -7.400   9.283  65.626  1.00  0.00     0.000 HD 
BRANCH  16  18
HETATM   18  C   UNL     1      -8.835  10.675  65.107  1.00  0.00    -0.193 A  
HETATM   19  C   UNL     1      -9.817  11.562  65.583  1.00  0.00    -0.269 A  
HETATM   20  C   UNL     1     -10.641  11.939  63.337  1.00  0.00    -0.485 A  
HETATM   21  C   UNL     1     -10.715  12.186  64.706  1.00  0.00    -0.342 A  
HETATM   22  C   UNL     1      -8.792  10.436  63.726  1.00  0.00    -0.222 A  
HETATM   23  C   UNL     1      -9.674  11.069  62.846  1.00  0.00    -0.353 A  
BRANCH  21  24
HETATM   24  C   UNL     1     -11.740  13.054  65.204  1.00  0.00    -0.379 C  
HETATM   25  C   UNL     1     -12.630  13.736  65.635  1.00  0.00    -0.551 C  
ENDBRANCH  21  24
ENDBRANCH  16  18
ENDBRANCH  11  16
BRANCH  13  26
HETATM   26  O   UNL     1     -11.170   6.437  67.959  1.00  0.00    -0.311 OA 
BRANCH  26  27
HETATM   27  C   UNL     1     -10.779   5.995  66.659  1.00  0.00    -0.244 C  
BRANCH  27  28
HETATM   28  C   UNL     1     -10.011   4.680  66.736  1.00  0.00    -0.225 C  
BRANCH  28  29
HETATM   29  O   UNL     1      -8.614   4.988  66.717  1.00  0.00    -0.110 OA 
HETATM   30  C   UNL     1      -7.945   4.512  67.873  1.00  0.00    -0.088 C  
ENDBRANCH  28  29
ENDBRANCH  27  28
ENDBRANCH  26  27
ENDBRANCH  13  26
ENDBRANCH   5   6
ENDBRANCH   4   5
ENDBRANCH   3   4
ENDBRANCH   2   3
TORSDOF 11
ENDMDL
MODEL      153
REMARK 921   NORMALIZED FREE ENERGY PREDICTED BY IDOCK:   -4.24 KCAL/MOL
REMARK 922        TOTAL FREE ENERGY PREDICTED BY IDOCK:   -8.10 KCAL/MOL
REMARK 923 INTER-LIGAND FREE ENERGY PREDICTED BY IDOCK:   -6.99 KCAL/MOL
REMARK 924 INTRA-LIGAND FREE ENERGY PREDICTED BY IDOCK:   -1.11 KCAL/MOL
REMARK 927      BINDING AFFINITY PREDICTED BY RF-SCORE:    0.00 PKD
ROOT
HETATM    1  C   UNL     1     -10.268  19.681  66.580  1.00  0.00    -0.465 C  
HETATM    2  O   UNL     1      -9.081  19.051  67.048  1.00  0.00    -0.281 OA 
ENDROOT
BRANCH   2   3
HETATM    3  C   UNL     1      -9.354  18.212  68.167  1.00  0.00    -0.288 C  
BRANCH   3   4
HETATM    4  C   UNL     1     -10.442  17.201  67.814  1.00  0.00    -0.362 C  
BRANCH   4   5
HETATM    5  O   UNL     1     -10.239  16.067  68.649  1.00  0.00    -0.218 OA 
BRANCH   5   6
HETATM    6  C   UNL     1      -9.608  14.959  68.174  1.00  0.00    -0.210 A  
HETATM    7  C   UNL     1      -8.274  14.659  68.475  1.00  0.00    -0.152 A  
HETATM    8  C   UNL     1      -7.631  13.539  67.971  1.00  0.00    -0.143 A  
HETATM    9  C   UNL     1      -8.340  12.645  67.158  1.00  0.00    -0.172 A  
HETATM   10  C   UNL     1      -9.703  12.929  66.873  1.00  0.00    -0.240 A  
HETATM   11  C   UNL     1      -7.603  11.526  66.706  1.00  0.00    -0.126 A  
HETATM   12  N   UNL     1      -6.302  11.372  67.016  1.00  0.00    -0.108 NA 
HETATM   13  C   UNL     1     -10.335  14.084  67.355  1.00  0.00    -0.259 A  
HETATM   14  N   UNL     1      -6.349  13.373  68.296  1.00  0.00    -0.090 NA 
HETATM   15  C   UNL     1      -5.741  12.298  67.795  1.00  0.00    -0.097 A  
BRANCH  11  16
HETATM   16  N   UNL     1      -8.259  10.508  65.965  1.00  0.00    -0.145 NA 
HETATM   17  H   UNL     1      -8.299  10.664  64.958  1.00  0.00     0.000 HD 
BRANCH  16  18
HETATM   18  C   UNL     1      -8.865   9.308  66.410  1.00  0.00    -0.146 A  
HETATM   19  C   UNL     1      -8.255   8.078  66.108  1.00  0.00    -0.116 A  
HETATM   20  C   UNL     1     -10.131   6.858  67.033  1.00  0.00    -0.287 A  
HETATM   21  C   UNL     1      -8.884   6.862  66.413  1.00  0.00    -0.155 A  
HETATM   22  C   UNL     1     -10.126   9.272  67.023  1.00  0.00    -0.313 A  
HETATM   23  C   UNL     1     -10.749   8.064  67.346  1.00  0.00    -0.260 A  
BRANCH  21  24
HETATM   24  C   UNL     1      -8.274   5.615  66.062  1.00  0.00    -0.113 C  
HETATM   25  C   UNL     1      -7.758   4.588  65.715  1.00  0.00    -0.094 C  
ENDBRANCH  21  24
ENDBRANCH  16  18
ENDBRANCH  11  16
BRANCH  13  26
HETATM   26  O   UNL     1     -11.639  14.195  66.929  1.00  0.00    -0.351 OA 
BRANCH  26  27
HETATM   27  C   UNL     1     -12.063  13.344  65.864  1.00  0.00    -0.439 C  
BRANCH  27  28
HETATM   28  C   UNL     1     -12.600  14.159  64.692  1.00  0.00    -0.258 C  
BRANCH  28  29
HETATM   29  O   UNL     1     -12.175  13.520  63.485  1.00  0.00    -0.643 OA 
HETATM   30  C   UNL     1     -12.631  12.179  63.401  1.00  0.00    -0.463 C  
ENDBRANCH  28  29
ENDBRANCH  27  28
ENDBRANCH  26  27
ENDBRANCH  13  26
ENDBRANCH   5   6
ENDBRANCH   4   5
ENDBRANCH   3   4
ENDBRANCH   2   3
TORSDOF 11
ENDMDL
MODEL      154
REMARK 921   NORMALIZED FREE ENERGY PREDICTED BY IDOCK:   -4.24 KCAL/MOL
REMARK 922        TOTAL FREE ENERGY PREDICTED BY IDOCK:   -8.10 KCAL/MOL
REMARK 923 INTER-LIGAND FREE ENERGY PREDICTED BY IDOCK:   -6.94 KCAL/MOL
REMARK 924 INTRA-LIGAND FREE ENERGY PREDICTED BY IDOCK:   -1.15 KCAL/MOL
REMARK 927      BINDING AFFINITY PREDICTED BY RF-SCORE:    0.00 PKD
ROOT
HETATM    1  C   UNL     1      -9.816   5.137  66.128  1.00  0.00    -0.185 C  
HETATM    2  O   UNL     1     -11.011   5.899  66.251  1.00  0.00    -0.106 OA 
ENDROOT
BRANCH   2   3
HETATM    3  C   UNL     1     -11.192   6.354  67.588  1.00  0.00    -0.166 C  
BRANCH   3   4
HETATM    4  C   UNL     1     -10.109   7.367  67.951  1.00  0.00    -0.178 C  
BRANCH   4   5
HETATM    5  O   UNL     1     -10.624   8.655  67.633  1.00  0.00    -0.248 OA 
BRANCH   5   6
HETATM    6  C   UNL     1      -9.887   9.774  67.869  1.00  0.00    -0.149 A  
HETATM    7  C   UNL     1      -8.620   9.736  68.464  1.00  0.00    -0.120 A  
HETATM    8  C   UNL     1      -7.883  10.883  68.719  1.00  0.00    -0.132 A  
HETATM    9  C   UNL     1      -8.396  12.131  68.340  1.00  0.00    -0.143 A  
HETATM   10  C   UNL     1      -9.669  12.172  67.709  1.00  0.00    -0.197 A  
HETATM   11  C   UNL     1      -7.564  13.237  68.628  1.00  0.00    -0.094 A  
HETATM   12  N   UNL     1      -6.385  13.082  69.259  1.00  0.00    -0.102 NA 
HETATM   13  C   UNL     1     -10.424  11.012  67.489  1.00  0.00    -0.209 A  
HETATM   14  N   UNL     1      -6.705  10.729  69.322  1.00  0.00    -0.070 NA 
HETATM   15  C   UNL     1      -6.013  11.840  69.572  1.00  0.00    -0.092 A  
BRANCH  11  16
HETATM   16  N   UNL     1      -7.945  14.533  68.189  1.00  0.00    -0.123 NA 
HETATM   17  H   UNL     1      -7.288  14.984  67.554  1.00  0.00     0.000 HD 
BRANCH  16  18
HETATM   18  C   UNL     1      -9.098  15.294  68.498  1.00  0.00    -0.192 A  
HETATM   19  C   UNL     1      -9.620  15.249  69.803  1.00  0.00    -0.140 A  
HETATM   20  C   UNL     1     -11.535  16.575  69.140  1.00  0.00    -0.084 A  
HETATM   21  C   UNL     1     -10.831  15.881  70.122  1.00  0.00    -0.359 A  
HETATM   22  C   UNL     1      -9.835  15.989  67.530  1.00  0.00    -0.235 A  
HETATM   23  C   UNL     1     -11.033  16.636  67.845  1.00  0.00    -0.276 A  
BRANCH  21  24
HETATM   24  C   UNL     1     -11.377  15.793  71.443  1.00  0.00    -0.438 C  
HETATM   25  C   UNL     1     -11.882  15.743  72.531  1.00  0.00    -0.605 C  
ENDBRANCH  21  24
ENDBRANCH  16  18
ENDBRANCH  11  16
BRANCH  13  26
HETATM   26  O   UNL     1     -11.644  11.274  66.907  1.00  0.00    -0.464 OA 
BRANCH  26  27
HETATM   27  C   UNL     1     -11.962  12.635  66.618  1.00  0.00    -0.312 C  
BRANCH  27  28
HETATM   28  C   UNL     1     -12.325  12.812  65.147  1.00  0.00    -0.496 C  
BRANCH  28  29
HETATM   29  O   UNL     1     -12.931  14.099  64.999  1.00  0.00    -0.721 OA 
HETATM   30  C   UNL     1     -12.094  15.008  64.303  1.00  0.00    -0.306 C  
ENDBRANCH  28  29
ENDBRANCH  27  28
ENDBRANCH  26  27
ENDBRANCH  13  26
ENDBRANCH   5   6
ENDBRANCH   4   5
ENDBRANCH   3   4
ENDBRANCH   2   3
TORSDOF 11
ENDMDL
MODEL      155
REMARK 921   NORMALIZED FREE ENERGY PREDICTED BY IDOCK:   -4.23 KCAL/MOL
REMARK 922        TOTAL FREE ENERGY PREDICTED BY IDOCK:   -8.09 KCAL/MOL
REMARK 923 INTER-LIGAND FREE ENERGY PREDICTED BY IDOCK:   -7.36 KCAL/MOL
REMARK 924 INTRA-LIGAND FREE ENERGY PREDICTED BY IDOCK:   -0.73 KCAL/MOL
REMARK 927      BINDING AFFINITY PREDICTED BY RF-SCORE:    0.00 PKD
ROOT
HETATM    1  C   UNL     1      -9.876   6.397  67.701  1.00  0.00    -0.121 C  
HETATM    2  O   UNL     1      -8.932   7.046  66.857  1.00  0.00    -0.119 OA 
ENDROOT
BRANCH   2   3
HETATM    3  C   UNL     1      -9.111   8.459  66.880  1.00  0.00    -0.148 C  
BRANCH   3   4
HETATM    4  C   UNL     1     -10.550   8.801  67.256  1.00  0.00    -0.233 C  
BRANCH   4   5
HETATM    5  O   UNL     1     -10.486   9.782  68.285  1.00  0.00    -0.195 OA 
BRANCH   5   6
HETATM    6  C   UNL     1      -9.801  10.943  68.095  1.00  0.00    -0.175 A  
HETATM    7  C   UNL     1      -8.469  11.110  68.490  1.00  0.00    -0.156 A  
HETATM    8  C   UNL     1      -7.784  12.303  68.312  1.00  0.00    -0.143 A  
HETATM    9  C   UNL     1      -8.424  13.378  67.681  1.00  0.00    -0.187 A  
HETATM   10  C   UNL     1      -9.768  13.204  67.251  1.00  0.00    -0.230 A  
HETATM   11  C   UNL     1      -7.639  14.544  67.531  1.00  0.00    -0.190 A  
HETATM   12  N   UNL     1      -6.380  14.607  68.004  1.00  0.00    -0.142 NA 
HETATM   13  C   UNL     1     -10.465  12.008  67.470  1.00  0.00    -0.212 A  
HETATM   14  N   UNL     1      -6.530  12.359  68.759  1.00  0.00    -0.077 NA 
HETATM   15  C   UNL     1      -5.887  13.515  68.591  1.00  0.00    -0.085 A  
BRANCH  11  16
HETATM   16  N   UNL     1      -8.159  15.651  66.811  1.00  0.00    -0.250 NA 
HETATM   17  H   UNL     1      -8.310  15.487  65.816  1.00  0.00     0.000 HD 
BRANCH  16  18
HETATM   18  C   UNL     1      -8.502  16.949  67.263  1.00  0.00    -0.196 A  
HETATM   19  C   UNL     1      -7.494  17.785  67.776  1.00  0.00    -0.206 A  
HETATM   20  C   UNL     1      -9.129  19.451  68.420  1.00  0.00    -0.410 A  
HETATM   21  C   UNL     1      -7.804  19.024  68.353  1.00  0.00    -0.372 A  
HETATM   22  C   UNL     1      -9.826  17.399  67.356  1.00  0.00    -0.281 A  
HETATM   23  C   UNL     1     -10.140  18.641  67.914  1.00  0.00    -0.407 A  
BRANCH  21  24
HETATM   24  C   UNL     1      -6.775  19.849  68.912  1.00  0.00    -0.357 C  
HETATM   25  C   UNL     1      -5.930  20.525  69.432  1.00  0.00    -0.375 C  
ENDBRANCH  21  24
ENDBRANCH  16  18
ENDBRANCH  11  16
BRANCH  13  26
HETATM   26  O   UNL     1     -11.765  12.059  67.019  1.00  0.00    -0.510 OA 
BRANCH  26  27
HETATM   27  C   UNL     1     -12.323  13.345  66.751  1.00  0.00    -0.231 C  
BRANCH  27  28
HETATM   28  C   UNL     1     -12.667  13.496  65.273  1.00  0.00    -0.427 C  
BRANCH  28  29
HETATM   29  O   UNL     1     -12.495  12.218  64.652  1.00  0.00    -0.432 OA 
HETATM   30  C   UNL     1     -11.544  12.258  63.601  1.00  0.00    -0.496 C  
ENDBRANCH  28  29
ENDBRANCH  27  28
ENDBRANCH  26  27
ENDBRANCH  13  26
ENDBRANCH   5   6
ENDBRANCH   4   5
ENDBRANCH   3   4
ENDBRANCH   2   3
TORSDOF 11
ENDMDL
MODEL      156
REMARK 921   NORMALIZED FREE ENERGY PREDICTED BY IDOCK:   -4.22 KCAL/MOL
REMARK 922        TOTAL FREE ENERGY PREDICTED BY IDOCK:   -8.08 KCAL/MOL
REMARK 923 INTER-LIGAND FREE ENERGY PREDICTED BY IDOCK:   -7.19 KCAL/MOL
REMARK 924 INTRA-LIGAND FREE ENERGY PREDICTED BY IDOCK:   -0.88 KCAL/MOL
REMARK 927      BINDING AFFINITY PREDICTED BY RF-SCORE:    0.00 PKD
ROOT
HETATM    1  C   UNL     1     -12.150   8.636  71.606  1.00  0.00    -0.326 C  
HETATM    2  O   UNL     1     -12.072  10.048  71.758  1.00  0.00    -0.373 OA 
ENDROOT
BRANCH   2   3
HETATM    3  C   UNL     1     -12.581  10.717  70.608  1.00  0.00    -0.365 C  
BRANCH   3   4
HETATM    4  C   UNL     1     -11.743  10.366  69.381  1.00  0.00    -0.160 C  
BRANCH   4   5
HETATM    5  O   UNL     1     -12.144  11.250  68.340  1.00  0.00    -0.598 OA 
BRANCH   5   6
HETATM    6  C   UNL     1     -11.479  12.419  68.128  1.00  0.00    -0.318 A  
HETATM    7  C   UNL     1     -11.922  13.646  68.636  1.00  0.00    -0.395 A  
HETATM    8  C   UNL     1     -11.251  14.835  68.399  1.00  0.00    -0.284 A  
HETATM    9  C   UNL     1     -10.062  14.820  67.657  1.00  0.00    -0.227 A  
HETATM   10  C   UNL     1      -9.592  13.572  67.164  1.00  0.00    -0.241 A  
HETATM   11  C   UNL     1      -9.443  16.079  67.483  1.00  0.00    -0.223 A  
HETATM   12  N   UNL     1      -9.996  17.205  67.972  1.00  0.00    -0.282 NA 
HETATM   13  C   UNL     1     -10.297  12.380  67.375  1.00  0.00    -0.207 A  
HETATM   14  N   UNL     1     -11.784  15.948  68.903  1.00  0.00    -0.396 NA 
HETATM   15  C   UNL     1     -11.134  17.085  68.657  1.00  0.00    -0.128 A  
BRANCH  11  16
HETATM   16  N   UNL     1      -8.182  16.156  66.837  1.00  0.00    -0.211 NA 
HETATM   17  H   UNL     1      -7.937  15.347  66.268  1.00  0.00     0.000 HD 
BRANCH  16  18
HETATM   18  C   UNL     1      -7.210  17.186  66.863  1.00  0.00    -0.202 A  
HETATM   19  C   UNL     1      -6.772  17.686  68.102  1.00  0.00    -0.205 A  
HETATM   20  C   UNL     1      -5.468  19.409  67.008  1.00  0.00    -0.167 A  
HETATM   21  C   UNL     1      -5.911  18.791  68.175  1.00  0.00    -0.214 A  
HETATM   22  C   UNL     1      -6.757  17.836  65.706  1.00  0.00    -0.223 A  
HETATM   23  C   UNL     1      -5.885  18.926  65.772  1.00  0.00    -0.207 A  
BRANCH  21  24
HETATM   24  C   UNL     1      -5.506  19.320  69.442  1.00  0.00    -0.219 C  
HETATM   25  C   UNL     1      -5.195  19.722  70.530  1.00  0.00    -0.244 C  
ENDBRANCH  21  24
ENDBRANCH  16  18
ENDBRANCH  11  16
BRANCH  13  26
HETATM   26  O   UNL     1      -9.698  11.293  66.779  1.00  0.00    -0.189 OA 
BRANCH  26  27
HETATM   27  C   UNL     1      -8.280  11.173  66.895  1.00  0.00    -0.149 C  
BRANCH  27  28
HETATM   28  C   UNL     1      -7.903  10.118  67.930  1.00  0.00    -0.101 C  
BRANCH  28  29
HETATM   29  O   UNL     1      -8.107  10.687  69.227  1.00  0.00    -0.153 OA 
HETATM   30  C   UNL     1      -8.291   9.694  70.223  1.00  0.00    -0.186 C  
ENDBRANCH  28  29
ENDBRANCH  27  28
ENDBRANCH  26  27
ENDBRANCH  13  26
ENDBRANCH   5   6
ENDBRANCH   4   5
ENDBRANCH   3   4
ENDBRANCH   2   3
TORSDOF 11
ENDMDL
MODEL      157
REMARK 921   NORMALIZED FREE ENERGY PREDICTED BY IDOCK:   -4.22 KCAL/MOL
REMARK 922        TOTAL FREE ENERGY PREDICTED BY IDOCK:   -8.07 KCAL/MOL
REMARK 923 INTER-LIGAND FREE ENERGY PREDICTED BY IDOCK:   -7.71 KCAL/MOL
REMARK 924 INTRA-LIGAND FREE ENERGY PREDICTED BY IDOCK:   -0.35 KCAL/MOL
REMARK 927      BINDING AFFINITY PREDICTED BY RF-SCORE:    0.00 PKD
ROOT
HETATM    1  C   UNL     1      -8.559  17.044  68.883  1.00  0.00    -0.196 C  
HETATM    2  O   UNL     1      -9.918  17.002  69.304  1.00  0.00    -0.247 OA 
ENDROOT
BRANCH   2   3
HETATM    3  C   UNL     1     -10.279  15.693  69.736  1.00  0.00    -0.300 C  
BRANCH   3   4
HETATM    4  C   UNL     1     -11.499  15.758  70.650  1.00  0.00    -0.390 C  
BRANCH   4   5
HETATM    5  O   UNL     1     -12.445  14.823  70.144  1.00  0.00    -0.329 OA 
BRANCH   5   6
HETATM    6  C   UNL     1     -12.137  14.032  69.080  1.00  0.00    -0.337 A  
HETATM    7  C   UNL     1     -12.156  14.497  67.760  1.00  0.00    -0.269 A  
HETATM    8  C   UNL     1     -11.861  13.680  66.679  1.00  0.00    -0.409 A  
HETATM    9  C   UNL     1     -11.492  12.347  66.903  1.00  0.00    -0.423 A  
HETATM   10  C   UNL     1     -11.443  11.877  68.244  1.00  0.00    -0.372 A  
HETATM   11  C   UNL     1     -11.195  11.599  65.740  1.00  0.00    -0.230 A  
HETATM   12  N   UNL     1     -11.304  12.141  64.512  1.00  0.00    -0.322 NA 
HETATM   13  C   UNL     1     -11.780  12.699  69.328  1.00  0.00    -0.322 A  
HETATM   14  N   UNL     1     -11.945  14.221  65.464  1.00  0.00    -0.375 NA 
HETATM   15  C   UNL     1     -11.670  13.421  64.434  1.00  0.00    -0.394 A  
BRANCH  11  16
HETATM   16  N   UNL     1     -10.709  10.271  65.866  1.00  0.00     0.001 NA 
HETATM   17  H   UNL     1     -11.417   9.571  66.087  1.00  0.00     0.000 HD 
BRANCH  16  18
HETATM   18  C   UNL     1      -9.392   9.768  65.730  1.00  0.00    -0.221 A  
HETATM   19  C   UNL     1      -8.553  10.304  64.737  1.00  0.00    -0.193 A  
HETATM   20  C   UNL     1      -6.843   8.658  65.219  1.00  0.00    -0.071 A  
HETATM   21  C   UNL     1      -7.290   9.751  64.481  1.00  0.00    -0.135 A  
HETATM   22  C   UNL     1      -8.921   8.661  66.449  1.00  0.00    -0.197 A  
HETATM   23  C   UNL     1      -7.656   8.117  66.210  1.00  0.00    -0.090 A  
BRANCH  21  24
HETATM   24  C   UNL     1      -6.460  10.275  63.438  1.00  0.00    -0.113 C  
HETATM   25  C   UNL     1      -5.795  10.685  62.527  1.00  0.00    -0.156 C  
ENDBRANCH  21  24
ENDBRANCH  16  18
ENDBRANCH  11  16
BRANCH  13  26
HETATM   26  O   UNL     1     -11.711  12.042  70.536  1.00  0.00    -0.227 OA 
BRANCH  26  27
HETATM   27  C   UNL     1     -12.904  11.432  71.028  1.00  0.00    -0.286 C  
BRANCH  27  28
HETATM   28  C   UNL     1     -12.604  10.083  71.672  1.00  0.00    -0.427 C  
BRANCH  28  29
HETATM   29  O   UNL     1     -13.783   9.278  71.571  1.00  0.00    -0.378 OA 
HETATM   30  C   UNL     1     -13.481   7.894  71.497  1.00  0.00    -0.306 C  
ENDBRANCH  28  29
ENDBRANCH  27  28
ENDBRANCH  26  27
ENDBRANCH  13  26
ENDBRANCH   5   6
ENDBRANCH   4   5
ENDBRANCH   3   4
ENDBRANCH   2   3
TORSDOF 11
ENDMDL
MODEL      158
REMARK 921   NORMALIZED FREE ENERGY PREDICTED BY IDOCK:   -4.21 KCAL/MOL
REMARK 922        TOTAL FREE ENERGY PREDICTED BY IDOCK:   -8.05 KCAL/MOL
REMARK 923 INTER-LIGAND FREE ENERGY PREDICTED BY IDOCK:   -7.55 KCAL/MOL
REMARK 924 INTRA-LIGAND FREE ENERGY PREDICTED BY IDOCK:   -0.49 KCAL/MOL
REMARK 927      BINDING AFFINITY PREDICTED BY RF-SCORE:    0.00 PKD
ROOT
HETATM    1  C   UNL     1      -8.155   7.523  67.780  1.00  0.00    -0.119 C  
HETATM    2  O   UNL     1      -8.823   7.343  66.536  1.00  0.00    -0.135 OA 
ENDROOT
BRANCH   2   3
HETATM    3  C   UNL     1      -9.991   8.155  66.460  1.00  0.00    -0.232 C  
BRANCH   3   4
HETATM    4  C   UNL     1      -9.650   9.513  65.854  1.00  0.00    -0.261 C  
BRANCH   4   5
HETATM    5  O   UNL     1     -10.841  10.293  65.891  1.00  0.00     0.012 OA 
BRANCH   5   6
HETATM    6  C   UNL     1     -10.797  11.637  65.680  1.00  0.00    -0.276 A  
HETATM    7  C   UNL     1     -11.757  12.317  64.922  1.00  0.00    -0.409 A  
HETATM    8  C   UNL     1     -11.694  13.683  64.694  1.00  0.00    -0.388 A  
HETATM    9  C   UNL     1     -10.658  14.431  65.268  1.00  0.00    -0.398 A  
HETATM   10  C   UNL     1      -9.697  13.750  66.064  1.00  0.00    -0.255 A  
HETATM   11  C   UNL     1     -10.689  15.817  64.991  1.00  0.00    -0.421 A  
HETATM   12  N   UNL     1     -11.636  16.352  64.197  1.00  0.00    -1.029 NA 
HETATM   13  C   UNL     1      -9.746  12.363  66.257  1.00  0.00    -0.246 A  
HETATM   14  N   UNL     1     -12.644  14.218  63.927  1.00  0.00    -0.787 NA 
HETATM   15  C   UNL     1     -12.565  15.530  63.706  1.00  0.00     0.828 A  
BRANCH  11  16
HETATM   16  N   UNL     1      -9.746  16.677  65.612  1.00  0.00    -0.548 NA 
HETATM   17  H   UNL     1      -8.929  16.904  65.046  1.00  0.00     0.000 HD 
BRANCH  16  18
HETATM   18  C   UNL     1      -9.766  17.269  66.899  1.00  0.00    -0.273 A  
HETATM   19  C   UNL     1     -10.356  16.570  67.966  1.00  0.00    -0.294 A  
HETATM   20  C   UNL     1     -10.078  18.474  69.437  1.00  0.00     0.097 A  
HETATM   21  C   UNL     1     -10.515  17.168  69.225  1.00  0.00    -0.267 A  
HETATM   22  C   UNL     1      -9.347  18.585  67.139  1.00  0.00    -0.280 A  
HETATM   23  C   UNL     1      -9.486  19.181  68.396  1.00  0.00    -0.425 A  
BRANCH  21  24
HETATM   24  C   UNL     1     -11.157  16.464  70.294  1.00  0.00    -0.267 C  
HETATM   25  C   UNL     1     -11.665  15.905  71.227  1.00  0.00    -0.504 C  
ENDBRANCH  21  24
ENDBRANCH  16  18
ENDBRANCH  11  16
BRANCH  13  26
HETATM   26  O   UNL     1      -8.700  11.895  67.021  1.00  0.00    -0.169 OA 
BRANCH  26  27
HETATM   27  C   UNL     1      -8.152  12.772  68.004  1.00  0.00    -0.162 C  
BRANCH  27  28
HETATM   28  C   UNL     1      -6.898  12.175  68.634  1.00  0.00    -0.089 C  
BRANCH  28  29
HETATM   29  O   UNL     1      -6.356  13.147  69.533  1.00  0.00    -0.110 OA 
HETATM   30  C   UNL     1      -5.746  12.548  70.665  1.00  0.00    -0.146 C  
ENDBRANCH  28  29
ENDBRANCH  27  28
ENDBRANCH  26  27
ENDBRANCH  13  26
ENDBRANCH   5   6
ENDBRANCH   4   5
ENDBRANCH   3   4
ENDBRANCH   2   3
TORSDOF 11
ENDMDL
MODEL      159
REMARK 921   NORMALIZED FREE ENERGY PREDICTED BY IDOCK:   -4.21 KCAL/MOL
REMARK 922        TOTAL FREE ENERGY PREDICTED BY IDOCK:   -8.05 KCAL/MOL
REMARK 923 INTER-LIGAND FREE ENERGY PREDICTED BY IDOCK:   -7.11 KCAL/MOL
REMARK 924 INTRA-LIGAND FREE ENERGY PREDICTED BY IDOCK:   -0.94 KCAL/MOL
REMARK 927      BINDING AFFINITY PREDICTED BY RF-SCORE:    0.00 PKD
ROOT
HETATM    1  C   UNL     1     -12.457  13.250  63.358  1.00  0.00    -0.199 C  
HETATM    2  O   UNL     1     -12.590  12.893  64.729  1.00  0.00    -0.570 OA 
ENDROOT
BRANCH   2   3
HETATM    3  C   UNL     1     -11.601  13.540  65.525  1.00  0.00    -0.320 C  
BRANCH   3   4
HETATM    4  C   UNL     1     -12.210  14.008  66.844  1.00  0.00    -0.380 C  
BRANCH   4   5
HETATM    5  O   UNL     1     -11.442  13.417  67.886  1.00  0.00    -0.279 OA 
BRANCH   5   6
HETATM    6  C   UNL     1     -10.163  13.821  68.119  1.00  0.00    -0.253 A  
HETATM    7  C   UNL     1      -9.060  12.973  67.961  1.00  0.00    -0.210 A  
HETATM    8  C   UNL     1      -7.762  13.385  68.220  1.00  0.00    -0.141 A  
HETATM    9  C   UNL     1      -7.525  14.707  68.620  1.00  0.00    -0.125 A  
HETATM   10  C   UNL     1      -8.639  15.581  68.754  1.00  0.00    -0.188 A  
HETATM   11  C   UNL     1      -6.168  15.036  68.844  1.00  0.00    -0.089 A  
HETATM   12  N   UNL     1      -5.194  14.116  68.714  1.00  0.00    -0.084 NA 
HETATM   13  C   UNL     1      -9.952  15.145  68.527  1.00  0.00    -0.223 A  
HETATM   14  N   UNL     1      -6.793  12.483  68.069  1.00  0.00    -0.082 NA 
HETATM   15  C   UNL     1      -5.552  12.889  68.333  1.00  0.00    -0.062 A  
BRANCH  11  16
HETATM   16  N   UNL     1      -5.814  16.376  69.150  1.00  0.00    -0.136 NA 
HETATM   17  H   UNL     1      -5.209  16.489  69.963  1.00  0.00     0.000 HD 
BRANCH  16  18
HETATM   18  C   UNL     1      -6.171  17.582  68.497  1.00  0.00    -0.176 A  
HETATM   19  C   UNL     1      -5.934  17.711  67.117  1.00  0.00    -0.163 A  
HETATM   20  C   UNL     1      -6.614  20.035  67.164  1.00  0.00    -0.235 A  
HETATM   21  C   UNL     1      -6.150  18.928  66.456  1.00  0.00    -0.185 A  
HETATM   22  C   UNL     1      -6.625  18.715  69.186  1.00  0.00    -0.289 A  
HETATM   23  C   UNL     1      -6.859  19.926  68.528  1.00  0.00    -0.344 A  
BRANCH  21  24
HETATM   24  C   UNL     1      -5.865  19.062  65.059  1.00  0.00    -0.296 C  
HETATM   25  C   UNL     1      -5.571  19.173  63.900  1.00  0.00    -0.325 C  
ENDBRANCH  21  24
ENDBRANCH  16  18
ENDBRANCH  11  16
BRANCH  13  26
HETATM   26  O   UNL     1     -10.887  16.130  68.754  1.00  0.00    -0.272 OA 
BRANCH  26  27
HETATM   27  C   UNL     1     -10.870  17.269  67.894  1.00  0.00    -0.283 C  
BRANCH  27  28
HETATM   28  C   UNL     1     -10.286  18.485  68.606  1.00  0.00    -0.325 C  
BRANCH  28  29
HETATM   29  O   UNL     1     -10.443  19.614  67.742  1.00  0.00    -0.423 OA 
HETATM   30  C   UNL     1     -10.178  19.292  66.386  1.00  0.00    -0.449 C  
ENDBRANCH  28  29
ENDBRANCH  27  28
ENDBRANCH  26  27
ENDBRANCH  13  26
ENDBRANCH   5   6
ENDBRANCH   4   5
ENDBRANCH   3   4
ENDBRANCH   2   3
TORSDOF 11
ENDMDL
MODEL      160
REMARK 921   NORMALIZED FREE ENERGY PREDICTED BY IDOCK:   -4.20 KCAL/MOL
REMARK 922        TOTAL FREE ENERGY PREDICTED BY IDOCK:   -8.04 KCAL/MOL
REMARK 923 INTER-LIGAND FREE ENERGY PREDICTED BY IDOCK:   -6.60 KCAL/MOL
REMARK 924 INTRA-LIGAND FREE ENERGY PREDICTED BY IDOCK:   -1.44 KCAL/MOL
REMARK 927      BINDING AFFINITY PREDICTED BY RF-SCORE:    0.00 PKD
ROOT
HETATM    1  C   UNL     1     -10.666  17.122  68.476  1.00  0.00    -0.326 C  
HETATM    2  O   UNL     1     -10.724  16.158  69.520  1.00  0.00    -0.265 OA 
ENDROOT
BRANCH   2   3
HETATM    3  C   UNL     1     -12.058  15.698  69.719  1.00  0.00    -0.326 C  
BRANCH   3   4
HETATM    4  C   UNL     1     -12.088  14.173  69.760  1.00  0.00    -0.354 C  
BRANCH   4   5
HETATM    5  O   UNL     1     -10.884  13.719  69.153  1.00  0.00    -0.237 OA 
BRANCH   5   6
HETATM    6  C   UNL     1     -10.906  13.127  67.927  1.00  0.00    -0.242 A  
HETATM    7  C   UNL     1     -11.489  13.728  66.805  1.00  0.00    -0.367 A  
HETATM    8  C   UNL     1     -11.525  13.110  65.564  1.00  0.00    -0.315 A  
HETATM    9  C   UNL     1     -10.927  11.854  65.402  1.00  0.00    -0.352 A  
HETATM   10  C   UNL     1     -10.307  11.252  66.531  1.00  0.00    -0.284 A  
HETATM   11  C   UNL     1     -11.002  11.313  64.098  1.00  0.00    -0.305 A  
HETATM   12  N   UNL     1     -11.642  11.962  63.106  1.00  0.00    -0.250 NA 
HETATM   13  C   UNL     1     -10.309  11.866  67.791  1.00  0.00    -0.198 A  
HETATM   14  N   UNL     1     -12.138  13.762  64.576  1.00  0.00    -0.416 NA 
HETATM   15  C   UNL     1     -12.175  13.151  63.392  1.00  0.00    -0.444 A  
BRANCH  11  16
HETATM   16  N   UNL     1     -10.335  10.095  63.805  1.00  0.00    -0.337 NA 
HETATM   17  H   UNL     1     -10.923   9.262  63.837  1.00  0.00     0.000 HD 
BRANCH  16  18
HETATM   18  C   UNL     1      -8.979   9.858  63.473  1.00  0.00    -0.252 A  
HETATM   19  C   UNL     1      -8.315   8.759  64.047  1.00  0.00    -0.146 A  
HETATM   20  C   UNL     1      -6.210   9.455  63.072  1.00  0.00    -0.095 A  
HETATM   21  C   UNL     1      -6.940   8.561  63.851  1.00  0.00    -0.083 A  
HETATM   22  C   UNL     1      -8.215  10.747  62.705  1.00  0.00    -0.184 A  
HETATM   23  C   UNL     1      -6.849  10.545  62.492  1.00  0.00    -0.129 A  
BRANCH  21  24
HETATM   24  C   UNL     1      -6.264   7.463  64.475  1.00  0.00    -0.037 C  
HETATM   25  C   UNL     1      -5.648   6.573  64.994  1.00  0.00    -0.026 C  
ENDBRANCH  21  24
ENDBRANCH  16  18
ENDBRANCH  11  16
BRANCH  13  26
HETATM   26  O   UNL     1      -9.698  11.099  68.758  1.00  0.00    -0.197 OA 
BRANCH  26  27
HETATM   27  C   UNL     1      -8.275  11.168  68.856  1.00  0.00    -0.104 C  
BRANCH  27  28
HETATM   28  C   UNL     1      -7.736  10.077  69.775  1.00  0.00    -0.168 C  
BRANCH  28  29
HETATM   29  O   UNL     1      -7.615   8.877  69.005  1.00  0.00    -0.082 OA 
HETATM   30  C   UNL     1      -7.091   9.123  67.710  1.00  0.00    -0.079 C  
ENDBRANCH  28  29
ENDBRANCH  27  28
ENDBRANCH  26  27
ENDBRANCH  13  26
ENDBRANCH   5   6
ENDBRANCH   4   5
ENDBRANCH   3   4
ENDBRANCH   2   3
TORSDOF 11
ENDMDL
MODEL      161
REMARK 921   NORMALIZED FREE ENERGY PREDICTED BY IDOCK:   -4.19 KCAL/MOL
REMARK 922        TOTAL FREE ENERGY PREDICTED BY IDOCK:   -8.02 KCAL/MOL
REMARK 923 INTER-LIGAND FREE ENERGY PREDICTED BY IDOCK:   -6.66 KCAL/MOL
REMARK 924 INTRA-LIGAND FREE ENERGY PREDICTED BY IDOCK:   -1.36 KCAL/MOL
REMARK 927      BINDING AFFINITY PREDICTED BY RF-SCORE:    0.00 PKD
ROOT
HETATM    1  C   UNL     1      -8.245  10.177  64.842  1.00  0.00    -0.157 C  
HETATM    2  O   UNL     1      -9.072   9.021  64.892  1.00  0.00    -0.183 OA 
ENDROOT
BRANCH   2   3
HETATM    3  C   UNL     1      -8.875   8.302  66.106  1.00  0.00    -0.167 C  
BRANCH   3   4
HETATM    4  C   UNL     1     -10.217   8.024  66.778  1.00  0.00    -0.297 C  
BRANCH   4   5
HETATM    5  O   UNL     1     -10.257   8.811  67.962  1.00  0.00    -0.194 OA 
BRANCH   5   6
HETATM    6  C   UNL     1     -10.295  10.170  67.891  1.00  0.00    -0.194 A  
HETATM    7  C   UNL     1     -11.285  10.864  67.185  1.00  0.00    -0.258 A  
HETATM    8  C   UNL     1     -11.306  12.248  67.099  1.00  0.00    -0.335 A  
HETATM    9  C   UNL     1     -10.330  12.995  67.771  1.00  0.00    -0.227 A  
HETATM   10  C   UNL     1      -9.340  12.297  68.515  1.00  0.00    -0.101 A  
HETATM   11  C   UNL     1     -10.445  14.398  67.638  1.00  0.00    -0.245 A  
HETATM   12  N   UNL     1     -11.411  14.953  66.881  1.00  0.00    -0.341 NA 
HETATM   13  C   UNL     1      -9.303  10.896  68.564  1.00  0.00    -0.181 A  
HETATM   14  N   UNL     1     -12.276  12.799  66.370  1.00  0.00    -0.518 NA 
HETATM   15  C   UNL     1     -12.277  14.130  66.287  1.00  0.00    -0.449 A  
BRANCH  11  16
HETATM   16  N   UNL     1      -9.569  15.246  68.365  1.00  0.00    -0.202 NA 
HETATM   17  H   UNL     1      -9.660  15.193  69.379  1.00  0.00     0.000 HD 
BRANCH  16  18
HETATM   18  C   UNL     1      -8.587  16.153  67.898  1.00  0.00    -0.168 A  
HETATM   19  C   UNL     1      -8.085  17.131  68.774  1.00  0.00    -0.252 A  
HETATM   20  C   UNL     1      -6.819  18.161  66.985  1.00  0.00    -0.207 A  
HETATM   21  C   UNL     1      -7.210  18.129  68.321  1.00  0.00    -0.257 A  
HETATM   22  C   UNL     1      -8.185  16.217  66.556  1.00  0.00    -0.344 A  
HETATM   23  C   UNL     1      -7.301  17.200  66.103  1.00  0.00    -0.281 A  
BRANCH  21  24
HETATM   24  C   UNL     1      -6.738  19.147  69.211  1.00  0.00    -0.340 C  
HETATM   25  C   UNL     1      -6.395  20.019  69.963  1.00  0.00    -0.381 C  
ENDBRANCH  21  24
ENDBRANCH  16  18
ENDBRANCH  11  16
BRANCH  13  26
HETATM   26  O   UNL     1      -8.241  10.417  69.299  1.00  0.00    -0.144 OA 
BRANCH  26  27
HETATM   27  C   UNL     1      -6.968  11.031  69.101  1.00  0.00    -0.104 C  
BRANCH  27  28
HETATM   28  C   UNL     1      -6.179  10.315  68.010  1.00  0.00    -0.056 C  
BRANCH  28  29
HETATM   29  O   UNL     1      -5.940   8.975  68.450  1.00  0.00    -0.044 OA 
HETATM   30  C   UNL     1      -5.379   8.167  67.428  1.00  0.00    -0.033 C  
ENDBRANCH  28  29
ENDBRANCH  27  28
ENDBRANCH  26  27
ENDBRANCH  13  26
ENDBRANCH   5   6
ENDBRANCH   4   5
ENDBRANCH   3   4
ENDBRANCH   2   3
TORSDOF 11
ENDMDL
MODEL      162
REMARK 921   NORMALIZED FREE ENERGY PREDICTED BY IDOCK:   -4.19 KCAL/MOL
REMARK 922        TOTAL FREE ENERGY PREDICTED BY IDOCK:   -8.02 KCAL/MOL
REMARK 923 INTER-LIGAND FREE ENERGY PREDICTED BY IDOCK:   -6.92 KCAL/MOL
REMARK 924 INTRA-LIGAND FREE ENERGY PREDICTED BY IDOCK:   -1.10 KCAL/MOL
REMARK 927      BINDING AFFINITY PREDICTED BY RF-SCORE:    0.00 PKD
ROOT
HETATM    1  C   UNL     1      -9.214   3.511  70.419  1.00  0.00    -0.149 C  
HETATM    2  O   UNL     1      -9.790   4.129  69.274  1.00  0.00    -0.180 OA 
ENDROOT
BRANCH   2   3
HETATM    3  C   UNL     1      -8.995   5.224  68.830  1.00  0.00    -0.110 C  
BRANCH   3   4
HETATM    4  C   UNL     1      -9.884   6.313  68.235  1.00  0.00    -0.126 C  
BRANCH   4   5
HETATM    5  O   UNL     1      -9.167   7.538  68.344  1.00  0.00    -0.140 OA 
BRANCH   5   6
HETATM    6  C   UNL     1      -9.829   8.718  68.490  1.00  0.00    -0.168 A  
HETATM    7  C   UNL     1     -10.446   9.099  69.687  1.00  0.00    -0.230 A  
HETATM    8  C   UNL     1     -11.136  10.294  69.822  1.00  0.00    -0.287 A  
HETATM    9  C   UNL     1     -11.195  11.182  68.739  1.00  0.00    -0.314 A  
HETATM   10  C   UNL     1     -10.545  10.814  67.530  1.00  0.00    -0.280 A  
HETATM   11  C   UNL     1     -11.906  12.380  68.979  1.00  0.00    -0.300 A  
HETATM   12  N   UNL     1     -12.510  12.612  70.160  1.00  0.00    -0.102 NA 
HETATM   13  C   UNL     1      -9.883   9.586  67.390  1.00  0.00    -0.170 A  
HETATM   14  N   UNL     1     -11.714  10.536  70.998  1.00  0.00    -0.327 NA 
HETATM   15  C   UNL     1     -12.383  11.684  71.109  1.00  0.00    -0.246 A  
BRANCH  11  16
HETATM   16  N   UNL     1     -11.934  13.390  67.982  1.00  0.00    -0.347 NA 
HETATM   17  H   UNL     1     -12.863  13.633  67.639  1.00  0.00     0.000 HD 
BRANCH  16  18
HETATM   18  C   UNL     1     -10.869  14.112  67.389  1.00  0.00    -0.287 A  
HETATM   19  C   UNL     1      -9.877  14.670  68.215  1.00  0.00    -0.222 A  
HETATM   20  C   UNL     1      -8.851  15.779  66.322  1.00  0.00    -0.378 A  
HETATM   21  C   UNL     1      -8.878  15.500  67.687  1.00  0.00    -0.185 A  
HETATM   22  C   UNL     1     -10.824  14.419  66.023  1.00  0.00    -0.309 A  
HETATM   23  C   UNL     1      -9.820  15.232  65.488  1.00  0.00    -0.362 A  
BRANCH  21  24
HETATM   24  C   UNL     1      -7.898  16.100  68.541  1.00  0.00    -0.172 C  
HETATM   25  C   UNL     1      -7.054  16.629  69.212  1.00  0.00    -0.212 C  
ENDBRANCH  21  24
ENDBRANCH  16  18
ENDBRANCH  11  16
BRANCH  13  26
HETATM   26  O   UNL     1      -9.360   9.403  66.129  1.00  0.00    -0.172 OA 
BRANCH  26  27
HETATM   27  C   UNL     1      -9.826  10.262  65.088  1.00  0.00    -0.321 C  
BRANCH  27  28
HETATM   28  C   UNL     1      -8.855  10.273  63.912  1.00  0.00    -0.220 C  
BRANCH  28  29
HETATM   29  O   UNL     1      -9.466  11.008  62.848  1.00  0.00    -0.304 OA 
HETATM   30  C   UNL     1     -10.215  12.115  63.323  1.00  0.00    -0.301 C  
ENDBRANCH  28  29
ENDBRANCH  27  28
ENDBRANCH  26  27
ENDBRANCH  13  26
ENDBRANCH   5   6
ENDBRANCH   4   5
ENDBRANCH   3   4
ENDBRANCH   2   3
TORSDOF 11
ENDMDL
MODEL      163
REMARK 921   NORMALIZED FREE ENERGY PREDICTED BY IDOCK:   -4.18 KCAL/MOL
REMARK 922        TOTAL FREE ENERGY PREDICTED BY IDOCK:   -8.01 KCAL/MOL
REMARK 923 INTER-LIGAND FREE ENERGY PREDICTED BY IDOCK:   -7.21 KCAL/MOL
REMARK 924 INTRA-LIGAND FREE ENERGY PREDICTED BY IDOCK:   -0.80 KCAL/MOL
REMARK 927      BINDING AFFINITY PREDICTED BY RF-SCORE:    0.00 PKD
ROOT
HETATM    1  C   UNL     1      -8.983   3.247  70.504  1.00  0.00    -0.096 C  
HETATM    2  O   UNL     1      -9.212   3.493  69.121  1.00  0.00    -0.131 OA 
ENDROOT
BRANCH   2   3
HETATM    3  C   UNL     1      -8.565   4.690  68.700  1.00  0.00    -0.089 C  
BRANCH   3   4
HETATM    4  C   UNL     1      -9.587   5.667  68.126  1.00  0.00    -0.114 C  
BRANCH   4   5
HETATM    5  O   UNL     1      -9.065   6.976  68.325  1.00  0.00    -0.128 OA 
BRANCH   5   6
HETATM    6  C   UNL     1      -9.849   7.967  68.831  1.00  0.00    -0.173 A  
HETATM    7  C   UNL     1     -10.502   7.861  70.065  1.00  0.00    -0.231 A  
HETATM    8  C   UNL     1     -11.316   8.866  70.565  1.00  0.00    -0.234 A  
HETATM    9  C   UNL     1     -11.471  10.054  69.837  1.00  0.00    -0.274 A  
HETATM   10  C   UNL     1     -10.786  10.178  68.597  1.00  0.00    -0.272 A  
HETATM   11  C   UNL     1     -12.307  11.024  70.436  1.00  0.00    -0.356 A  
HETATM   12  N   UNL     1     -12.930  10.786  71.605  1.00  0.00    -0.464 NA 
HETATM   13  C   UNL     1      -9.996   9.142  68.081  1.00  0.00    -0.176 A  
HETATM   14  N   UNL     1     -11.915   8.641  71.734  1.00  0.00    -0.313 NA 
HETATM   15  C   UNL     1     -12.704   9.611  72.196  1.00  0.00    -0.344 A  
BRANCH  11  16
HETATM   16  N   UNL     1     -12.444  12.301  69.831  1.00  0.00    -0.003 NA 
HETATM   17  H   UNL     1     -12.942  12.306  68.941  1.00  0.00     0.000 HD 
BRANCH  16  18
HETATM   18  C   UNL     1     -11.994  13.569  70.273  1.00  0.00    -0.316 A  
HETATM   19  C   UNL     1     -12.240  13.958  71.602  1.00  0.00    -0.156 A  
HETATM   20  C   UNL     1     -11.362  16.174  71.171  1.00  0.00    -0.368 A  
HETATM   21  C   UNL     1     -11.930  15.251  72.047  1.00  0.00    -0.488 A  
HETATM   22  C   UNL     1     -11.433  14.522  69.412  1.00  0.00    -0.323 A  
HETATM   23  C   UNL     1     -11.107  15.807  69.854  1.00  0.00    -0.333 A  
BRANCH  21  24
HETATM   24  C   UNL     1     -12.224  15.653  73.390  1.00  0.00    -0.629 C  
HETATM   25  C   UNL     1     -12.522  15.967  74.510  1.00  0.00    -0.734 C  
ENDBRANCH  21  24
ENDBRANCH  16  18
ENDBRANCH  11  16
BRANCH  13  26
HETATM   26  O   UNL     1      -9.458   9.445  66.850  1.00  0.00    -0.144 OA 
BRANCH  26  27
HETATM   27  C   UNL     1     -10.339   9.955  65.850  1.00  0.00    -0.113 C  
BRANCH  27  28
HETATM   28  C   UNL     1      -9.579  10.291  64.571  1.00  0.00    -0.316 C  
BRANCH  28  29
HETATM   29  O   UNL     1      -9.377   9.073  63.849  1.00  0.00     0.273 OA 
HETATM   30  C   UNL     1      -8.152   9.072  63.134  1.00  0.00    -0.169 C  
ENDBRANCH  28  29
ENDBRANCH  27  28
ENDBRANCH  26  27
ENDBRANCH  13  26
ENDBRANCH   5   6
ENDBRANCH   4   5
ENDBRANCH   3   4
ENDBRANCH   2   3
TORSDOF 11
ENDMDL
MODEL      164
REMARK 921   NORMALIZED FREE ENERGY PREDICTED BY IDOCK:   -4.17 KCAL/MOL
REMARK 922        TOTAL FREE ENERGY PREDICTED BY IDOCK:   -7.99 KCAL/MOL
REMARK 923 INTER-LIGAND FREE ENERGY PREDICTED BY IDOCK:   -7.08 KCAL/MOL
REMARK 924 INTRA-LIGAND FREE ENERGY PREDICTED BY IDOCK:   -0.91 KCAL/MOL
REMARK 927      BINDING AFFINITY PREDICTED BY RF-SCORE:    0.00 PKD
ROOT
HETATM    1  C   UNL     1      -8.564   7.412  73.513  1.00  0.00    -0.161 C  
HETATM    2  O   UNL     1      -9.220   6.662  72.497  1.00  0.00    -0.139 OA 
ENDROOT
BRANCH   2   3
HETATM    3  C   UNL     1      -9.960   7.515  71.628  1.00  0.00    -0.175 C  
BRANCH   3   4
HETATM    4  C   UNL     1      -9.073   8.650  71.123  1.00  0.00    -0.209 C  
BRANCH   4   5
HETATM    5  O   UNL     1      -9.579   9.034  69.849  1.00  0.00    -0.169 OA 
BRANCH   5   6
HETATM    6  C   UNL     1      -9.159  10.183  69.254  1.00  0.00    -0.198 A  
HETATM    7  C   UNL     1      -7.806  10.491  69.069  1.00  0.00    -0.129 A  
HETATM    8  C   UNL     1      -7.385  11.673  68.480  1.00  0.00    -0.102 A  
HETATM    9  C   UNL     1      -8.338  12.588  68.013  1.00  0.00    -0.171 A  
HETATM   10  C   UNL     1      -9.714  12.267  68.171  1.00  0.00    -0.213 A  
HETATM   11  C   UNL     1      -7.811  13.755  67.414  1.00  0.00    -0.153 A  
HETATM   12  N   UNL     1      -6.483  13.969  67.344  1.00  0.00    -0.296 NA 
HETATM   13  C   UNL     1     -10.131  11.088  68.802  1.00  0.00    -0.203 A  
HETATM   14  N   UNL     1      -6.071  11.875  68.389  1.00  0.00    -0.049 NA 
HETATM   15  C   UNL     1      -5.681  13.022  67.831  1.00  0.00    -0.126 A  
BRANCH  11  16
HETATM   16  N   UNL     1      -8.692  14.694  66.814  1.00  0.00    -0.359 NA 
HETATM   17  H   UNL     1      -9.183  14.358  65.987  1.00  0.00     0.000 HD 
BRANCH  16  18
HETATM   18  C   UNL     1      -8.993  16.026  67.191  1.00  0.00    -0.202 A  
HETATM   19  C   UNL     1      -7.992  16.812  67.788  1.00  0.00    -0.187 A  
HETATM   20  C   UNL     1      -9.572  18.600  68.204  1.00  0.00    -0.364 A  
HETATM   21  C   UNL     1      -8.279  18.088  68.294  1.00  0.00    -0.298 A  
HETATM   22  C   UNL     1     -10.286  16.562  67.125  1.00  0.00    -0.298 A  
HETATM   23  C   UNL     1     -10.574  17.840  67.612  1.00  0.00    -0.385 A  
BRANCH  21  24
HETATM   24  C   UNL     1      -7.264  18.865  68.940  1.00  0.00    -0.349 C  
HETATM   25  C   UNL     1      -6.453  19.538  69.514  1.00  0.00    -0.368 C  
ENDBRANCH  21  24
ENDBRANCH  16  18
ENDBRANCH  11  16
BRANCH  13  26
HETATM   26  O   UNL     1     -11.501  10.988  68.894  1.00  0.00    -0.247 OA 
BRANCH  26  27
HETATM   27  C   UNL     1     -12.136  11.602  70.015  1.00  0.00    -0.319 C  
BRANCH  27  28
HETATM   28  C   UNL     1     -12.920  10.578  70.829  1.00  0.00    -0.330 C  
BRANCH  28  29
HETATM   29  O   UNL     1     -13.119  11.120  72.138  1.00  0.00    -0.463 OA 
HETATM   30  C   UNL     1     -13.534  12.476  72.098  1.00  0.00    -0.422 C  
ENDBRANCH  28  29
ENDBRANCH  27  28
ENDBRANCH  26  27
ENDBRANCH  13  26
ENDBRANCH   5   6
ENDBRANCH   4   5
ENDBRANCH   3   4
ENDBRANCH   2   3
TORSDOF 11
ENDMDL
MODEL      165
REMARK 921   NORMALIZED FREE ENERGY PREDICTED BY IDOCK:   -4.16 KCAL/MOL
REMARK 922        TOTAL FREE ENERGY PREDICTED BY IDOCK:   -7.98 KCAL/MOL
REMARK 923 INTER-LIGAND FREE ENERGY PREDICTED BY IDOCK:   -6.97 KCAL/MOL
REMARK 924 INTRA-LIGAND FREE ENERGY PREDICTED BY IDOCK:   -1.01 KCAL/MOL
REMARK 927      BINDING AFFINITY PREDICTED BY RF-SCORE:    0.00 PKD
ROOT
HETATM    1  C   UNL     1     -13.546  15.253  72.756  1.00  0.00    -0.511 C  
HETATM    2  O   UNL     1     -12.370  15.033  71.984  1.00  0.00    -0.314 OA 
ENDROOT
BRANCH   2   3
HETATM    3  C   UNL     1     -12.687  14.444  70.726  1.00  0.00    -0.360 C  
BRANCH   3   4
HETATM    4  C   UNL     1     -11.600  13.452  70.321  1.00  0.00    -0.042 C  
BRANCH   4   5
HETATM    5  O   UNL     1     -12.220  12.475  69.493  1.00  0.00    -0.204 OA 
BRANCH   5   6
HETATM    6  C   UNL     1     -11.471  11.552  68.830  1.00  0.00    -0.287 A  
HETATM    7  C   UNL     1     -11.056  11.724  67.504  1.00  0.00    -0.330 A  
HETATM    8  C   UNL     1     -10.311  10.769  66.828  1.00  0.00    -0.243 A  
HETATM    9  C   UNL     1      -9.918   9.602  67.495  1.00  0.00    -0.231 A  
HETATM   10  C   UNL     1     -10.311   9.436  68.851  1.00  0.00    -0.230 A  
HETATM   11  C   UNL     1      -9.148   8.698  66.727  1.00  0.00    -0.149 A  
HETATM   12  N   UNL     1      -8.858   8.946  65.436  1.00  0.00    -0.193 NA 
HETATM   13  C   UNL     1     -11.098  10.387  69.515  1.00  0.00    -0.264 A  
HETATM   14  N   UNL     1     -10.003  11.024  65.556  1.00  0.00    -0.242 NA 
HETATM   15  C   UNL     1      -9.296  10.093  64.916  1.00  0.00    -0.254 A  
BRANCH  11  16
HETATM   16  N   UNL     1      -8.612   7.536  67.342  1.00  0.00    -0.118 NA 
HETATM   17  H   UNL     1      -7.846   7.706  67.992  1.00  0.00     0.000 HD 
BRANCH  16  18
HETATM   18  C   UNL     1      -8.980   6.176  67.191  1.00  0.00    -0.111 A  
HETATM   19  C   UNL     1      -8.950   5.329  68.312  1.00  0.00    -0.116 A  
HETATM   20  C   UNL     1      -9.450   3.401  66.935  1.00  0.00    -0.174 A  
HETATM   21  C   UNL     1      -9.179   3.952  68.186  1.00  0.00    -0.207 A  
HETATM   22  C   UNL     1      -9.242   5.592  65.944  1.00  0.00    -0.158 A  
HETATM   23  C   UNL     1      -9.489   4.222  65.814  1.00  0.00    -0.176 A  
BRANCH  21  24
HETATM   24  C   UNL     1      -9.104   3.090  69.327  1.00  0.00    -0.198 C  
HETATM   25  C   UNL     1      -9.087   2.392  70.304  1.00  0.00    -0.177 C  
ENDBRANCH  21  24
ENDBRANCH  16  18
ENDBRANCH  11  16
BRANCH  13  26
HETATM   26  O   UNL     1     -11.406  10.017  70.805  1.00  0.00    -0.311 OA 
BRANCH  26  27
HETATM   27  C   UNL     1     -10.750   8.867  71.338  1.00  0.00    -0.312 C  
BRANCH  27  28
HETATM   28  C   UNL     1     -11.646   8.139  72.335  1.00  0.00    -0.399 C  
BRANCH  28  29
HETATM   29  O   UNL     1     -12.773   8.978  72.604  1.00  0.00    -0.351 OA 
HETATM   30  C   UNL     1     -14.000   8.348  72.274  1.00  0.00    -0.307 C  
ENDBRANCH  28  29
ENDBRANCH  27  28
ENDBRANCH  26  27
ENDBRANCH  13  26
ENDBRANCH   5   6
ENDBRANCH   4   5
ENDBRANCH   3   4
ENDBRANCH   2   3
TORSDOF 11
ENDMDL
MODEL      166
REMARK 921   NORMALIZED FREE ENERGY PREDICTED BY IDOCK:   -4.16 KCAL/MOL
REMARK 922        TOTAL FREE ENERGY PREDICTED BY IDOCK:   -7.97 KCAL/MOL
REMARK 923 INTER-LIGAND FREE ENERGY PREDICTED BY IDOCK:   -6.99 KCAL/MOL
REMARK 924 INTRA-LIGAND FREE ENERGY PREDICTED BY IDOCK:   -0.97 KCAL/MOL
REMARK 927      BINDING AFFINITY PREDICTED BY RF-SCORE:    0.00 PKD
ROOT
HETATM    1  C   UNL     1     -10.398  16.923  69.503  1.00  0.00    -0.189 C  
HETATM    2  O   UNL     1     -11.034  15.759  68.987  1.00  0.00    -0.229 OA 
ENDROOT
BRANCH   2   3
HETATM    3  C   UNL     1     -12.230  15.469  69.705  1.00  0.00    -0.302 C  
BRANCH   3   4
HETATM    4  C   UNL     1     -12.051  14.199  70.534  1.00  0.00    -0.350 C  
BRANCH   4   5
HETATM    5  O   UNL     1     -12.341  13.101  69.676  1.00  0.00    -0.207 OA 
BRANCH   5   6
HETATM    6  C   UNL     1     -11.872  11.856  69.960  1.00  0.00    -0.328 A  
HETATM    7  C   UNL     1     -12.480  11.014  70.901  1.00  0.00    -0.509 A  
HETATM    8  C   UNL     1     -11.985   9.754  71.201  1.00  0.00    -0.376 A  
HETATM    9  C   UNL     1     -10.858   9.276  70.518  1.00  0.00    -0.318 A  
HETATM   10  C   UNL     1     -10.255  10.114  69.541  1.00  0.00    -0.258 A  
HETATM   11  C   UNL     1     -10.440   7.975  70.882  1.00  0.00    -0.202 A  
HETATM   12  N   UNL     1     -11.072   7.280  71.847  1.00  0.00    -0.234 NA 
HETATM   13  C   UNL     1     -10.739  11.402  69.272  1.00  0.00    -0.151 A  
HETATM   14  N   UNL     1     -12.623   9.055  72.138  1.00  0.00    -0.383 NA 
HETATM   15  C   UNL     1     -12.130   7.851  72.425  1.00  0.00    -0.286 A  
BRANCH  11  16
HETATM   16  N   UNL     1      -9.374   7.359  70.176  1.00  0.00    -0.158 NA 
HETATM   17  H   UNL     1      -8.442   7.682  70.432  1.00  0.00     0.000 HD 
BRANCH  16  18
HETATM   18  C   UNL     1      -9.407   6.362  69.170  1.00  0.00    -0.132 A  
HETATM   19  C   UNL     1      -9.349   5.008  69.544  1.00  0.00    -0.184 A  
HETATM   20  C   UNL     1      -9.210   4.318  67.227  1.00  0.00    -0.169 A  
HETATM   21  C   UNL     1      -9.248   3.994  68.582  1.00  0.00    -0.209 A  
HETATM   22  C   UNL     1      -9.354   6.659  67.801  1.00  0.00    -0.119 A  
HETATM   23  C   UNL     1      -9.271   5.651  66.836  1.00  0.00    -0.120 A  
BRANCH  21  24
HETATM   24  C   UNL     1      -9.146   2.620  68.974  1.00  0.00    -0.194 C  
HETATM   25  C   UNL     1      -9.007   1.469  69.285  1.00  0.00    -0.132 C  
ENDBRANCH  21  24
ENDBRANCH  16  18
ENDBRANCH  11  16
BRANCH  13  26
HETATM   26  O   UNL     1      -9.989  12.065  68.327  1.00  0.00    -0.194 OA 
BRANCH  26  27
HETATM   27  C   UNL     1     -10.639  12.449  67.116  1.00  0.00    -0.224 C  
BRANCH  27  28
HETATM   28  C   UNL     1     -10.846  11.247  66.201  1.00  0.00    -0.222 C  
BRANCH  28  29
HETATM   29  O   UNL     1      -9.883  11.330  65.145  1.00  0.00    -0.229 OA 
HETATM   30  C   UNL     1     -10.338  12.134  64.069  1.00  0.00    -0.385 C  
ENDBRANCH  28  29
ENDBRANCH  27  28
ENDBRANCH  26  27
ENDBRANCH  13  26
ENDBRANCH   5   6
ENDBRANCH   4   5
ENDBRANCH   3   4
ENDBRANCH   2   3
TORSDOF 11
ENDMDL
MODEL      167
REMARK 921   NORMALIZED FREE ENERGY PREDICTED BY IDOCK:   -4.14 KCAL/MOL
REMARK 922        TOTAL FREE ENERGY PREDICTED BY IDOCK:   -7.93 KCAL/MOL
REMARK 923 INTER-LIGAND FREE ENERGY PREDICTED BY IDOCK:   -7.38 KCAL/MOL
REMARK 924 INTRA-LIGAND FREE ENERGY PREDICTED BY IDOCK:   -0.56 KCAL/MOL
REMARK 927      BINDING AFFINITY PREDICTED BY RF-SCORE:    0.00 PKD
ROOT
HETATM    1  C   UNL     1     -13.138  10.988  71.938  1.00  0.00    -0.419 C  
HETATM    2  O   UNL     1     -12.938  10.235  70.747  1.00  0.00    -0.370 OA 
ENDROOT
BRANCH   2   3
HETATM    3  C   UNL     1     -11.990  10.870  69.894  1.00  0.00    -0.353 C  
BRANCH   3   4
HETATM    4  C   UNL     1     -10.653  10.135  69.954  1.00  0.00    -0.285 C  
BRANCH   4   5
HETATM    5  O   UNL     1     -10.192  10.007  68.614  1.00  0.00    -0.166 OA 
BRANCH   5   6
HETATM    6  C   UNL     1     -10.246  11.064  67.758  1.00  0.00    -0.183 A  
HETATM    7  C   UNL     1     -11.304  11.261  66.863  1.00  0.00    -0.231 A  
HETATM    8  C   UNL     1     -11.342  12.329  65.979  1.00  0.00    -0.350 A  
HETATM    9  C   UNL     1     -10.309  13.275  65.996  1.00  0.00    -0.290 A  
HETATM   10  C   UNL     1      -9.246  13.095  66.923  1.00  0.00    -0.236 A  
HETATM   11  C   UNL     1     -10.445  14.334  65.070  1.00  0.00    -0.435 A  
HETATM   12  N   UNL     1     -11.484  14.388  64.215  1.00  0.00    -0.272 NA 
HETATM   13  C   UNL     1      -9.196  11.992  67.786  1.00  0.00    -0.190 A  
HETATM   14  N   UNL     1     -12.382  12.397  65.148  1.00  0.00    -0.570 NA 
HETATM   15  C   UNL     1     -12.400  13.422  64.297  1.00  0.00    -0.335 A  
BRANCH  11  16
HETATM   16  N   UNL     1      -9.506  15.399  65.080  1.00  0.00    -0.233 NA 
HETATM   17  H   UNL     1      -8.947  15.490  64.233  1.00  0.00     0.000 HD 
BRANCH  16  18
HETATM   18  C   UNL     1      -9.229  16.356  66.087  1.00  0.00    -0.330 A  
HETATM   19  C   UNL     1      -8.225  16.083  67.033  1.00  0.00    -0.255 A  
HETATM   20  C   UNL     1      -8.780  18.085  68.278  1.00  0.00    -0.289 A  
HETATM   21  C   UNL     1      -8.004  16.938  68.122  1.00  0.00    -0.195 A  
HETATM   22  C   UNL     1     -10.002  17.509  66.277  1.00  0.00    -0.316 A  
HETATM   23  C   UNL     1      -9.775  18.375  67.351  1.00  0.00    -0.307 A  
BRANCH  21  24
HETATM   24  C   UNL     1      -7.008  16.630  69.105  1.00  0.00    -0.227 C  
HETATM   25  C   UNL     1      -6.169  16.321  69.905  1.00  0.00    -0.161 C  
ENDBRANCH  21  24
ENDBRANCH  16  18
ENDBRANCH  11  16
BRANCH  13  26
HETATM   26  O   UNL     1      -8.064  11.981  68.571  1.00  0.00    -0.151 OA 
BRANCH  26  27
HETATM   27  C   UNL     1      -6.862  12.502  68.006  1.00  0.00    -0.094 C  
BRANCH  27  28
HETATM   28  C   UNL     1      -5.839  11.394  67.776  1.00  0.00    -0.046 C  
BRANCH  28  29
HETATM   29  O   UNL     1      -5.920  10.489  68.882  1.00  0.00    -0.041 OA 
HETATM   30  C   UNL     1      -6.146   9.153  68.463  1.00  0.00    -0.045 C  
ENDBRANCH  28  29
ENDBRANCH  27  28
ENDBRANCH  26  27
ENDBRANCH  13  26
ENDBRANCH   5   6
ENDBRANCH   4   5
ENDBRANCH   3   4
ENDBRANCH   2   3
TORSDOF 11
ENDMDL
MODEL      168
REMARK 921   NORMALIZED FREE ENERGY PREDICTED BY IDOCK:   -4.11 KCAL/MOL
REMARK 922        TOTAL FREE ENERGY PREDICTED BY IDOCK:   -7.89 KCAL/MOL
REMARK 923 INTER-LIGAND FREE ENERGY PREDICTED BY IDOCK:   -6.53 KCAL/MOL
REMARK 924 INTRA-LIGAND FREE ENERGY PREDICTED BY IDOCK:   -1.35 KCAL/MOL
REMARK 927      BINDING AFFINITY PREDICTED BY RF-SCORE:    0.00 PKD
ROOT
HETATM    1  C   UNL     1      -6.721   6.274  72.587  1.00  0.00    -0.069 C  
HETATM    2  O   UNL     1      -7.967   6.701  73.126  1.00  0.00    -0.104 OA 
ENDROOT
BRANCH   2   3
HETATM    3  C   UNL     1      -9.057   6.076  72.455  1.00  0.00    -0.136 C  
BRANCH   3   4
HETATM    4  C   UNL     1      -9.862   7.114  71.677  1.00  0.00    -0.162 C  
BRANCH   4   5
HETATM    5  O   UNL     1      -9.296   7.184  70.374  1.00  0.00    -0.159 OA 
BRANCH   5   6
HETATM    6  C   UNL     1      -8.912   8.379  69.847  1.00  0.00    -0.142 A  
HETATM    7  C   UNL     1      -7.828   9.112  70.344  1.00  0.00    -0.140 A  
HETATM    8  C   UNL     1      -7.455  10.339  69.816  1.00  0.00    -0.165 A  
HETATM    9  C   UNL     1      -8.157  10.860  68.720  1.00  0.00    -0.145 A  
HETATM   10  C   UNL     1      -9.240  10.106  68.194  1.00  0.00    -0.137 A  
HETATM   11  C   UNL     1      -7.692  12.108  68.244  1.00  0.00    -0.135 A  
HETATM   12  N   UNL     1      -6.670  12.749  68.842  1.00  0.00    -0.094 NA 
HETATM   13  C   UNL     1      -9.635   8.885  68.758  1.00  0.00    -0.157 A  
HETATM   14  N   UNL     1      -6.429  10.965  70.391  1.00  0.00    -0.291 NA 
HETATM   15  C   UNL     1      -6.089  12.148  69.881  1.00  0.00    -0.146 A  
BRANCH  11  16
HETATM   16  N   UNL     1      -8.267  12.669  67.074  1.00  0.00    -0.326 NA 
HETATM   17  H   UNL     1      -7.622  12.801  66.296  1.00  0.00     0.000 HD 
BRANCH  16  18
HETATM   18  C   UNL     1      -9.601  13.074  66.822  1.00  0.00    -0.248 A  
HETATM   19  C   UNL     1     -10.302  12.495  65.750  1.00  0.00    -0.288 A  
HETATM   20  C   UNL     1     -12.168  14.001  66.087  1.00  0.00    -0.494 A  
HETATM   21  C   UNL     1     -11.574  12.956  65.382  1.00  0.00    -0.386 A  
HETATM   22  C   UNL     1     -10.218  14.132  67.504  1.00  0.00    -0.241 A  
HETATM   23  C   UNL     1     -11.493  14.584  67.154  1.00  0.00    -0.383 A  
BRANCH  21  24
HETATM   24  C   UNL     1     -12.263  12.390  64.262  1.00  0.00    -0.538 C  
HETATM   25  C   UNL     1     -12.886  11.907  63.356  1.00  0.00    -0.393 C  
ENDBRANCH  21  24
ENDBRANCH  16  18
ENDBRANCH  11  16
BRANCH  13  26
HETATM   26  O   UNL     1     -10.731   8.337  68.129  1.00  0.00    -0.151 OA 
BRANCH  26  27
HETATM   27  C   UNL     1     -10.510   7.631  66.909  1.00  0.00    -0.318 C  
BRANCH  27  28
HETATM   28  C   UNL     1     -10.685   6.129  67.106  1.00  0.00    -0.346 C  
BRANCH  28  29
HETATM   29  O   UNL     1      -9.388   5.563  67.321  1.00  0.00    -0.113 OA 
HETATM   30  C   UNL     1      -8.469   5.930  66.304  1.00  0.00    -0.128 C  
ENDBRANCH  28  29
ENDBRANCH  27  28
ENDBRANCH  26  27
ENDBRANCH  13  26
ENDBRANCH   5   6
ENDBRANCH   4   5
ENDBRANCH   3   4
ENDBRANCH   2   3
TORSDOF 11
ENDMDL
MODEL      169
REMARK 921   NORMALIZED FREE ENERGY PREDICTED BY IDOCK:   -4.11 KCAL/MOL
REMARK 922        TOTAL FREE ENERGY PREDICTED BY IDOCK:   -7.88 KCAL/MOL
REMARK 923 INTER-LIGAND FREE ENERGY PREDICTED BY IDOCK:   -6.75 KCAL/MOL
REMARK 924 INTRA-LIGAND FREE ENERGY PREDICTED BY IDOCK:   -1.14 KCAL/MOL
REMARK 927      BINDING AFFINITY PREDICTED BY RF-SCORE:    0.00 PKD
ROOT
HETATM    1  C   UNL     1     -10.478  20.016  66.451  1.00  0.00    -0.417 C  
HETATM    2  O   UNL     1      -9.760  18.919  65.899  1.00  0.00    -0.474 OA 
ENDROOT
BRANCH   2   3
HETATM    3  C   UNL     1      -8.439  18.854  66.429  1.00  0.00    -0.293 C  
BRANCH   3   4
HETATM    4  C   UNL     1      -7.800  17.511  66.085  1.00  0.00    -0.246 C  
BRANCH   4   5
HETATM    5  O   UNL     1      -8.118  16.617  67.146  1.00  0.00    -0.163 OA 
BRANCH   5   6
HETATM    6  C   UNL     1      -8.794  15.462  66.900  1.00  0.00    -0.253 A  
HETATM    7  C   UNL     1      -9.945  15.411  66.104  1.00  0.00    -0.330 A  
HETATM    8  C   UNL     1     -10.639  14.233  65.874  1.00  0.00    -0.302 A  
HETATM    9  C   UNL     1     -10.163  13.034  66.421  1.00  0.00    -0.283 A  
HETATM   10  C   UNL     1      -8.979  13.075  67.206  1.00  0.00    -0.212 A  
HETATM   11  C   UNL     1     -10.931  11.886  66.118  1.00  0.00    -0.308 A  
HETATM   12  N   UNL     1     -12.057  11.970  65.385  1.00  0.00    -0.421 NA 
HETATM   13  C   UNL     1      -8.304  14.276  67.465  1.00  0.00    -0.188 A  
HETATM   14  N   UNL     1     -11.742  14.310  65.130  1.00  0.00    -0.352 NA 
HETATM   15  C   UNL     1     -12.406  13.173  64.927  1.00  0.00    -0.441 A  
BRANCH  11  16
HETATM   16  N   UNL     1     -10.475  10.608  66.536  1.00  0.00    -0.239 NA 
HETATM   17  H   UNL     1     -10.910  10.251  67.387  1.00  0.00     0.000 HD 
BRANCH  16  18
HETATM   18  C   UNL     1      -9.509   9.752  65.952  1.00  0.00    -0.226 A  
HETATM   19  C   UNL     1      -8.608   9.066  66.786  1.00  0.00    -0.129 A  
HETATM   20  C   UNL     1      -7.390   8.227  64.868  1.00  0.00    -0.087 A  
HETATM   21  C   UNL     1      -7.555   8.312  66.249  1.00  0.00    -0.096 A  
HETATM   22  C   UNL     1      -9.311   9.658  64.568  1.00  0.00    -0.247 A  
HETATM   23  C   UNL     1      -8.274   8.894  64.027  1.00  0.00    -0.168 A  
BRANCH  21  24
HETATM   24  C   UNL     1      -6.616   7.652  67.106  1.00  0.00    -0.063 C  
HETATM   25  C   UNL     1      -5.791   7.104  67.784  1.00  0.00    -0.029 C  
ENDBRANCH  21  24
ENDBRANCH  16  18
ENDBRANCH  11  16
BRANCH  13  26
HETATM   26  O   UNL     1      -7.208  14.106  68.281  1.00  0.00    -0.095 OA 
BRANCH  26  27
HETATM   27  C   UNL     1      -7.258  14.681  69.586  1.00  0.00    -0.098 C  
BRANCH  27  28
HETATM   28  C   UNL     1      -5.972  15.437  69.902  1.00  0.00    -0.146 C  
BRANCH  28  29
HETATM   29  O   UNL     1      -6.292  16.829  69.982  1.00  0.00    -0.176 OA 
HETATM   30  C   UNL     1      -5.282  17.573  70.643  1.00  0.00    -0.268 C  
ENDBRANCH  28  29
ENDBRANCH  27  28
ENDBRANCH  26  27
ENDBRANCH  13  26
ENDBRANCH   5   6
ENDBRANCH   4   5
ENDBRANCH   3   4
ENDBRANCH   2   3
TORSDOF 11
ENDMDL
MODEL      170
REMARK 921   NORMALIZED FREE ENERGY PREDICTED BY IDOCK:   -4.09 KCAL/MOL
REMARK 922        TOTAL FREE ENERGY PREDICTED BY IDOCK:   -7.86 KCAL/MOL
REMARK 923 INTER-LIGAND FREE ENERGY PREDICTED BY IDOCK:   -6.73 KCAL/MOL
REMARK 924 INTRA-LIGAND FREE ENERGY PREDICTED BY IDOCK:   -1.13 KCAL/MOL
REMARK 927      BINDING AFFINITY PREDICTED BY RF-SCORE:    0.00 PKD
ROOT
HETATM    1  C   UNL     1      -9.214   6.255  72.322  1.00  0.00    -0.139 C  
HETATM    2  O   UNL     1     -10.499   6.112  71.727  1.00  0.00    -0.206 OA 
ENDROOT
BRANCH   2   3
HETATM    3  C   UNL     1     -11.526   6.535  72.619  1.00  0.00    -0.186 C  
BRANCH   3   4
HETATM    4  C   UNL     1     -11.906   7.986  72.333  1.00  0.00    -0.372 C  
BRANCH   4   5
HETATM    5  O   UNL     1     -11.812   8.168  70.925  1.00  0.00    -0.285 OA 
BRANCH   5   6
HETATM    6  C   UNL     1     -11.619   9.408  70.397  1.00  0.00    -0.192 A  
HETATM    7  C   UNL     1     -12.254  10.551  70.897  1.00  0.00    -0.490 A  
HETATM    8  C   UNL     1     -12.069  11.808  70.341  1.00  0.00    -0.352 A  
HETATM    9  C   UNL     1     -11.187  11.962  69.263  1.00  0.00    -0.304 A  
HETATM   10  C   UNL     1     -10.517  10.809  68.770  1.00  0.00    -0.221 A  
HETATM   11  C   UNL     1     -11.053  13.283  68.777  1.00  0.00    -0.266 A  
HETATM   12  N   UNL     1     -11.763  14.299  69.304  1.00  0.00    -0.299 NA 
HETATM   13  C   UNL     1     -10.740   9.536  69.313  1.00  0.00    -0.222 A  
HETATM   14  N   UNL     1     -12.752  12.819  70.877  1.00  0.00    -0.248 NA 
HETATM   15  C   UNL     1     -12.573  14.019  70.326  1.00  0.00    -0.291 A  
BRANCH  11  16
HETATM   16  N   UNL     1     -10.106  13.561  67.756  1.00  0.00    -0.231 NA 
HETATM   17  H   UNL     1      -9.946  12.801  67.097  1.00  0.00     0.000 HD 
BRANCH  16  18
HETATM   18  C   UNL     1      -9.350  14.734  67.515  1.00  0.00    -0.194 A  
HETATM   19  C   UNL     1      -8.371  15.123  68.446  1.00  0.00    -0.154 A  
HETATM   20  C   UNL     1      -7.973  17.188  67.245  1.00  0.00    -0.200 A  
HETATM   21  C   UNL     1      -7.690  16.342  68.316  1.00  0.00    -0.162 A  
HETATM   22  C   UNL     1      -9.621  15.612  66.456  1.00  0.00    -0.293 A  
HETATM   23  C   UNL     1      -8.934  16.820  66.310  1.00  0.00    -0.325 A  
BRANCH  21  24
HETATM   24  C   UNL     1      -6.726  16.750  69.293  1.00  0.00    -0.229 C  
HETATM   25  C   UNL     1      -5.898  17.130  70.075  1.00  0.00    -0.225 C  
ENDBRANCH  21  24
ENDBRANCH  16  18
ENDBRANCH  11  16
BRANCH  13  26
HETATM   26  O   UNL     1     -10.030   8.549  68.666  1.00  0.00    -0.173 OA 
BRANCH  26  27
HETATM   27  C   UNL     1      -8.711   8.268  69.133  1.00  0.00    -0.143 C  
BRANCH  27  28
HETATM   28  C   UNL     1      -7.697   8.360  67.998  1.00  0.00    -0.103 C  
BRANCH  28  29
HETATM   29  O   UNL     1      -8.188   7.574  66.908  1.00  0.00    -0.119 OA 
HETATM   30  C   UNL     1      -7.798   6.215  67.009  1.00  0.00    -0.101 C  
ENDBRANCH  28  29
ENDBRANCH  27  28
ENDBRANCH  26  27
ENDBRANCH  13  26
ENDBRANCH   5   6
ENDBRANCH   4   5
ENDBRANCH   3   4
ENDBRANCH   2   3
TORSDOF 11
ENDMDL
MODEL      171
REMARK 921   NORMALIZED FREE ENERGY PREDICTED BY IDOCK:   -4.09 KCAL/MOL
REMARK 922        TOTAL FREE ENERGY PREDICTED BY IDOCK:   -7.86 KCAL/MOL
REMARK 923 INTER-LIGAND FREE ENERGY PREDICTED BY IDOCK:   -7.44 KCAL/MOL
REMARK 924 INTRA-LIGAND FREE ENERGY PREDICTED BY IDOCK:   -0.42 KCAL/MOL
REMARK 927      BINDING AFFINITY PREDICTED BY RF-SCORE:    0.00 PKD
ROOT
HETATM    1  C   UNL     1      -7.373   6.665  74.018  1.00  0.00    -0.086 C  
HETATM    2  O   UNL     1      -8.520   5.834  74.161  1.00  0.00    -0.113 OA 
ENDROOT
BRANCH   2   3
HETATM    3  C   UNL     1      -9.717   6.606  74.137  1.00  0.00    -0.283 C  
BRANCH   3   4
HETATM    4  C   UNL     1     -10.785   5.895  73.310  1.00  0.00    -0.265 C  
BRANCH   4   5
HETATM    5  O   UNL     1     -10.177   5.532  72.075  1.00  0.00    -0.187 OA 
BRANCH   5   6
HETATM    6  C   UNL     1      -9.957   6.466  71.110  1.00  0.00    -0.180 A  
HETATM    7  C   UNL     1      -8.673   6.860  70.715  1.00  0.00    -0.145 A  
HETATM    8  C   UNL     1      -8.456   7.827  69.745  1.00  0.00    -0.133 A  
HETATM    9  C   UNL     1      -9.553   8.414  69.100  1.00  0.00    -0.164 A  
HETATM   10  C   UNL     1     -10.859   7.996  69.476  1.00  0.00    -0.135 A  
HETATM   11  C   UNL     1      -9.230   9.376  68.115  1.00  0.00    -0.130 A  
HETATM   12  N   UNL     1      -7.952   9.716  67.861  1.00  0.00    -0.098 NA 
HETATM   13  C   UNL     1     -11.070   7.047  70.485  1.00  0.00    -0.280 A  
HETATM   14  N   UNL     1      -7.191   8.148  69.474  1.00  0.00    -0.071 NA 
HETATM   15  C   UNL     1      -6.999   9.087  68.548  1.00  0.00    -0.064 A  
BRANCH  11  16
HETATM   16  N   UNL     1     -10.265   9.952  67.332  1.00  0.00    -0.208 NA 
HETATM   17  H   UNL     1     -10.585   9.379  66.552  1.00  0.00     0.000 HD 
BRANCH  16  18
HETATM   18  C   UNL     1     -10.920  11.200  67.468  1.00  0.00    -0.275 A  
HETATM   19  C   UNL     1     -11.223  11.945  66.314  1.00  0.00    -0.392 A  
HETATM   20  C   UNL     1     -11.994  13.808  67.655  1.00  0.00    -0.392 A  
HETATM   21  C   UNL     1     -11.752  13.240  66.406  1.00  0.00    -0.418 A  
HETATM   22  C   UNL     1     -11.163  11.802  68.710  1.00  0.00    -0.308 A  
HETATM   23  C   UNL     1     -11.706  13.086  68.808  1.00  0.00    -0.363 A  
BRANCH  21  24
HETATM   24  C   UNL     1     -12.016  14.008  65.227  1.00  0.00    -0.384 C  
HETATM   25  C   UNL     1     -12.194  14.626  64.213  1.00  0.00    -0.432 C  
ENDBRANCH  21  24
ENDBRANCH  16  18
ENDBRANCH  11  16
BRANCH  13  26
HETATM   26  O   UNL     1     -12.405   6.815  70.728  1.00  0.00    -0.377 OA 
BRANCH  26  27
HETATM   27  C   UNL     1     -13.053   7.636  71.700  1.00  0.00    -0.353 C  
BRANCH  27  28
HETATM   28  C   UNL     1     -12.434   9.028  71.741  1.00  0.00    -0.368 C  
BRANCH  28  29
HETATM   29  O   UNL     1     -13.460   9.952  72.115  1.00  0.00    -0.429 OA 
HETATM   30  C   UNL     1     -13.093  11.296  71.847  1.00  0.00    -0.405 C  
ENDBRANCH  28  29
ENDBRANCH  27  28
ENDBRANCH  26  27
ENDBRANCH  13  26
ENDBRANCH   5   6
ENDBRANCH   4   5
ENDBRANCH   3   4
ENDBRANCH   2   3
TORSDOF 11
ENDMDL
MODEL      172
REMARK 921   NORMALIZED FREE ENERGY PREDICTED BY IDOCK:   -4.09 KCAL/MOL
REMARK 922        TOTAL FREE ENERGY PREDICTED BY IDOCK:   -7.85 KCAL/MOL
REMARK 923 INTER-LIGAND FREE ENERGY PREDICTED BY IDOCK:   -6.58 KCAL/MOL
REMARK 924 INTRA-LIGAND FREE ENERGY PREDICTED BY IDOCK:   -1.27 KCAL/MOL
REMARK 927      BINDING AFFINITY PREDICTED BY RF-SCORE:    0.00 PKD
ROOT
HETATM    1  C   UNL     1      -5.896   5.048  71.891  1.00  0.00    -0.020 C  
HETATM    2  O   UNL     1      -7.218   5.568  71.973  1.00  0.00    -0.083 OA 
ENDROOT
BRANCH   2   3
HETATM    3  C   UNL     1      -7.669   6.023  70.700  1.00  0.00    -0.101 C  
BRANCH   3   4
HETATM    4  C   UNL     1      -6.889   7.266  70.279  1.00  0.00    -0.052 C  
BRANCH   4   5
HETATM    5  O   UNL     1      -7.535   8.382  70.881  1.00  0.00    -0.055 OA 
BRANCH   5   6
HETATM    6  C   UNL     1      -7.862   9.477  70.140  1.00  0.00    -0.160 A  
HETATM    7  C   UNL     1      -6.923  10.444  69.762  1.00  0.00    -0.138 A  
HETATM    8  C   UNL     1      -7.267  11.567  69.025  1.00  0.00    -0.106 A  
HETATM    9  C   UNL     1      -8.592  11.735  68.603  1.00  0.00    -0.062 A  
HETATM   10  C   UNL     1      -9.544  10.741  68.959  1.00  0.00    -0.193 A  
HETATM   11  C   UNL     1      -8.841  12.902  67.844  1.00  0.00    -0.190 A  
HETATM   12  N   UNL     1      -7.864  13.794  67.590  1.00  0.00    -0.164 NA 
HETATM   13  C   UNL     1      -9.196   9.628  69.737  1.00  0.00    -0.219 A  
HETATM   14  N   UNL     1      -6.296  12.439  68.753  1.00  0.00    -0.073 NA 
HETATM   15  C   UNL     1      -6.644  13.519  68.054  1.00  0.00    -0.137 A  
BRANCH  11  16
HETATM   16  N   UNL     1     -10.127  13.110  67.280  1.00  0.00    -0.231 NA 
HETATM   17  H   UNL     1     -10.720  13.766  67.788  1.00  0.00     0.000 HD 
BRANCH  16  18
HETATM   18  C   UNL     1     -10.712  12.548  66.120  1.00  0.00    -0.261 A  
HETATM   19  C   UNL     1      -9.927  11.740  65.278  1.00  0.00    -0.284 A  
HETATM   20  C   UNL     1     -11.720  11.594  63.657  1.00  0.00    -0.406 A  
HETATM   21  C   UNL     1     -10.424  11.270  64.055  1.00  0.00    -0.440 A  
HETATM   22  C   UNL     1     -12.007  12.867  65.688  1.00  0.00    -0.490 A  
HETATM   23  C   UNL     1     -12.514  12.386  64.478  1.00  0.00    -0.519 A  
BRANCH  21  24
HETATM   24  C   UNL     1      -9.602  10.484  63.184  1.00  0.00    -0.375 C  
HETATM   25  C   UNL     1      -8.958   9.817  62.421  1.00  0.00    -0.288 C  
ENDBRANCH  21  24
ENDBRANCH  16  18
ENDBRANCH  11  16
BRANCH  13  26
HETATM   26  O   UNL     1     -10.270   8.810  70.008  1.00  0.00    -0.188 OA 
BRANCH  26  27
HETATM   27  C   UNL     1     -11.309   9.333  70.834  1.00  0.00    -0.308 C  
BRANCH  27  28
HETATM   28  C   UNL     1     -11.642   8.371  71.970  1.00  0.00    -0.351 C  
BRANCH  28  29
HETATM   29  O   UNL     1     -10.502   8.303  72.833  1.00  0.00    -0.314 OA 
HETATM   30  C   UNL     1     -10.457   7.088  73.564  1.00  0.00    -0.375 C  
ENDBRANCH  28  29
ENDBRANCH  27  28
ENDBRANCH  26  27
ENDBRANCH  13  26
ENDBRANCH   5   6
ENDBRANCH   4   5
ENDBRANCH   3   4
ENDBRANCH   2   3
TORSDOF 11
ENDMDL
MODEL      173
REMARK 921   NORMALIZED FREE ENERGY PREDICTED BY IDOCK:   -4.07 KCAL/MOL
REMARK 922        TOTAL FREE ENERGY PREDICTED BY IDOCK:   -7.83 KCAL/MOL
REMARK 923 INTER-LIGAND FREE ENERGY PREDICTED BY IDOCK:   -6.66 KCAL/MOL
REMARK 924 INTRA-LIGAND FREE ENERGY PREDICTED BY IDOCK:   -1.17 KCAL/MOL
REMARK 927      BINDING AFFINITY PREDICTED BY RF-SCORE:    0.00 PKD
ROOT
HETATM    1  C   UNL     1      -5.891  10.776  65.099  1.00  0.00    -0.030 C  
HETATM    2  O   UNL     1      -6.440   9.634  64.452  1.00  0.00    -0.090 OA 
ENDROOT
BRANCH   2   3
HETATM    3  C   UNL     1      -7.174   8.829  65.370  1.00  0.00    -0.084 C  
BRANCH   3   4
HETATM    4  C   UNL     1      -8.660   8.856  65.022  1.00  0.00    -0.176 C  
BRANCH   4   5
HETATM    5  O   UNL     1      -9.331   9.465  66.119  1.00  0.00    -0.172 OA 
BRANCH   5   6
HETATM    6  C   UNL     1      -9.460  10.819  66.189  1.00  0.00    -0.187 A  
HETATM    7  C   UNL     1     -10.331  11.540  65.364  1.00  0.00    -0.322 A  
HETATM    8  C   UNL     1     -10.442  12.921  65.426  1.00  0.00    -0.292 A  
HETATM    9  C   UNL     1      -9.689  13.631  66.370  1.00  0.00    -0.300 A  
HETATM   10  C   UNL     1      -8.824  12.901  67.230  1.00  0.00    -0.206 A  
HETATM   11  C   UNL     1      -9.883  15.032  66.366  1.00  0.00    -0.272 A  
HETATM   12  N   UNL     1     -10.710  15.622  65.483  1.00  0.00    -0.371 NA 
HETATM   13  C   UNL     1      -8.688  11.509  67.134  1.00  0.00    -0.160 A  
HETATM   14  N   UNL     1     -11.278  13.505  64.568  1.00  0.00    -0.360 NA 
HETATM   15  C   UNL     1     -11.366  14.833  64.631  1.00  0.00    -0.366 A  
BRANCH  11  16
HETATM   16  N   UNL     1      -9.246  15.830  67.353  1.00  0.00    -0.200 NA 
HETATM   17  H   UNL     1      -9.561  15.667  68.309  1.00  0.00     0.000 HD 
BRANCH  16  18
HETATM   18  C   UNL     1      -8.240  16.817  67.212  1.00  0.00    -0.176 A  
HETATM   19  C   UNL     1      -7.824  17.538  68.346  1.00  0.00    -0.263 A  
HETATM   20  C   UNL     1      -6.429  18.975  66.985  1.00  0.00    -0.198 A  
HETATM   21  C   UNL     1      -6.928  18.610  68.234  1.00  0.00    -0.262 A  
HETATM   22  C   UNL     1      -7.731  17.215  65.969  1.00  0.00    -0.193 A  
HETATM   23  C   UNL     1      -6.824  18.272  65.853  1.00  0.00    -0.325 A  
BRANCH  21  24
HETATM   24  C   UNL     1      -6.543  19.366  69.388  1.00  0.00    -0.364 C  
HETATM   25  C   UNL     1      -6.272  20.022  70.356  1.00  0.00    -0.368 C  
ENDBRANCH  21  24
ENDBRANCH  16  18
ENDBRANCH  11  16
BRANCH  13  26
HETATM   26  O   UNL     1      -7.770  11.001  68.025  1.00  0.00    -0.100 OA 
BRANCH  26  27
HETATM   27  C   UNL     1      -8.150  10.925  69.398  1.00  0.00     0.013 C  
BRANCH  27  28
HETATM   28  C   UNL     1      -9.095   9.753  69.641  1.00  0.00    -0.220 C  
BRANCH  28  29
HETATM   29  O   UNL     1     -10.377  10.288  69.985  1.00  0.00    -0.258 OA 
HETATM   30  C   UNL     1     -11.000   9.556  71.027  1.00  0.00    -0.353 C  
ENDBRANCH  28  29
ENDBRANCH  27  28
ENDBRANCH  26  27
ENDBRANCH  13  26
ENDBRANCH   5   6
ENDBRANCH   4   5
ENDBRANCH   3   4
ENDBRANCH   2   3
TORSDOF 11
ENDMDL
MODEL      174
REMARK 921   NORMALIZED FREE ENERGY PREDICTED BY IDOCK:   -4.07 KCAL/MOL
REMARK 922        TOTAL FREE ENERGY PREDICTED BY IDOCK:   -7.82 KCAL/MOL
REMARK 923 INTER-LIGAND FREE ENERGY PREDICTED BY IDOCK:   -6.46 KCAL/MOL
REMARK 924 INTRA-LIGAND FREE ENERGY PREDICTED BY IDOCK:   -1.36 KCAL/MOL
REMARK 927      BINDING AFFINITY PREDICTED BY RF-SCORE:    0.00 PKD
ROOT
HETATM    1  C   UNL     1      -6.220   3.682  67.521  1.00  0.00    -0.036 C  
HETATM    2  O   UNL     1      -6.915   4.714  68.211  1.00  0.00    -0.054 OA 
ENDROOT
BRANCH   2   3
HETATM    3  C   UNL     1      -6.010   5.551  68.925  1.00  0.00    -0.024 C  
BRANCH   3   4
HETATM    4  C   UNL     1      -6.782   6.595  69.730  1.00  0.00    -0.050 C  
BRANCH   4   5
HETATM    5  O   UNL     1      -8.154   6.222  69.680  1.00  0.00    -0.115 OA 
BRANCH   5   6
HETATM    6  C   UNL     1      -9.133   7.162  69.790  1.00  0.00    -0.141 A  
HETATM    7  C   UNL     1      -9.826   7.398  70.983  1.00  0.00    -0.179 A  
HETATM    8  C   UNL     1     -10.836   8.343  71.082  1.00  0.00    -0.237 A  
HETATM    9  C   UNL     1     -11.160   9.125  69.965  1.00  0.00    -0.208 A  
HETATM   10  C   UNL     1     -10.439   8.909  68.759  1.00  0.00    -0.223 A  
HETATM   11  C   UNL     1     -12.191  10.071  70.170  1.00  0.00    -0.046 A  
HETATM   12  N   UNL     1     -12.828  10.169  71.352  1.00  0.00    -0.392 NA 
HETATM   13  C   UNL     1      -9.447   7.925  68.657  1.00  0.00    -0.149 A  
HETATM   14  N   UNL     1     -11.451   8.458  72.259  1.00  0.00    -0.368 NA 
HETATM   15  C   UNL     1     -12.427   9.362  72.336  1.00  0.00    -0.183 A  
BRANCH  11  16
HETATM   16  N   UNL     1     -12.521  10.983  69.133  1.00  0.00    -0.615 NA 
HETATM   17  H   UNL     1     -13.141  10.612  68.413  1.00  0.00     0.000 HD 
BRANCH  16  18
HETATM   18  C   UNL     1     -12.122  12.328  68.944  1.00  0.00    -0.126 A  
HETATM   19  C   UNL     1     -11.544  12.707  67.719  1.00  0.00    -0.403 A  
HETATM   20  C   UNL     1     -11.064  14.923  68.571  1.00  0.00    -0.275 A  
HETATM   21  C   UNL     1     -11.016  13.993  67.534  1.00  0.00    -0.288 A  
HETATM   22  C   UNL     1     -12.144  13.281  69.972  1.00  0.00    -0.385 A  
HETATM   23  C   UNL     1     -11.635  14.569  69.788  1.00  0.00    -0.345 A  
BRANCH  21  24
HETATM   24  C   UNL     1     -10.391  14.356  66.298  1.00  0.00    -0.300 C  
HETATM   25  C   UNL     1      -9.913  14.642  65.234  1.00  0.00    -0.329 C  
ENDBRANCH  21  24
ENDBRANCH  16  18
ENDBRANCH  11  16
BRANCH  13  26
HETATM   26  O   UNL     1      -8.902   7.847  67.395  1.00  0.00    -0.126 OA 
BRANCH  26  27
HETATM   27  C   UNL     1      -8.351   9.040  66.836  1.00  0.00    -0.119 C  
BRANCH  27  28
HETATM   28  C   UNL     1      -8.915   9.304  65.444  1.00  0.00    -0.207 C  
BRANCH  28  29
HETATM   29  O   UNL     1      -9.323  10.674  65.390  1.00  0.00    -0.187 OA 
HETATM   30  C   UNL     1     -10.143  10.945  64.265  1.00  0.00    -0.351 C  
ENDBRANCH  28  29
ENDBRANCH  27  28
ENDBRANCH  26  27
ENDBRANCH  13  26
ENDBRANCH   5   6
ENDBRANCH   4   5
ENDBRANCH   3   4
ENDBRANCH   2   3
TORSDOF 11
ENDMDL
MODEL      175
REMARK 921   NORMALIZED FREE ENERGY PREDICTED BY IDOCK:   -4.06 KCAL/MOL
REMARK 922        TOTAL FREE ENERGY PREDICTED BY IDOCK:   -7.80 KCAL/MOL
REMARK 923 INTER-LIGAND FREE ENERGY PREDICTED BY IDOCK:   -6.63 KCAL/MOL
REMARK 924 INTRA-LIGAND FREE ENERGY PREDICTED BY IDOCK:   -1.17 KCAL/MOL
REMARK 927      BINDING AFFINITY PREDICTED BY RF-SCORE:    0.00 PKD
ROOT
HETATM    1  C   UNL     1      -7.575   4.180  71.473  1.00  0.00    -0.064 C  
HETATM    2  O   UNL     1      -8.809   4.635  70.931  1.00  0.00    -0.109 OA 
ENDROOT
BRANCH   2   3
HETATM    3  C   UNL     1      -8.618   5.231  69.651  1.00  0.00    -0.098 C  
BRANCH   3   4
HETATM    4  C   UNL     1      -7.890   6.565  69.794  1.00  0.00    -0.115 C  
BRANCH   4   5
HETATM    5  O   UNL     1      -8.890   7.573  69.884  1.00  0.00    -0.140 OA 
BRANCH   5   6
HETATM    6  C   UNL     1      -8.672   8.814  69.370  1.00  0.00    -0.142 A  
HETATM    7  C   UNL     1      -7.502   9.154  68.680  1.00  0.00    -0.080 A  
HETATM    8  C   UNL     1      -7.278  10.426  68.176  1.00  0.00    -0.087 A  
HETATM    9  C   UNL     1      -8.265  11.410  68.324  1.00  0.00    -0.150 A  
HETATM   10  C   UNL     1      -9.467  11.062  68.998  1.00  0.00    -0.123 A  
HETATM   11  C   UNL     1      -7.950  12.669  67.764  1.00  0.00    -0.158 A  
HETATM   12  N   UNL     1      -6.763  12.895  67.170  1.00  0.00    -0.121 NA 
HETATM   13  C   UNL     1      -9.670   9.785  69.538  1.00  0.00    -0.212 A  
HETATM   14  N   UNL     1      -6.113  10.645  67.567  1.00  0.00    -0.052 NA 
HETATM   15  C   UNL     1      -5.906  11.875  67.099  1.00  0.00    -0.144 A  
BRANCH  11  16
HETATM   16  N   UNL     1      -8.926  13.701  67.767  1.00  0.00    -0.185 NA 
HETATM   17  H   UNL     1      -9.043  14.181  68.658  1.00  0.00     0.000 HD 
BRANCH  16  18
HETATM   18  C   UNL     1      -9.760  14.166  66.721  1.00  0.00    -0.277 A  
HETATM   19  C   UNL     1     -10.617  13.259  66.073  1.00  0.00    -0.292 A  
HETATM   20  C   UNL     1     -11.269  14.944  64.461  1.00  0.00    -0.273 A  
HETATM   21  C   UNL     1     -11.364  13.643  64.950  1.00  0.00    -0.353 A  
HETATM   22  C   UNL     1      -9.676  15.464  66.198  1.00  0.00    -0.347 A  
HETATM   23  C   UNL     1     -10.430  15.857  65.090  1.00  0.00    -0.363 A  
BRANCH  21  24
HETATM   24  C   UNL     1     -12.201  12.701  64.271  1.00  0.00    -0.524 C  
HETATM   25  C   UNL     1     -12.857  11.886  63.681  1.00  0.00    -0.429 C  
ENDBRANCH  21  24
ENDBRANCH  16  18
ENDBRANCH  11  16
BRANCH  13  26
HETATM   26  O   UNL     1     -10.878   9.667  70.189  1.00  0.00    -0.241 OA 
BRANCH  26  27
HETATM   27  C   UNL     1     -11.857  10.679  69.956  1.00  0.00    -0.322 C  
BRANCH  27  28
HETATM   28  C   UNL     1     -12.852  10.754  71.109  1.00  0.00    -0.414 C  
BRANCH  28  29
HETATM   29  O   UNL     1     -13.622   9.548  71.102  1.00  0.00    -0.337 OA 
HETATM   30  C   UNL     1     -13.853   9.053  72.411  1.00  0.00    -0.475 C  
ENDBRANCH  28  29
ENDBRANCH  27  28
ENDBRANCH  26  27
ENDBRANCH  13  26
ENDBRANCH   5   6
ENDBRANCH   4   5
ENDBRANCH   3   4
ENDBRANCH   2   3
TORSDOF 11
ENDMDL
MODEL      176
REMARK 921   NORMALIZED FREE ENERGY PREDICTED BY IDOCK:   -4.05 KCAL/MOL
REMARK 922        TOTAL FREE ENERGY PREDICTED BY IDOCK:   -7.79 KCAL/MOL
REMARK 923 INTER-LIGAND FREE ENERGY PREDICTED BY IDOCK:   -6.57 KCAL/MOL
REMARK 924 INTRA-LIGAND FREE ENERGY PREDICTED BY IDOCK:   -1.22 KCAL/MOL
REMARK 927      BINDING AFFINITY PREDICTED BY RF-SCORE:    0.00 PKD
ROOT
HETATM    1  C   UNL     1      -9.645   5.960  74.421  1.00  0.00    -0.192 C  
HETATM    2  O   UNL     1      -9.593   6.926  73.377  1.00  0.00    -0.149 OA 
ENDROOT
BRANCH   2   3
HETATM    3  C   UNL     1      -9.698   6.305  72.100  1.00  0.00    -0.152 C  
BRANCH   3   4
HETATM    4  C   UNL     1     -11.152   6.301  71.634  1.00  0.00    -0.274 C  
BRANCH   4   5
HETATM    5  O   UNL     1     -11.164   6.835  70.315  1.00  0.00    -0.287 OA 
BRANCH   5   6
HETATM    6  C   UNL     1     -11.250   8.178  70.111  1.00  0.00    -0.134 A  
HETATM    7  C   UNL     1     -11.914   9.038  70.994  1.00  0.00    -0.323 A  
HETATM    8  C   UNL     1     -12.015  10.402  70.769  1.00  0.00    -0.363 A  
HETATM    9  C   UNL     1     -11.402  10.962  69.640  1.00  0.00    -0.362 A  
HETATM   10  C   UNL     1     -10.701  10.097  68.755  1.00  0.00    -0.247 A  
HETATM   11  C   UNL     1     -11.547  12.362  69.506  1.00  0.00    -0.286 A  
HETATM   12  N   UNL     1     -12.261  13.080  70.394  1.00  0.00    -0.347 NA 
HETATM   13  C   UNL     1     -10.637   8.714  68.969  1.00  0.00    -0.160 A  
HETATM   14  N   UNL     1     -12.701  11.118  71.659  1.00  0.00    -0.388 NA 
HETATM   15  C   UNL     1     -12.800  12.427  71.424  1.00  0.00    -0.260 A  
BRANCH  11  16
HETATM   16  N   UNL     1     -10.875  13.039  68.455  1.00  0.00    -0.249 NA 
HETATM   17  H   UNL     1     -11.243  12.859  67.521  1.00  0.00     0.000 HD 
BRANCH  16  18
HETATM   18  C   UNL     1      -9.772  13.926  68.504  1.00  0.00    -0.202 A  
HETATM   19  C   UNL     1     -10.009  15.309  68.609  1.00  0.00    -0.216 A  
HETATM   20  C   UNL     1      -7.648  15.785  68.353  1.00  0.00    -0.130 A  
HETATM   21  C   UNL     1      -8.956  16.232  68.530  1.00  0.00    -0.219 A  
HETATM   22  C   UNL     1      -8.448  13.508  68.314  1.00  0.00    -0.168 A  
HETATM   23  C   UNL     1      -7.393  14.422  68.252  1.00  0.00    -0.122 A  
BRANCH  21  24
HETATM   24  C   UNL     1      -9.211  17.639  68.594  1.00  0.00    -0.266 C  
HETATM   25  C   UNL     1      -9.473  18.808  68.675  1.00  0.00    -0.412 C  
ENDBRANCH  21  24
ENDBRANCH  16  18
ENDBRANCH  11  16
BRANCH  13  26
HETATM   26  O   UNL     1      -9.951   8.052  67.976  1.00  0.00    -0.165 OA 
BRANCH  26  27
HETATM   27  C   UNL     1      -8.618   7.629  68.260  1.00  0.00    -0.124 C  
BRANCH  27  28
HETATM   28  C   UNL     1      -8.334   6.262  67.646  1.00  0.00    -0.117 C  
BRANCH  28  29
HETATM   29  O   UNL     1      -9.572   5.548  67.579  1.00  0.00    -0.115 OA 
HETATM   30  C   UNL     1      -9.561   4.381  68.386  1.00  0.00    -0.140 C  
ENDBRANCH  28  29
ENDBRANCH  27  28
ENDBRANCH  26  27
ENDBRANCH  13  26
ENDBRANCH   5   6
ENDBRANCH   4   5
ENDBRANCH   3   4
ENDBRANCH   2   3
TORSDOF 11
ENDMDL
MODEL      177
REMARK 921   NORMALIZED FREE ENERGY PREDICTED BY IDOCK:   -4.04 KCAL/MOL
REMARK 922        TOTAL FREE ENERGY PREDICTED BY IDOCK:   -7.77 KCAL/MOL
REMARK 923 INTER-LIGAND FREE ENERGY PREDICTED BY IDOCK:   -6.60 KCAL/MOL
REMARK 924 INTRA-LIGAND FREE ENERGY PREDICTED BY IDOCK:   -1.17 KCAL/MOL
REMARK 927      BINDING AFFINITY PREDICTED BY RF-SCORE:    0.00 PKD
ROOT
HETATM    1  C   UNL     1      -7.254   3.815  71.435  1.00  0.00    -0.033 C  
HETATM    2  O   UNL     1      -8.460   4.288  70.846  1.00  0.00    -0.080 OA 
ENDROOT
BRANCH   2   3
HETATM    3  C   UNL     1      -8.906   3.411  69.816  1.00  0.00    -0.092 C  
BRANCH   3   4
HETATM    4  C   UNL     1      -8.533   3.974  68.447  1.00  0.00    -0.092 C  
BRANCH   4   5
HETATM    5  O   UNL     1      -9.582   4.856  68.064  1.00  0.00    -0.133 OA 
BRANCH   5   6
HETATM    6  C   UNL     1      -9.432   6.204  68.177  1.00  0.00    -0.113 A  
HETATM    7  C   UNL     1      -8.314   6.886  67.681  1.00  0.00    -0.123 A  
HETATM    8  C   UNL     1      -8.158   8.257  67.818  1.00  0.00    -0.127 A  
HETATM    9  C   UNL     1      -9.165   9.007  68.441  1.00  0.00    -0.137 A  
HETATM   10  C   UNL     1     -10.315   8.323  68.920  1.00  0.00    -0.230 A  
HETATM   11  C   UNL     1      -8.921  10.397  68.518  1.00  0.00    -0.139 A  
HETATM   12  N   UNL     1      -7.777  10.935  68.054  1.00  0.00    -0.099 NA 
HETATM   13  C   UNL     1     -10.448   6.932  68.812  1.00  0.00    -0.205 A  
HETATM   14  N   UNL     1      -7.037   8.794  67.338  1.00  0.00    -0.079 NA 
HETATM   15  C   UNL     1      -6.895  10.111  67.487  1.00  0.00    -0.077 A  
BRANCH  11  16
HETATM   16  N   UNL     1      -9.925  11.257  69.035  1.00  0.00    -0.376 NA 
HETATM   17  H   UNL     1     -10.064  11.202  70.044  1.00  0.00     0.000 HD 
BRANCH  16  18
HETATM   18  C   UNL     1     -10.765  12.180  68.364  1.00  0.00    -0.228 A  
HETATM   19  C   UNL     1     -11.072  11.967  67.009  1.00  0.00    -0.351 A  
HETATM   20  C   UNL     1     -12.218  14.097  66.880  1.00  0.00    -0.400 A  
HETATM   21  C   UNL     1     -11.790  12.919  66.271  1.00  0.00    -0.477 A  
HETATM   22  C   UNL     1     -11.198  13.379  68.947  1.00  0.00    -0.320 A  
HETATM   23  C   UNL     1     -11.929  14.324  68.221  1.00  0.00    -0.346 A  
BRANCH  21  24
HETATM   24  C   UNL     1     -12.060  12.714  64.879  1.00  0.00    -0.494 C  
HETATM   25  C   UNL     1     -12.234  12.525  63.707  1.00  0.00    -0.615 C  
ENDBRANCH  21  24
ENDBRANCH  16  18
ENDBRANCH  11  16
BRANCH  13  26
HETATM   26  O   UNL     1     -11.612   6.462  69.377  1.00  0.00    -0.382 OA 
BRANCH  26  27
HETATM   27  C   UNL     1     -11.523   5.843  70.660  1.00  0.00    -0.034 C  
BRANCH  27  28
HETATM   28  C   UNL     1     -11.781   6.853  71.774  1.00  0.00    -0.302 C  
BRANCH  28  29
HETATM   29  O   UNL     1     -10.516   7.374  72.193  1.00  0.00    -0.201 OA 
HETATM   30  C   UNL     1     -10.162   6.937  73.495  1.00  0.00    -0.315 C  
ENDBRANCH  28  29
ENDBRANCH  27  28
ENDBRANCH  26  27
ENDBRANCH  13  26
ENDBRANCH   5   6
ENDBRANCH   4   5
ENDBRANCH   3   4
ENDBRANCH   2   3
TORSDOF 11
ENDMDL
MODEL      178
REMARK 921   NORMALIZED FREE ENERGY PREDICTED BY IDOCK:   -4.03 KCAL/MOL
REMARK 922        TOTAL FREE ENERGY PREDICTED BY IDOCK:   -7.76 KCAL/MOL
REMARK 923 INTER-LIGAND FREE ENERGY PREDICTED BY IDOCK:   -6.67 KCAL/MOL
REMARK 924 INTRA-LIGAND FREE ENERGY PREDICTED BY IDOCK:   -1.09 KCAL/MOL
REMARK 927      BINDING AFFINITY PREDICTED BY RF-SCORE:    0.00 PKD
ROOT
HETATM    1  C   UNL     1     -10.751   5.573  73.269  1.00  0.00    -0.274 C  
HETATM    2  O   UNL     1     -10.636   6.976  73.482  1.00  0.00    -0.332 OA 
ENDROOT
BRANCH   2   3
HETATM    3  C   UNL     1      -9.270   7.382  73.486  1.00  0.00    -0.227 C  
BRANCH   3   4
HETATM    4  C   UNL     1      -9.010   8.366  72.348  1.00  0.00    -0.239 C  
BRANCH   4   5
HETATM    5  O   UNL     1      -8.619   7.595  71.218  1.00  0.00    -0.118 OA 
BRANCH   5   6
HETATM    6  C   UNL     1      -8.530   8.166  69.985  1.00  0.00    -0.128 A  
HETATM    7  C   UNL     1      -7.316   8.589  69.431  1.00  0.00    -0.069 A  
HETATM    8  C   UNL     1      -7.237   9.189  68.183  1.00  0.00    -0.079 A  
HETATM    9  C   UNL     1      -8.401   9.351  67.421  1.00  0.00    -0.125 A  
HETATM   10  C   UNL     1      -9.633   8.896  67.966  1.00  0.00    -0.167 A  
HETATM   11  C   UNL     1      -8.215   9.957  66.157  1.00  0.00    -0.118 A  
HETATM   12  N   UNL     1      -7.001  10.377  65.753  1.00  0.00    -0.131 NA 
HETATM   13  C   UNL     1      -9.710   8.326  69.245  1.00  0.00    -0.177 A  
HETATM   14  N   UNL     1      -6.032   9.583  67.772  1.00  0.00    -0.051 NA 
HETATM   15  C   UNL     1      -5.972  10.169  66.576  1.00  0.00    -0.062 A  
BRANCH  11  16
HETATM   16  N   UNL     1      -9.314  10.070  65.266  1.00  0.00    -0.216 NA 
HETATM   17  H   UNL     1      -9.455   9.270  64.651  1.00  0.00     0.000 HD 
BRANCH  16  18
HETATM   18  C   UNL     1     -10.245  11.125  65.101  1.00  0.00    -0.289 A  
HETATM   19  C   UNL     1     -10.433  12.044  66.148  1.00  0.00    -0.271 A  
HETATM   20  C   UNL     1     -12.259  13.104  64.962  1.00  0.00    -0.488 A  
HETATM   21  C   UNL     1     -11.433  13.024  66.081  1.00  0.00    -0.381 A  
HETATM   22  C   UNL     1     -11.099  11.222  63.993  1.00  0.00    -0.316 A  
HETATM   23  C   UNL     1     -12.086  12.207  63.913  1.00  0.00    -0.584 A  
BRANCH  21  24
HETATM   24  C   UNL     1     -11.645  13.929  67.171  1.00  0.00    -0.391 C  
HETATM   25  C   UNL     1     -11.774  14.670  68.107  1.00  0.00    -0.360 C  
ENDBRANCH  21  24
ENDBRANCH  16  18
ENDBRANCH  11  16
BRANCH  13  26
HETATM   26  O   UNL     1     -10.997   7.995  69.603  1.00  0.00    -0.210 OA 
BRANCH  26  27
HETATM   27  C   UNL     1     -11.268   6.628  69.911  1.00  0.00    -0.364 C  
BRANCH  27  28
HETATM   28  C   UNL     1     -10.877   5.717  68.752  1.00  0.00    -0.215 C  
BRANCH  28  29
HETATM   29  O   UNL     1     -10.045   4.677  69.274  1.00  0.00    -0.193 OA 
HETATM   30  C   UNL     1      -8.785   4.624  68.626  1.00  0.00    -0.097 C  
ENDBRANCH  28  29
ENDBRANCH  27  28
ENDBRANCH  26  27
ENDBRANCH  13  26
ENDBRANCH   5   6
ENDBRANCH   4   5
ENDBRANCH   3   4
ENDBRANCH   2   3
TORSDOF 11
ENDMDL
MODEL      179
REMARK 921   NORMALIZED FREE ENERGY PREDICTED BY IDOCK:   -4.02 KCAL/MOL
REMARK 922        TOTAL FREE ENERGY PREDICTED BY IDOCK:   -7.75 KCAL/MOL
REMARK 923 INTER-LIGAND FREE ENERGY PREDICTED BY IDOCK:   -8.12 KCAL/MOL
REMARK 924 INTRA-LIGAND FREE ENERGY PREDICTED BY IDOCK:    0.37 KCAL/MOL
REMARK 927      BINDING AFFINITY PREDICTED BY RF-SCORE:    0.00 PKD
ROOT
HETATM    1  C   UNL     1      -8.213   8.435  70.901  1.00  0.00    -0.119 C  
HETATM    2  O   UNL     1      -9.211   9.395  70.571  1.00  0.00    -0.237 OA 
ENDROOT
BRANCH   2   3
HETATM    3  C   UNL     1     -10.148   8.860  69.641  1.00  0.00    -0.200 C  
BRANCH   3   4
HETATM    4  C   UNL     1      -9.628   9.024  68.215  1.00  0.00    -0.145 C  
BRANCH   4   5
HETATM    5  O   UNL     1     -10.620   9.746  67.494  1.00  0.00    -0.246 OA 
BRANCH   5   6
HETATM    6  C   UNL     1     -10.622  11.107  67.491  1.00  0.00    -0.221 A  
HETATM    7  C   UNL     1     -11.462  11.865  68.316  1.00  0.00    -0.372 A  
HETATM    8  C   UNL     1     -11.474  13.251  68.292  1.00  0.00    -0.316 A  
HETATM    9  C   UNL     1     -10.591  13.934  67.444  1.00  0.00    -0.267 A  
HETATM   10  C   UNL     1      -9.716  13.169  66.626  1.00  0.00    -0.261 A  
HETATM   11  C   UNL     1     -10.667  15.345  67.504  1.00  0.00    -0.295 A  
HETATM   12  N   UNL     1     -11.560  15.965  68.299  1.00  0.00    -0.325 NA 
HETATM   13  C   UNL     1      -9.738  11.768  66.627  1.00  0.00    -0.202 A  
HETATM   14  N   UNL     1     -12.340  13.868  69.096  1.00  0.00    -0.244 NA 
HETATM   15  C   UNL     1     -12.348  15.200  69.055  1.00  0.00    -0.015 A  
BRANCH  11  16
HETATM   16  N   UNL     1      -9.744  16.128  66.763  1.00  0.00    -0.233 NA 
HETATM   17  H   UNL     1      -9.227  15.622  66.045  1.00  0.00     0.000 HD 
BRANCH  16  18
HETATM   18  C   UNL     1      -9.431  17.506  66.868  1.00  0.00    -0.274 A  
HETATM   19  C   UNL     1      -8.455  17.918  67.792  1.00  0.00    -0.242 A  
HETATM   20  C   UNL     1      -8.925  20.248  67.328  1.00  0.00    -0.472 A  
HETATM   21  C   UNL     1      -8.205  19.279  68.023  1.00  0.00    -0.346 A  
HETATM   22  C   UNL     1     -10.148  18.503  66.193  1.00  0.00    -0.391 A  
HETATM   23  C   UNL     1      -9.891  19.861  66.406  1.00  0.00    -0.572 A  
BRANCH  21  24
HETATM   24  C   UNL     1      -7.239  19.690  68.997  1.00  0.00    -0.379 C  
HETATM   25  C   UNL     1      -6.455  20.086  69.815  1.00  0.00    -0.370 C  
ENDBRANCH  21  24
ENDBRANCH  16  18
ENDBRANCH  11  16
BRANCH  13  26
HETATM   26  O   UNL     1      -8.845  11.221  65.733  1.00  0.00    -0.196 OA 
BRANCH  26  27
HETATM   27  C   UNL     1      -9.264  11.090  64.375  1.00  0.00    -0.158 C  
BRANCH  27  28
HETATM   28  C   UNL     1     -10.783  10.996  64.277  1.00  0.00    -0.278 C  
BRANCH  28  29
HETATM   29  O   UNL     1     -11.313  12.318  64.410  1.00  0.00    -0.307 OA 
HETATM   30  C   UNL     1     -12.591  12.445  63.809  1.00  0.00    -0.437 C  
ENDBRANCH  28  29
ENDBRANCH  27  28
ENDBRANCH  26  27
ENDBRANCH  13  26
ENDBRANCH   5   6
ENDBRANCH   4   5
ENDBRANCH   3   4
ENDBRANCH   2   3
TORSDOF 11
ENDMDL
MODEL      180
REMARK 921   NORMALIZED FREE ENERGY PREDICTED BY IDOCK:   -4.02 KCAL/MOL
REMARK 922        TOTAL FREE ENERGY PREDICTED BY IDOCK:   -7.74 KCAL/MOL
REMARK 923 INTER-LIGAND FREE ENERGY PREDICTED BY IDOCK:   -6.86 KCAL/MOL
REMARK 924 INTRA-LIGAND FREE ENERGY PREDICTED BY IDOCK:   -0.88 KCAL/MOL
REMARK 927      BINDING AFFINITY PREDICTED BY RF-SCORE:    0.00 PKD
ROOT
HETATM    1  C   UNL     1     -10.411  17.127  68.866  1.00  0.00    -0.346 C  
HETATM    2  O   UNL     1     -11.473  16.490  68.165  1.00  0.00    -0.251 OA 
ENDROOT
BRANCH   2   3
HETATM    3  C   UNL     1     -11.737  15.196  68.701  1.00  0.00    -0.341 C  
BRANCH   3   4
HETATM    4  C   UNL     1     -10.730  14.186  68.158  1.00  0.00    -0.245 C  
BRANCH   4   5
HETATM    5  O   UNL     1     -11.467  13.242  67.389  1.00  0.00    -0.297 OA 
BRANCH   5   6
HETATM    6  C   UNL     1     -10.933  12.027  67.085  1.00  0.00    -0.270 A  
HETATM    7  C   UNL     1      -9.956  11.854  66.097  1.00  0.00    -0.254 A  
HETATM    8  C   UNL     1      -9.431  10.610  65.780  1.00  0.00    -0.200 A  
HETATM    9  C   UNL     1      -9.857   9.480  66.490  1.00  0.00    -0.305 A  
HETATM   10  C   UNL     1     -10.828   9.655  67.515  1.00  0.00    -0.265 A  
HETATM   11  C   UNL     1      -9.253   8.261  66.105  1.00  0.00    -0.192 A  
HETATM   12  N   UNL     1      -8.362   8.209  65.096  1.00  0.00    -0.153 NA 
HETATM   13  C   UNL     1     -11.381  10.909  67.803  1.00  0.00    -0.292 A  
HETATM   14  N   UNL     1      -8.532  10.560  64.797  1.00  0.00    -0.170 NA 
HETATM   15  C   UNL     1      -8.045   9.357  64.495  1.00  0.00    -0.136 A  
BRANCH  11  16
HETATM   16  N   UNL     1      -9.538   7.077  66.833  1.00  0.00    -0.161 NA 
HETATM   17  H   UNL     1     -10.200   7.190  67.600  1.00  0.00     0.000 HD 
BRANCH  16  18
HETATM   18  C   UNL     1      -9.043   5.761  66.657  1.00  0.00    -0.132 A  
HETATM   19  C   UNL     1      -9.551   4.972  65.610  1.00  0.00    -0.138 A  
HETATM   20  C   UNL     1      -8.305   3.046  66.386  1.00  0.00    -0.098 A  
HETATM   21  C   UNL     1      -9.188   3.624  65.476  1.00  0.00    -0.155 A  
HETATM   22  C   UNL     1      -8.166   5.149  67.563  1.00  0.00    -0.103 A  
HETATM   23  C   UNL     1      -7.788   3.811  67.425  1.00  0.00    -0.083 A  
BRANCH  21  24
HETATM   24  C   UNL     1      -9.744   2.817  64.433  1.00  0.00    -0.124 C  
HETATM   25  C   UNL     1     -10.166   2.105  63.563  1.00  0.00    -0.148 C  
ENDBRANCH  21  24
ENDBRANCH  16  18
ENDBRANCH  11  16
BRANCH  13  26
HETATM   26  O   UNL     1     -12.334  10.856  68.796  1.00  0.00    -0.495 OA 
BRANCH  26  27
HETATM   27  C   UNL     1     -11.928  11.193  70.122  1.00  0.00    -0.365 C  
BRANCH  27  28
HETATM   28  C   UNL     1     -11.723   9.941  70.968  1.00  0.00    -0.382 C  
BRANCH  28  29
HETATM   29  O   UNL     1     -12.747   9.916  71.967  1.00  0.00    -0.392 OA 
HETATM   30  C   UNL     1     -13.821   9.060  71.612  1.00  0.00    -0.368 C  
ENDBRANCH  28  29
ENDBRANCH  27  28
ENDBRANCH  26  27
ENDBRANCH  13  26
ENDBRANCH   5   6
ENDBRANCH   4   5
ENDBRANCH   3   4
ENDBRANCH   2   3
TORSDOF 11
ENDMDL
MODEL      181
REMARK 921   NORMALIZED FREE ENERGY PREDICTED BY IDOCK:   -3.98 KCAL/MOL
REMARK 922        TOTAL FREE ENERGY PREDICTED BY IDOCK:   -7.68 KCAL/MOL
REMARK 923 INTER-LIGAND FREE ENERGY PREDICTED BY IDOCK:   -6.57 KCAL/MOL
REMARK 924 INTRA-LIGAND FREE ENERGY PREDICTED BY IDOCK:   -1.11 KCAL/MOL
REMARK 927      BINDING AFFINITY PREDICTED BY RF-SCORE:    0.00 PKD
ROOT
HETATM    1  C   UNL     1      -7.945   8.809  62.475  1.00  0.00    -0.147 C  
HETATM    2  O   UNL     1      -9.149   9.411  62.935  1.00  0.00    -0.234 OA 
ENDROOT
BRANCH   2   3
HETATM    3  C   UNL     1      -9.136  10.818  62.712  1.00  0.00    -0.311 C  
BRANCH   3   4
HETATM    4  C   UNL     1     -10.260  11.487  63.499  1.00  0.00    -0.420 C  
BRANCH   4   5
HETATM    5  O   UNL     1     -10.138  11.048  64.848  1.00  0.00    -0.258 OA 
BRANCH   5   6
HETATM    6  C   UNL     1      -9.287  11.674  65.706  1.00  0.00    -0.205 A  
HETATM    7  C   UNL     1      -7.997  11.201  65.974  1.00  0.00    -0.041 A  
HETATM    8  C   UNL     1      -7.143  11.833  66.866  1.00  0.00    -0.097 A  
HETATM    9  C   UNL     1      -7.558  13.010  67.501  1.00  0.00    -0.166 A  
HETATM   10  C   UNL     1      -8.857  13.511  67.210  1.00  0.00    -0.225 A  
HETATM   11  C   UNL     1      -6.612  13.588  68.379  1.00  0.00    -0.095 A  
HETATM   12  N   UNL     1      -5.418  13.009  68.602  1.00  0.00    -0.067 NA 
HETATM   13  C   UNL     1      -9.728  12.845  66.338  1.00  0.00    -0.263 A  
HETATM   14  N   UNL     1      -5.951  11.273  67.069  1.00  0.00    -0.085 NA 
HETATM   15  C   UNL     1      -5.145  11.885  67.937  1.00  0.00    -0.055 A  
BRANCH  11  16
HETATM   16  N   UNL     1      -6.896  14.838  68.990  1.00  0.00    -0.105 NA 
HETATM   17  H   UNL     1      -7.188  14.785  69.966  1.00  0.00     0.000 HD 
BRANCH  16  18
HETATM   18  C   UNL     1      -6.834  16.147  68.453  1.00  0.00    -0.128 A  
HETATM   19  C   UNL     1      -7.931  17.010  68.623  1.00  0.00    -0.258 A  
HETATM   20  C   UNL     1      -6.906  18.680  67.200  1.00  0.00    -0.207 A  
HETATM   21  C   UNL     1      -7.969  18.265  68.000  1.00  0.00    -0.273 A  
HETATM   22  C   UNL     1      -5.785  16.586  67.633  1.00  0.00    -0.159 A  
HETATM   23  C   UNL     1      -5.810  17.843  67.023  1.00  0.00    -0.166 A  
BRANCH  21  24
HETATM   24  C   UNL     1      -9.109  19.120  68.144  1.00  0.00    -0.371 C  
HETATM   25  C   UNL     1     -10.086  19.800  68.302  1.00  0.00    -0.575 C  
ENDBRANCH  21  24
ENDBRANCH  16  18
ENDBRANCH  11  16
BRANCH  13  26
HETATM   26  O   UNL     1     -10.951  13.469  66.227  1.00  0.00    -0.287 OA 
BRANCH  26  27
HETATM   27  C   UNL     1     -11.698  13.678  67.424  1.00  0.00    -0.381 C  
BRANCH  27  28
HETATM   28  C   UNL     1     -11.844  12.380  68.212  1.00  0.00    -0.309 C  
BRANCH  28  29
HETATM   29  O   UNL     1     -11.811  12.708  69.604  1.00  0.00    -0.307 OA 
HETATM   30  C   UNL     1     -11.916  11.557  70.427  1.00  0.00    -0.368 C  
ENDBRANCH  28  29
ENDBRANCH  27  28
ENDBRANCH  26  27
ENDBRANCH  13  26
ENDBRANCH   5   6
ENDBRANCH   4   5
ENDBRANCH   3   4
ENDBRANCH   2   3
TORSDOF 11
ENDMDL
MODEL      182
REMARK 921   NORMALIZED FREE ENERGY PREDICTED BY IDOCK:   -3.97 KCAL/MOL
REMARK 922        TOTAL FREE ENERGY PREDICTED BY IDOCK:   -7.66 KCAL/MOL
REMARK 923 INTER-LIGAND FREE ENERGY PREDICTED BY IDOCK:   -6.38 KCAL/MOL
REMARK 924 INTRA-LIGAND FREE ENERGY PREDICTED BY IDOCK:   -1.28 KCAL/MOL
REMARK 927      BINDING AFFINITY PREDICTED BY RF-SCORE:    0.00 PKD
ROOT
HETATM    1  C   UNL     1      -6.484  10.655  64.509  1.00  0.00     0.141 C  
HETATM    2  O   UNL     1      -6.758   9.350  64.010  1.00  0.00    -0.090 OA 
ENDROOT
BRANCH   2   3
HETATM    3  C   UNL     1      -7.153   8.473  65.061  1.00  0.00    -0.079 C  
BRANCH   3   4
HETATM    4  C   UNL     1      -8.639   8.143  64.940  1.00  0.00    -0.012 C  
BRANCH   4   5
HETATM    5  O   UNL     1      -9.236   8.459  66.193  1.00  0.00    -0.189 OA 
BRANCH   5   6
HETATM    6  C   UNL     1      -9.685   9.718  66.449  1.00  0.00    -0.216 A  
HETATM    7  C   UNL     1     -10.661  10.348  65.667  1.00  0.00    -0.096 A  
HETATM    8  C   UNL     1     -11.099  11.639  65.922  1.00  0.00    -0.264 A  
HETATM    9  C   UNL     1     -10.583  12.337  67.022  1.00  0.00    -0.248 A  
HETATM   10  C   UNL     1      -9.614  11.691  67.836  1.00  0.00    -0.180 A  
HETATM   11  C   UNL     1     -11.103  13.639  67.208  1.00  0.00    -0.293 A  
HETATM   12  N   UNL     1     -12.002  14.163  66.352  1.00  0.00    -0.420 NA 
HETATM   13  C   UNL     1      -9.148  10.401  67.549  1.00  0.00    -0.134 A  
HETATM   14  N   UNL     1     -12.006  12.150  65.090  1.00  0.00    -0.360 NA 
HETATM   15  C   UNL     1     -12.409  13.396  65.340  1.00  0.00    -0.477 A  
BRANCH  11  16
HETATM   16  N   UNL     1     -10.724  14.388  68.352  1.00  0.00    -0.239 NA 
HETATM   17  H   UNL     1     -11.048  14.011  69.242  1.00  0.00     0.000 HD 
BRANCH  16  18
HETATM   18  C   UNL     1      -9.963  15.579  68.448  1.00  0.00    -0.214 A  
HETATM   19  C   UNL     1     -10.442  16.749  67.832  1.00  0.00    -0.335 A  
HETATM   20  C   UNL     1      -8.397  17.931  68.367  1.00  0.00    -0.307 A  
HETATM   21  C   UNL     1      -9.665  17.915  67.789  1.00  0.00    -0.283 A  
HETATM   22  C   UNL     1      -8.680  15.621  69.010  1.00  0.00    -0.240 A  
HETATM   23  C   UNL     1      -7.908  16.785  68.985  1.00  0.00    -0.201 A  
BRANCH  21  24
HETATM   24  C   UNL     1     -10.142  19.089  67.122  1.00  0.00    -0.435 C  
HETATM   25  C   UNL     1     -10.535  20.047  66.513  1.00  0.00    -0.525 C  
ENDBRANCH  21  24
ENDBRANCH  16  18
ENDBRANCH  11  16
BRANCH  13  26
HETATM   26  O   UNL     1      -8.180   9.975  68.431  1.00  0.00    -0.103 OA 
BRANCH  26  27
HETATM   27  C   UNL     1      -8.387  10.238  69.819  1.00  0.00    -0.080 C  
BRANCH  27  28
HETATM   28  C   UNL     1      -8.839   8.980  70.553  1.00  0.00    -0.208 C  
BRANCH  28  29
HETATM   29  O   UNL     1      -8.580   7.860  69.701  1.00  0.00    -0.131 OA 
HETATM   30  C   UNL     1      -9.759   7.128  69.407  1.00  0.00    -0.160 C  
ENDBRANCH  28  29
ENDBRANCH  27  28
ENDBRANCH  26  27
ENDBRANCH  13  26
ENDBRANCH   5   6
ENDBRANCH   4   5
ENDBRANCH   3   4
ENDBRANCH   2   3
TORSDOF 11
ENDMDL
MODEL      183
REMARK 921   NORMALIZED FREE ENERGY PREDICTED BY IDOCK:   -3.97 KCAL/MOL
REMARK 922        TOTAL FREE ENERGY PREDICTED BY IDOCK:   -7.66 KCAL/MOL
REMARK 923 INTER-LIGAND FREE ENERGY PREDICTED BY IDOCK:   -6.41 KCAL/MOL
REMARK 924 INTRA-LIGAND FREE ENERGY PREDICTED BY IDOCK:   -1.25 KCAL/MOL
REMARK 927      BINDING AFFINITY PREDICTED BY RF-SCORE:    0.00 PKD
ROOT
HETATM    1  C   UNL     1      -9.306   5.337  71.849  1.00  0.00    -0.141 C  
HETATM    2  O   UNL     1      -8.998   6.315  72.836  1.00  0.00    -0.126 OA 
ENDROOT
BRANCH   2   3
HETATM    3  C   UNL     1      -7.837   7.057  72.475  1.00  0.00    -0.093 C  
BRANCH   3   4
HETATM    4  C   UNL     1      -8.238   8.387  71.842  1.00  0.00    -0.158 C  
BRANCH   4   5
HETATM    5  O   UNL     1      -7.454   8.537  70.664  1.00  0.00    -0.056 OA 
BRANCH   5   6
HETATM    6  C   UNL     1      -7.437   9.718  69.987  1.00  0.00    -0.154 A  
HETATM    7  C   UNL     1      -6.520  10.738  70.267  1.00  0.00    -0.128 A  
HETATM    8  C   UNL     1      -6.522  11.947  69.587  1.00  0.00    -0.101 A  
HETATM    9  C   UNL     1      -7.445  12.155  68.554  1.00  0.00    -0.117 A  
HETATM   10  C   UNL     1      -8.359  11.111  68.246  1.00  0.00    -0.143 A  
HETATM   11  C   UNL     1      -7.357  13.412  67.911  1.00  0.00    -0.140 A  
HETATM   12  N   UNL     1      -6.467  14.341  68.307  1.00  0.00    -0.103 NA 
HETATM   13  C   UNL     1      -8.376   9.907  68.963  1.00  0.00    -0.130 A  
HETATM   14  N   UNL     1      -5.625  12.859  69.962  1.00  0.00    -0.113 NA 
HETATM   15  C   UNL     1      -5.646  14.020  69.308  1.00  0.00    -0.083 A  
BRANCH  11  16
HETATM   16  N   UNL     1      -8.177  13.680  66.783  1.00  0.00    -0.396 NA 
HETATM   17  H   UNL     1      -7.672  13.909  65.927  1.00  0.00     0.000 HD 
BRANCH  16  18
HETATM   18  C   UNL     1      -9.588  13.678  66.664  1.00  0.00    -0.283 A  
HETATM   19  C   UNL     1     -10.185  12.999  65.587  1.00  0.00    -0.296 A  
HETATM   20  C   UNL     1     -12.373  13.832  66.205  1.00  0.00    -0.496 A  
HETATM   21  C   UNL     1     -11.565  13.078  65.356  1.00  0.00    -0.374 A  
HETATM   22  C   UNL     1     -10.424  14.439  67.493  1.00  0.00    -0.252 A  
HETATM   23  C   UNL     1     -11.803  14.507  67.279  1.00  0.00    -0.419 A  
BRANCH  21  24
HETATM   24  C   UNL     1     -12.158  12.418  64.232  1.00  0.00    -0.516 C  
HETATM   25  C   UNL     1     -12.704  11.865  63.317  1.00  0.00    -0.407 C  
ENDBRANCH  21  24
ENDBRANCH  16  18
ENDBRANCH  11  16
BRANCH  13  26
HETATM   26  O   UNL     1      -9.364   9.047  68.538  1.00  0.00    -0.139 OA 
BRANCH  26  27
HETATM   27  C   UNL     1     -10.718   9.474  68.680  1.00  0.00    -0.184 C  
BRANCH  27  28
HETATM   28  C   UNL     1     -11.134   9.499  70.147  1.00  0.00    -0.255 C  
BRANCH  28  29
HETATM   29  O   UNL     1     -12.214  10.429  70.279  1.00  0.00    -0.284 OA 
HETATM   30  C   UNL     1     -11.923  11.677  69.671  1.00  0.00    -0.324 C  
ENDBRANCH  28  29
ENDBRANCH  27  28
ENDBRANCH  26  27
ENDBRANCH  13  26
ENDBRANCH   5   6
ENDBRANCH   4   5
ENDBRANCH   3   4
ENDBRANCH   2   3
TORSDOF 11
ENDMDL
MODEL      184
REMARK 921   NORMALIZED FREE ENERGY PREDICTED BY IDOCK:   -3.97 KCAL/MOL
REMARK 922        TOTAL FREE ENERGY PREDICTED BY IDOCK:   -7.66 KCAL/MOL
REMARK 923 INTER-LIGAND FREE ENERGY PREDICTED BY IDOCK:   -6.87 KCAL/MOL
REMARK 924 INTRA-LIGAND FREE ENERGY PREDICTED BY IDOCK:   -0.79 KCAL/MOL
REMARK 927      BINDING AFFINITY PREDICTED BY RF-SCORE:    0.00 PKD
ROOT
HETATM    1  C   UNL     1      -8.396   3.261  64.878  1.00  0.00    -0.094 C  
HETATM    2  O   UNL     1      -8.163   2.966  66.251  1.00  0.00    -0.085 OA 
ENDROOT
BRANCH   2   3
HETATM    3  C   UNL     1      -7.859   4.149  66.984  1.00  0.00    -0.096 C  
BRANCH   3   4
HETATM    4  C   UNL     1      -7.695   5.331  66.033  1.00  0.00    -0.091 C  
BRANCH   4   5
HETATM    5  O   UNL     1      -7.393   6.467  66.834  1.00  0.00    -0.076 OA 
BRANCH   5   6
HETATM    6  C   UNL     1      -8.297   7.474  66.980  1.00  0.00    -0.121 A  
HETATM    7  C   UNL     1      -8.590   8.384  65.957  1.00  0.00    -0.164 A  
HETATM    8  C   UNL     1      -9.498   9.419  66.120  1.00  0.00    -0.226 A  
HETATM    9  C   UNL     1     -10.184   9.551  67.335  1.00  0.00    -0.285 A  
HETATM   10  C   UNL     1      -9.911   8.612  68.367  1.00  0.00    -0.204 A  
HETATM   11  C   UNL     1     -11.099  10.626  67.398  1.00  0.00    -0.272 A  
HETATM   12  N   UNL     1     -11.255  11.475  66.364  1.00  0.00    -0.288 NA 
HETATM   13  C   UNL     1      -8.964   7.591  68.208  1.00  0.00    -0.130 A  
HETATM   14  N   UNL     1      -9.672  10.246  65.089  1.00  0.00    -0.277 NA 
HETATM   15  C   UNL     1     -10.539  11.243  65.263  1.00  0.00    -0.261 A  
BRANCH  11  16
HETATM   16  N   UNL     1     -11.919  10.782  68.546  1.00  0.00    -0.793 NA 
HETATM   17  H   UNL     1     -12.420   9.943  68.836  1.00  0.00     0.000 HD 
BRANCH  16  18
HETATM   18  C   UNL     1     -12.148  11.925  69.351  1.00  0.00    -0.216 A  
HETATM   19  C   UNL     1     -11.875  13.200  68.825  1.00  0.00    -0.361 A  
HETATM   20  C   UNL     1     -12.331  14.239  70.965  1.00  0.00    -0.431 A  
HETATM   21  C   UNL     1     -11.962  14.348  69.625  1.00  0.00    -0.385 A  
HETATM   22  C   UNL     1     -12.505  11.845  70.704  1.00  0.00    -0.347 A  
HETATM   23  C   UNL     1     -12.610  12.987  71.503  1.00  0.00    -0.279 A  
BRANCH  21  24
HETATM   24  C   UNL     1     -11.640  15.637  69.093  1.00  0.00    -0.393 C  
HETATM   25  C   UNL     1     -11.316  16.710  68.662  1.00  0.00    -0.155 C  
ENDBRANCH  21  24
ENDBRANCH  16  18
ENDBRANCH  11  16
BRANCH  13  26
HETATM   26  O   UNL     1      -8.818   6.819  69.338  1.00  0.00    -0.135 OA 
BRANCH  26  27
HETATM   27  C   UNL     1      -9.916   5.992  69.722  1.00  0.00    -0.175 C  
BRANCH  27  28
HETATM   28  C   UNL     1     -10.221   6.142  71.208  1.00  0.00    -0.207 C  
BRANCH  28  29
HETATM   29  O   UNL     1     -11.641   6.076  71.371  1.00  0.00    -0.262 OA 
HETATM   30  C   UNL     1     -12.011   5.628  72.665  1.00  0.00    -0.056 C  
ENDBRANCH  28  29
ENDBRANCH  27  28
ENDBRANCH  26  27
ENDBRANCH  13  26
ENDBRANCH   5   6
ENDBRANCH   4   5
ENDBRANCH   3   4
ENDBRANCH   2   3
TORSDOF 11
ENDMDL
MODEL      185
REMARK 921   NORMALIZED FREE ENERGY PREDICTED BY IDOCK:   -3.96 KCAL/MOL
REMARK 922        TOTAL FREE ENERGY PREDICTED BY IDOCK:   -7.65 KCAL/MOL
REMARK 923 INTER-LIGAND FREE ENERGY PREDICTED BY IDOCK:   -6.83 KCAL/MOL
REMARK 924 INTRA-LIGAND FREE ENERGY PREDICTED BY IDOCK:   -0.82 KCAL/MOL
REMARK 927      BINDING AFFINITY PREDICTED BY RF-SCORE:    0.00 PKD
ROOT
HETATM    1  C   UNL     1      -6.812  19.511  65.721  1.00  0.00    -0.278 C  
HETATM    2  O   UNL     1      -5.604  18.843  66.065  1.00  0.00    -0.149 OA 
ENDROOT
BRANCH   2   3
HETATM    3  C   UNL     1      -5.868  17.547  66.594  1.00  0.00    -0.191 C  
BRANCH   3   4
HETATM    4  C   UNL     1      -6.727  17.657  67.852  1.00  0.00    -0.188 C  
BRANCH   4   5
HETATM    5  O   UNL     1      -6.442  16.513  68.648  1.00  0.00    -0.133 OA 
BRANCH   5   6
HETATM    6  C   UNL     1      -7.030  15.315  68.376  1.00  0.00    -0.111 A  
HETATM    7  C   UNL     1      -6.340  14.249  67.787  1.00  0.00    -0.168 A  
HETATM    8  C   UNL     1      -6.950  13.039  67.494  1.00  0.00    -0.151 A  
HETATM    9  C   UNL     1      -8.297  12.847  67.829  1.00  0.00    -0.178 A  
HETATM   10  C   UNL     1      -8.995  13.917  68.454  1.00  0.00    -0.178 A  
HETATM   11  C   UNL     1      -8.825  11.576  67.505  1.00  0.00    -0.155 A  
HETATM   12  N   UNL     1      -8.077  10.645  66.884  1.00  0.00    -0.120 NA 
HETATM   13  C   UNL     1      -8.381  15.150  68.711  1.00  0.00    -0.175 A  
HETATM   14  N   UNL     1      -6.204  12.107  66.901  1.00  0.00    -0.179 NA 
HETATM   15  C   UNL     1      -6.807  10.953  66.615  1.00  0.00    -0.127 A  
BRANCH  11  16
HETATM   16  N   UNL     1     -10.148  11.246  67.898  1.00  0.00    -0.174 NA 
HETATM   17  H   UNL     1     -10.853  11.342  67.167  1.00  0.00     0.000 HD 
BRANCH  16  18
HETATM   18  C   UNL     1     -10.640  10.803  69.150  1.00  0.00    -0.222 A  
HETATM   19  C   UNL     1      -9.827   9.988  69.957  1.00  0.00    -0.247 A  
HETATM   20  C   UNL     1     -11.630   9.666  71.542  1.00  0.00    -0.451 A  
HETATM   21  C   UNL     1     -10.318   9.420  71.142  1.00  0.00    -0.377 A  
HETATM   22  C   UNL     1     -11.959  11.022  69.572  1.00  0.00    -0.413 A  
HETATM   23  C   UNL     1     -12.449  10.473  70.760  1.00  0.00    -0.472 A  
BRANCH  21  24
HETATM   24  C   UNL     1      -9.496   8.556  71.934  1.00  0.00    -0.350 C  
HETATM   25  C   UNL     1      -8.808   7.870  72.640  1.00  0.00    -0.235 C  
ENDBRANCH  21  24
ENDBRANCH  16  18
ENDBRANCH  11  16
BRANCH  13  26
HETATM   26  O   UNL     1      -9.239  16.064  69.280  1.00  0.00    -0.247 OA 
BRANCH  26  27
HETATM   27  C   UNL     1     -10.617  15.706  69.379  1.00  0.00    -0.253 C  
BRANCH  27  28
HETATM   28  C   UNL     1     -11.370  16.068  68.104  1.00  0.00    -0.289 C  
BRANCH  28  29
HETATM   29  O   UNL     1     -12.101  14.912  67.684  1.00  0.00    -0.253 OA 
HETATM   30  C   UNL     1     -11.736  14.492  66.380  1.00  0.00    -0.363 C  
ENDBRANCH  28  29
ENDBRANCH  27  28
ENDBRANCH  26  27
ENDBRANCH  13  26
ENDBRANCH   5   6
ENDBRANCH   4   5
ENDBRANCH   3   4
ENDBRANCH   2   3
TORSDOF 11
ENDMDL
MODEL      186
REMARK 921   NORMALIZED FREE ENERGY PREDICTED BY IDOCK:   -3.95 KCAL/MOL
REMARK 922        TOTAL FREE ENERGY PREDICTED BY IDOCK:   -7.63 KCAL/MOL
REMARK 923 INTER-LIGAND FREE ENERGY PREDICTED BY IDOCK:   -6.71 KCAL/MOL
REMARK 924 INTRA-LIGAND FREE ENERGY PREDICTED BY IDOCK:   -0.93 KCAL/MOL
REMARK 927      BINDING AFFINITY PREDICTED BY RF-SCORE:    0.00 PKD
ROOT
HETATM    1  C   UNL     1     -12.156  14.387  64.425  1.00  0.00    -0.470 C  
HETATM    2  O   UNL     1     -11.465  14.776  65.607  1.00  0.00    -0.348 OA 
ENDROOT
BRANCH   2   3
HETATM    3  C   UNL     1     -12.104  14.257  66.769  1.00  0.00    -0.417 C  
BRANCH   3   4
HETATM    4  C   UNL     1     -11.062  13.739  67.756  1.00  0.00    -0.268 C  
BRANCH   4   5
HETATM    5  O   UNL     1     -10.653  12.458  67.291  1.00  0.00    -0.220 OA 
BRANCH   5   6
HETATM    6  C   UNL     1     -10.852  11.347  68.053  1.00  0.00    -0.217 A  
HETATM    7  C   UNL     1     -11.432  11.395  69.326  1.00  0.00    -0.370 A  
HETATM    8  C   UNL     1     -11.613  10.262  70.105  1.00  0.00    -0.299 A  
HETATM    9  C   UNL     1     -11.242   9.010  69.597  1.00  0.00     0.007 A  
HETATM   10  C   UNL     1     -10.680   8.952  68.292  1.00  0.00    -0.135 A  
HETATM   11  C   UNL     1     -11.480   7.914  70.458  1.00  0.00    -0.195 A  
HETATM   12  N   UNL     1     -11.993   8.091  71.690  1.00  0.00    -0.286 NA 
HETATM   13  C   UNL     1     -10.464  10.107  67.527  1.00  0.00    -0.253 A  
HETATM   14  N   UNL     1     -12.143  10.432  71.316  1.00  0.00    -0.370 NA 
HETATM   15  C   UNL     1     -12.300   9.336  72.057  1.00  0.00    -0.363 A  
BRANCH  11  16
HETATM   16  N   UNL     1     -11.237   6.594  69.996  1.00  0.00    -0.340 NA 
HETATM   17  H   UNL     1     -11.931   5.903  70.280  1.00  0.00     0.000 HD 
BRANCH  16  18
HETATM   18  C   UNL     1     -10.179   6.090  69.201  1.00  0.00    -0.204 A  
HETATM   19  C   UNL     1     -10.471   5.532  67.944  1.00  0.00    -0.244 A  
HETATM   20  C   UNL     1      -8.170   4.833  67.660  1.00  0.00    -0.104 A  
HETATM   21  C   UNL     1      -9.477   4.905  67.181  1.00  0.00    -0.154 A  
HETATM   22  C   UNL     1      -8.859   5.993  69.662  1.00  0.00    -0.133 A  
HETATM   23  C   UNL     1      -7.859   5.384  68.898  1.00  0.00    -0.083 A  
BRANCH  21  24
HETATM   24  C   UNL     1      -9.793   4.300  65.922  1.00  0.00    -0.230 C  
HETATM   25  C   UNL     1     -10.048   3.843  64.841  1.00  0.00    -0.187 C  
ENDBRANCH  21  24
ENDBRANCH  16  18
ENDBRANCH  11  16
BRANCH  13  26
HETATM   26  O   UNL     1      -9.870   9.839  66.314  1.00  0.00    -0.215 OA 
BRANCH  26  27
HETATM   27  C   UNL     1      -9.405   8.509  66.084  1.00  0.00    -0.214 C  
BRANCH  27  28
HETATM   28  C   UNL     1      -8.333   8.484  64.999  1.00  0.00    -0.165 C  
BRANCH  28  29
HETATM   29  O   UNL     1      -7.711   9.773  64.970  1.00  0.00    -0.114 OA 
HETATM   30  C   UNL     1      -6.434   9.736  64.354  1.00  0.00    -0.117 C  
ENDBRANCH  28  29
ENDBRANCH  27  28
ENDBRANCH  26  27
ENDBRANCH  13  26
ENDBRANCH   5   6
ENDBRANCH   4   5
ENDBRANCH   3   4
ENDBRANCH   2   3
TORSDOF 11
ENDMDL
MODEL      187
REMARK 921   NORMALIZED FREE ENERGY PREDICTED BY IDOCK:   -3.95 KCAL/MOL
REMARK 922        TOTAL FREE ENERGY PREDICTED BY IDOCK:   -7.63 KCAL/MOL
REMARK 923 INTER-LIGAND FREE ENERGY PREDICTED BY IDOCK:   -6.94 KCAL/MOL
REMARK 924 INTRA-LIGAND FREE ENERGY PREDICTED BY IDOCK:   -0.69 KCAL/MOL
REMARK 927      BINDING AFFINITY PREDICTED BY RF-SCORE:    0.00 PKD
ROOT
HETATM    1  C   UNL     1      -5.868  18.950  64.211  1.00  0.00    -0.146 C  
HETATM    2  O   UNL     1      -5.833  19.317  65.586  1.00  0.00    -0.158 OA 
ENDROOT
BRANCH   2   3
HETATM    3  C   UNL     1      -5.311  18.260  66.385  1.00  0.00    -0.149 C  
BRANCH   3   4
HETATM    4  C   UNL     1      -5.817  18.385  67.819  1.00  0.00    -0.163 C  
BRANCH   4   5
HETATM    5  O   UNL     1      -5.331  17.251  68.529  1.00  0.00    -0.140 OA 
BRANCH   5   6
HETATM    6  C   UNL     1      -5.982  16.057  68.459  1.00  0.00    -0.105 A  
HETATM    7  C   UNL     1      -5.319  14.844  68.238  1.00  0.00    -0.112 A  
HETATM    8  C   UNL     1      -5.992  13.635  68.148  1.00  0.00    -0.118 A  
HETATM    9  C   UNL     1      -7.382  13.604  68.318  1.00  0.00    -0.119 A  
HETATM   10  C   UNL     1      -8.057  14.830  68.572  1.00  0.00    -0.146 A  
HETATM   11  C   UNL     1      -7.974  12.323  68.224  1.00  0.00    -0.163 A  
HETATM   12  N   UNL     1      -7.237  11.230  67.950  1.00  0.00    -0.084 NA 
HETATM   13  C   UNL     1      -7.375  16.053  68.623  1.00  0.00    -0.159 A  
HETATM   14  N   UNL     1      -5.261  12.548  67.900  1.00  0.00    -0.082 NA 
HETATM   15  C   UNL     1      -5.922  11.394  67.804  1.00  0.00    -0.049 A  
BRANCH  11  16
HETATM   16  N   UNL     1      -9.360  12.171  68.487  1.00  0.00    -0.345 NA 
HETATM   17  H   UNL     1      -9.587  11.576  69.282  1.00  0.00     0.000 HD 
BRANCH  16  18
HETATM   18  C   UNL     1     -10.478  12.721  67.812  1.00  0.00    -0.223 A  
HETATM   19  C   UNL     1     -10.821  12.230  66.540  1.00  0.00    -0.297 A  
HETATM   20  C   UNL     1     -12.530  13.927  66.287  1.00  0.00    -0.454 A  
HETATM   21  C   UNL     1     -11.836  12.830  65.781  1.00  0.00    -0.484 A  
HETATM   22  C   UNL     1     -11.186  13.833  68.290  1.00  0.00    -0.301 A  
HETATM   23  C   UNL     1     -12.210  14.424  67.546  1.00  0.00    -0.210 A  
BRANCH  21  24
HETATM   24  C   UNL     1     -12.149  12.351  64.468  1.00  0.00    -0.492 C  
HETATM   25  C   UNL     1     -12.398  11.897  63.385  1.00  0.00    -0.577 C  
ENDBRANCH  21  24
ENDBRANCH  16  18
ENDBRANCH  11  16
BRANCH  13  26
HETATM   26  O   UNL     1      -8.215  17.123  68.835  1.00  0.00    -0.255 OA 
BRANCH  26  27
HETATM   27  C   UNL     1      -9.415  17.185  68.065  1.00  0.00    -0.262 C  
BRANCH  27  28
HETATM   28  C   UNL     1      -9.145  17.752  66.675  1.00  0.00    -0.266 C  
BRANCH  28  29
HETATM   29  O   UNL     1     -10.305  18.484  66.268  1.00  0.00    -0.396 OA 
HETATM   30  C   UNL     1     -10.731  19.404  67.260  1.00  0.00    -0.490 C  
ENDBRANCH  28  29
ENDBRANCH  27  28
ENDBRANCH  26  27
ENDBRANCH  13  26
ENDBRANCH   5   6
ENDBRANCH   4   5
ENDBRANCH   3   4
ENDBRANCH   2   3
TORSDOF 11
ENDMDL
MODEL      188
REMARK 921   NORMALIZED FREE ENERGY PREDICTED BY IDOCK:   -3.95 KCAL/MOL
REMARK 922        TOTAL FREE ENERGY PREDICTED BY IDOCK:   -7.62 KCAL/MOL
REMARK 923 INTER-LIGAND FREE ENERGY PREDICTED BY IDOCK:   -6.05 KCAL/MOL
REMARK 924 INTRA-LIGAND FREE ENERGY PREDICTED BY IDOCK:   -1.57 KCAL/MOL
REMARK 927      BINDING AFFINITY PREDICTED BY RF-SCORE:    0.00 PKD
ROOT
HETATM    1  C   UNL     1      -6.784   5.998  72.743  1.00  0.00    -0.073 C  
HETATM    2  O   UNL     1      -8.079   6.450  73.120  1.00  0.00    -0.108 OA 
ENDROOT
BRANCH   2   3
HETATM    3  C   UNL     1      -9.090   5.817  72.340  1.00  0.00    -0.141 C  
BRANCH   3   4
HETATM    4  C   UNL     1      -9.884   6.861  71.560  1.00  0.00    -0.169 C  
BRANCH   4   5
HETATM    5  O   UNL     1      -9.246   7.007  70.297  1.00  0.00    -0.155 OA 
BRANCH   5   6
HETATM    6  C   UNL     1      -8.847   8.233  69.858  1.00  0.00    -0.138 A  
HETATM    7  C   UNL     1      -7.753   8.914  70.404  1.00  0.00    -0.098 A  
HETATM    8  C   UNL     1      -7.366  10.171  69.966  1.00  0.00    -0.165 A  
HETATM    9  C   UNL     1      -8.062  10.779  68.913  1.00  0.00    -0.145 A  
HETATM   10  C   UNL     1      -9.155  10.079  68.335  1.00  0.00    -0.121 A  
HETATM   11  C   UNL     1      -7.581  12.052  68.527  1.00  0.00    -0.126 A  
HETATM   12  N   UNL     1      -6.551  12.635  69.168  1.00  0.00    -0.100 NA 
HETATM   13  C   UNL     1      -9.565   8.825  68.810  1.00  0.00    -0.158 A  
HETATM   14  N   UNL     1      -6.330  10.740  70.583  1.00  0.00    -0.340 NA 
HETATM   15  C   UNL     1      -5.976  11.953  70.160  1.00  0.00    -0.159 A  
BRANCH  11  16
HETATM   16  N   UNL     1      -8.151  12.704  67.402  1.00  0.00    -0.173 NA 
HETATM   17  H   UNL     1      -7.555  12.739  66.576  1.00  0.00     0.000 HD 
BRANCH  16  18
HETATM   18  C   UNL     1      -9.420  13.314  67.252  1.00  0.00    -0.233 A  
HETATM   19  C   UNL     1     -10.058  13.858  68.381  1.00  0.00    -0.237 A  
HETATM   20  C   UNL     1     -12.057  14.320  67.096  1.00  0.00    -0.412 A  
HETATM   21  C   UNL     1     -11.367  14.354  68.306  1.00  0.00    -0.311 A  
HETATM   22  C   UNL     1     -10.144  13.283  66.052  1.00  0.00    -0.301 A  
HETATM   23  C   UNL     1     -11.442  13.792  65.966  1.00  0.00    -0.336 A  
BRANCH  21  24
HETATM   24  C   UNL     1     -12.024  14.865  69.471  1.00  0.00    -0.347 C  
HETATM   25  C   UNL     1     -12.574  15.242  70.470  1.00  0.00    -0.450 C  
ENDBRANCH  21  24
ENDBRANCH  16  18
ENDBRANCH  11  16
BRANCH  13  26
HETATM   26  O   UNL     1     -10.668   8.338  68.145  1.00  0.00    -0.151 OA 
BRANCH  26  27
HETATM   27  C   UNL     1     -10.456   7.704  66.884  1.00  0.00    -0.318 C  
BRANCH  27  28
HETATM   28  C   UNL     1     -10.758   6.211  66.965  1.00  0.00    -0.350 C  
BRANCH  28  29
HETATM   29  O   UNL     1      -9.544   5.538  67.310  1.00  0.00    -0.117 OA 
HETATM   30  C   UNL     1      -8.449   5.968  66.517  1.00  0.00    -0.115 C  
ENDBRANCH  28  29
ENDBRANCH  27  28
ENDBRANCH  26  27
ENDBRANCH  13  26
ENDBRANCH   5   6
ENDBRANCH   4   5
ENDBRANCH   3   4
ENDBRANCH   2   3
TORSDOF 11
ENDMDL
MODEL      189
REMARK 921   NORMALIZED FREE ENERGY PREDICTED BY IDOCK:   -3.94 KCAL/MOL
REMARK 922        TOTAL FREE ENERGY PREDICTED BY IDOCK:   -7.60 KCAL/MOL
REMARK 923 INTER-LIGAND FREE ENERGY PREDICTED BY IDOCK:   -6.29 KCAL/MOL
REMARK 924 INTRA-LIGAND FREE ENERGY PREDICTED BY IDOCK:   -1.31 KCAL/MOL
REMARK 927      BINDING AFFINITY PREDICTED BY RF-SCORE:    0.00 PKD
ROOT
HETATM    1  C   UNL     1     -11.403  15.969  70.115  1.00  0.00    -0.365 C  
HETATM    2  O   UNL     1     -11.768  16.071  68.743  1.00  0.00    -0.385 OA 
ENDROOT
BRANCH   2   3
HETATM    3  C   UNL     1     -10.899  16.961  68.048  1.00  0.00    -0.338 C  
BRANCH   3   4
HETATM    4  C   UNL     1     -10.733  16.511  66.599  1.00  0.00    -0.150 C  
BRANCH   4   5
HETATM    5  O   UNL     1      -9.356  16.204  66.417  1.00  0.00    -0.250 OA 
BRANCH   5   6
HETATM    6  C   UNL     1      -8.804  15.112  67.014  1.00  0.00    -0.234 A  
HETATM    7  C   UNL     1      -7.782  15.204  67.967  1.00  0.00    -0.131 A  
HETATM    8  C   UNL     1      -7.211  14.087  68.556  1.00  0.00    -0.109 A  
HETATM    9  C   UNL     1      -7.688  12.812  68.224  1.00  0.00    -0.136 A  
HETATM   10  C   UNL     1      -8.746  12.714  67.279  1.00  0.00    -0.198 A  
HETATM   11  C   UNL     1      -7.054  11.738  68.889  1.00  0.00    -0.114 A  
HETATM   12  N   UNL     1      -6.037  11.947  69.747  1.00  0.00    -0.128 NA 
HETATM   13  C   UNL     1      -9.292  13.846  66.659  1.00  0.00    -0.268 A  
HETATM   14  N   UNL     1      -6.220  14.293  69.424  1.00  0.00    -0.104 NA 
HETATM   15  C   UNL     1      -5.673  13.210  69.973  1.00  0.00    -0.131 A  
BRANCH  11  16
HETATM   16  N   UNL     1      -7.535  10.415  68.701  1.00  0.00    -0.084 NA 
HETATM   17  H   UNL     1      -7.026   9.864  68.011  1.00  0.00     0.000 HD 
BRANCH  16  18
HETATM   18  C   UNL     1      -8.614   9.744  69.327  1.00  0.00    -0.158 A  
HETATM   19  C   UNL     1      -8.461   9.282  70.646  1.00  0.00    -0.258 A  
HETATM   20  C   UNL     1     -10.614   8.175  70.565  1.00  0.00    -0.228 A  
HETATM   21  C   UNL     1      -9.450   8.500  71.260  1.00  0.00    -0.265 A  
HETATM   22  C   UNL     1      -9.789   9.391  68.649  1.00  0.00    -0.174 A  
HETATM   23  C   UNL     1     -10.786   8.627  69.261  1.00  0.00    -0.082 A  
BRANCH  21  24
HETATM   24  C   UNL     1      -9.267   7.997  72.588  1.00  0.00    -0.304 C  
HETATM   25  C   UNL     1      -9.144   7.530  73.687  1.00  0.00    -0.305 C  
ENDBRANCH  21  24
ENDBRANCH  16  18
ENDBRANCH  11  16
BRANCH  13  26
HETATM   26  O   UNL     1     -10.273  13.533  65.745  1.00  0.00    -0.286 OA 
BRANCH  26  27
HETATM   27  C   UNL     1     -11.054  12.363  65.987  1.00  0.00    -0.308 C  
BRANCH  27  28
HETATM   28  C   UNL     1     -11.136  11.491  64.738  1.00  0.00    -0.233 C  
BRANCH  28  29
HETATM   29  O   UNL     1     -10.238  10.391  64.913  1.00  0.00    -0.338 OA 
HETATM   30  C   UNL     1      -9.092  10.499  64.084  1.00  0.00    -0.231 C  
ENDBRANCH  28  29
ENDBRANCH  27  28
ENDBRANCH  26  27
ENDBRANCH  13  26
ENDBRANCH   5   6
ENDBRANCH   4   5
ENDBRANCH   3   4
ENDBRANCH   2   3
TORSDOF 11
ENDMDL
MODEL      190
REMARK 921   NORMALIZED FREE ENERGY PREDICTED BY IDOCK:   -3.94 KCAL/MOL
REMARK 922        TOTAL FREE ENERGY PREDICTED BY IDOCK:   -7.60 KCAL/MOL
REMARK 923 INTER-LIGAND FREE ENERGY PREDICTED BY IDOCK:   -6.80 KCAL/MOL
REMARK 924 INTRA-LIGAND FREE ENERGY PREDICTED BY IDOCK:   -0.80 KCAL/MOL
REMARK 927      BINDING AFFINITY PREDICTED BY RF-SCORE:    0.00 PKD
ROOT
HETATM    1  C   UNL     1     -10.381  19.442  68.238  1.00  0.00    -0.394 C  
HETATM    2  O   UNL     1      -9.145  19.135  67.604  1.00  0.00    -0.290 OA 
ENDROOT
BRANCH   2   3
HETATM    3  C   UNL     1      -8.091  19.038  68.558  1.00  0.00    -0.350 C  
BRANCH   3   4
HETATM    4  C   UNL     1      -7.150  17.894  68.187  1.00  0.00    -0.224 C  
BRANCH   4   5
HETATM    5  O   UNL     1      -7.368  16.856  69.135  1.00  0.00    -0.239 OA 
BRANCH   5   6
HETATM    6  C   UNL     1      -8.475  16.067  69.058  1.00  0.00    -0.244 A  
HETATM    7  C   UNL     1      -9.544  16.172  69.955  1.00  0.00     0.226 A  
HETATM    8  C   UNL     1     -10.660  15.351  69.882  1.00  0.00    -0.303 A  
HETATM    9  C   UNL     1     -10.751  14.402  68.855  1.00  0.00    -0.260 A  
HETATM   10  C   UNL     1      -9.681  14.312  67.923  1.00  0.00    -0.222 A  
HETATM   11  C   UNL     1     -11.932  13.625  68.855  1.00  0.00    -0.356 A  
HETATM   12  N   UNL     1     -12.871  13.777  69.808  1.00  0.00     0.138 NA 
HETATM   13  C   UNL     1      -8.540  15.119  68.027  1.00  0.00    -0.156 A  
HETATM   14  N   UNL     1     -11.601  15.516  70.811  1.00  0.00    -0.330 NA 
HETATM   15  C   UNL     1     -12.662  14.712  70.735  1.00  0.00    -0.359 A  
BRANCH  11  16
HETATM   16  N   UNL     1     -12.169  12.710  67.796  1.00  0.00    -0.282 NA 
HETATM   17  H   UNL     1     -13.056  12.833  67.309  1.00  0.00     0.000 HD 
BRANCH  16  18
HETATM   18  C   UNL     1     -11.361  11.652  67.311  1.00  0.00    -0.305 A  
HETATM   19  C   UNL     1     -10.950  11.664  65.966  1.00  0.00    -0.338 A  
HETATM   20  C   UNL     1      -9.965   9.463  66.192  1.00  0.00    -0.351 A  
HETATM   21  C   UNL     1     -10.261  10.577  65.409  1.00  0.00    -0.340 A  
HETATM   22  C   UNL     1     -11.060  10.513  68.070  1.00  0.00    -0.361 A  
HETATM   23  C   UNL     1     -10.358   9.434  67.526  1.00  0.00    -0.314 A  
BRANCH  21  24
HETATM   24  C   UNL     1      -9.885  10.580  64.028  1.00  0.00    -0.387 C  
HETATM   25  C   UNL     1      -9.621  10.602  62.857  1.00  0.00    -0.358 C  
ENDBRANCH  21  24
ENDBRANCH  16  18
ENDBRANCH  11  16
BRANCH  13  26
HETATM   26  O   UNL     1      -7.603  14.845  67.056  1.00  0.00    -0.166 OA 
BRANCH  26  27
HETATM   27  C   UNL     1      -6.326  14.371  67.482  1.00  0.00    -0.005 C  
BRANCH  27  28
HETATM   28  C   UNL     1      -6.460  13.450  68.690  1.00  0.00    -0.091 C  
BRANCH  28  29
HETATM   29  O   UNL     1      -6.177  12.116  68.257  1.00  0.00    -0.049 OA 
HETATM   30  C   UNL     1      -7.354  11.409  67.900  1.00  0.00    -0.093 C  
ENDBRANCH  28  29
ENDBRANCH  27  28
ENDBRANCH  26  27
ENDBRANCH  13  26
ENDBRANCH   5   6
ENDBRANCH   4   5
ENDBRANCH   3   4
ENDBRANCH   2   3
TORSDOF 11
ENDMDL
MODEL      191
REMARK 921   NORMALIZED FREE ENERGY PREDICTED BY IDOCK:   -3.93 KCAL/MOL
REMARK 922        TOTAL FREE ENERGY PREDICTED BY IDOCK:   -7.59 KCAL/MOL
REMARK 923 INTER-LIGAND FREE ENERGY PREDICTED BY IDOCK:   -7.30 KCAL/MOL
REMARK 924 INTRA-LIGAND FREE ENERGY PREDICTED BY IDOCK:   -0.29 KCAL/MOL
REMARK 927      BINDING AFFINITY PREDICTED BY RF-SCORE:    0.00 PKD
ROOT
HETATM    1  C   UNL     1      -9.871  17.426  67.163  1.00  0.00    -0.278 C  
HETATM    2  O   UNL     1     -10.739  17.066  66.095  1.00  0.00    -0.234 OA 
ENDROOT
BRANCH   2   3
HETATM    3  C   UNL     1     -10.395  15.790  65.563  1.00  0.00    -0.404 C  
BRANCH   3   4
HETATM    4  C   UNL     1     -11.625  15.125  64.951  1.00  0.00    -0.336 C  
BRANCH   4   5
HETATM    5  O   UNL     1     -11.882  13.951  65.713  1.00  0.00    -0.346 OA 
BRANCH   5   6
HETATM    6  C   UNL     1     -11.149  12.821  65.514  1.00  0.00    -0.285 A  
HETATM    7  C   UNL     1     -10.639  12.459  64.262  1.00  0.00    -0.391 A  
HETATM    8  C   UNL     1      -9.911  11.296  64.062  1.00  0.00    -0.291 A  
HETATM    9  C   UNL     1      -9.634  10.460  65.152  1.00  0.00    -0.329 A  
HETATM   10  C   UNL     1     -10.125  10.838  66.432  1.00  0.00    -0.278 A  
HETATM   11  C   UNL     1      -8.872   9.308  64.852  1.00  0.00    -0.193 A  
HETATM   12  N   UNL     1      -8.484   9.034  63.592  1.00  0.00    -0.188 NA 
HETATM   13  C   UNL     1     -10.893  11.995  66.618  1.00  0.00    -0.272 A  
HETATM   14  N   UNL     1      -9.505  11.036  62.820  1.00  0.00    -0.333 NA 
HETATM   15  C   UNL     1      -8.816   9.909  62.641  1.00  0.00    -0.239 A  
BRANCH  11  16
HETATM   16  N   UNL     1      -8.450   8.453  65.903  1.00  0.00    -0.139 NA 
HETATM   17  H   UNL     1      -7.449   8.469  66.097  1.00  0.00     0.000 HD 
BRANCH  16  18
HETATM   18  C   UNL     1      -9.206   7.581  66.725  1.00  0.00    -0.156 A  
HETATM   19  C   UNL     1      -9.011   7.610  68.117  1.00  0.00    -0.126 A  
HETATM   20  C   UNL     1     -10.479   5.708  68.415  1.00  0.00    -0.263 A  
HETATM   21  C   UNL     1      -9.639   6.679  68.956  1.00  0.00    -0.133 A  
HETATM   22  C   UNL     1     -10.047   6.586  66.209  1.00  0.00     0.040 A  
HETATM   23  C   UNL     1     -10.689   5.666  67.041  1.00  0.00    -0.332 A  
BRANCH  21  24
HETATM   24  C   UNL     1      -9.400   6.688  70.368  1.00  0.00    -0.160 C  
HETATM   25  C   UNL     1      -9.229   6.648  71.556  1.00  0.00    -0.146 C  
ENDBRANCH  21  24
ENDBRANCH  16  18
ENDBRANCH  11  16
BRANCH  13  26
HETATM   26  O   UNL     1     -11.307  12.156  67.922  1.00  0.00    -0.257 OA 
BRANCH  26  27
HETATM   27  C   UNL     1     -11.801  13.439  68.306  1.00  0.00    -0.358 C  
BRANCH  27  28
HETATM   28  C   UNL     1     -11.698  13.636  69.815  1.00  0.00    -0.297 C  
BRANCH  28  29
HETATM   29  O   UNL     1     -10.978  14.850  70.049  1.00  0.00    -0.247 OA 
HETATM   30  C   UNL     1     -11.842  15.963  70.206  1.00  0.00    -0.327 C  
ENDBRANCH  28  29
ENDBRANCH  27  28
ENDBRANCH  26  27
ENDBRANCH  13  26
ENDBRANCH   5   6
ENDBRANCH   4   5
ENDBRANCH   3   4
ENDBRANCH   2   3
TORSDOF 11
ENDMDL
MODEL      192
REMARK 921   NORMALIZED FREE ENERGY PREDICTED BY IDOCK:   -3.88 KCAL/MOL
REMARK 922        TOTAL FREE ENERGY PREDICTED BY IDOCK:   -7.52 KCAL/MOL
REMARK 923 INTER-LIGAND FREE ENERGY PREDICTED BY IDOCK:   -6.46 KCAL/MOL
REMARK 924 INTRA-LIGAND FREE ENERGY PREDICTED BY IDOCK:   -1.05 KCAL/MOL
REMARK 927      BINDING AFFINITY PREDICTED BY RF-SCORE:    0.00 PKD
ROOT
HETATM    1  C   UNL     1      -9.796   3.817  73.069  1.00  0.00    -0.132 C  
HETATM    2  O   UNL     1      -8.950   4.834  73.593  1.00  0.00    -0.105 OA 
ENDROOT
BRANCH   2   3
HETATM    3  C   UNL     1      -7.689   4.842  72.931  1.00  0.00    -0.093 C  
BRANCH   3   4
HETATM    4  C   UNL     1      -7.101   6.251  72.936  1.00  0.00    -0.079 C  
BRANCH   4   5
HETATM    5  O   UNL     1      -8.179   7.149  72.697  1.00  0.00    -0.106 OA 
BRANCH   5   6
HETATM    6  C   UNL     1      -8.245   7.861  71.539  1.00  0.00    -0.109 A  
HETATM    7  C   UNL     1      -7.495   9.022  71.319  1.00  0.00    -0.098 A  
HETATM    8  C   UNL     1      -7.583   9.753  70.144  1.00  0.00    -0.171 A  
HETATM    9  C   UNL     1      -8.421   9.305  69.114  1.00  0.00    -0.133 A  
HETATM   10  C   UNL     1      -9.163   8.110  69.321  1.00  0.00    -0.151 A  
HETATM   11  C   UNL     1      -8.431  10.109  67.951  1.00  0.00    -0.118 A  
HETATM   12  N   UNL     1      -7.706  11.242  67.876  1.00  0.00    -0.106 NA 
HETATM   13  C   UNL     1      -9.098   7.399  70.526  1.00  0.00    -0.157 A  
HETATM   14  N   UNL     1      -6.849  10.862  70.059  1.00  0.00    -0.149 NA 
HETATM   15  C   UNL     1      -6.952  11.561  68.928  1.00  0.00    -0.100 A  
BRANCH  11  16
HETATM   16  N   UNL     1      -9.165   9.685  66.812  1.00  0.00    -0.145 NA 
HETATM   17  H   UNL     1      -9.349   8.684  66.765  1.00  0.00     0.000 HD 
BRANCH  16  18
HETATM   18  C   UNL     1      -9.682  10.441  65.732  1.00  0.00    -0.228 A  
HETATM   19  C   UNL     1     -10.617  11.458  65.992  1.00  0.00    -0.319 A  
HETATM   20  C   UNL     1     -10.957  11.826  63.623  1.00  0.00    -0.513 A  
HETATM   21  C   UNL     1     -11.253  12.144  64.947  1.00  0.00    -0.374 A  
HETATM   22  C   UNL     1      -9.414  10.136  64.390  1.00  0.00    -0.368 A  
HETATM   23  C   UNL     1     -10.031  10.827  63.344  1.00  0.00    -0.385 A  
BRANCH  21  24
HETATM   24  C   UNL     1     -12.236  13.148  65.221  1.00  0.00    -0.502 C  
HETATM   25  C   UNL     1     -13.032  14.003  65.499  1.00  0.00    -0.353 C  
ENDBRANCH  21  24
ENDBRANCH  16  18
ENDBRANCH  11  16
BRANCH  13  26
HETATM   26  O   UNL     1      -9.925   6.298  70.540  1.00  0.00    -0.181 OA 
BRANCH  26  27
HETATM   27  C   UNL     1     -11.171   6.397  69.852  1.00  0.00    -0.420 C  
BRANCH  27  28
HETATM   28  C   UNL     1     -12.299   6.760  70.812  1.00  0.00    -0.232 C  
BRANCH  28  29
HETATM   29  O   UNL     1     -11.707   7.141  72.058  1.00  0.00    -0.273 OA 
HETATM   30  C   UNL     1     -11.979   8.493  72.388  1.00  0.00    -0.364 C  
ENDBRANCH  28  29
ENDBRANCH  27  28
ENDBRANCH  26  27
ENDBRANCH  13  26
ENDBRANCH   5   6
ENDBRANCH   4   5
ENDBRANCH   3   4
ENDBRANCH   2   3
TORSDOF 11
ENDMDL
MODEL      193
REMARK 921   NORMALIZED FREE ENERGY PREDICTED BY IDOCK:   -3.86 KCAL/MOL
REMARK 922        TOTAL FREE ENERGY PREDICTED BY IDOCK:   -7.47 KCAL/MOL
REMARK 923 INTER-LIGAND FREE ENERGY PREDICTED BY IDOCK:   -6.20 KCAL/MOL
REMARK 924 INTRA-LIGAND FREE ENERGY PREDICTED BY IDOCK:   -1.28 KCAL/MOL
REMARK 927      BINDING AFFINITY PREDICTED BY RF-SCORE:    0.00 PKD
ROOT
HETATM    1  C   UNL     1      -5.751   9.029  72.074  1.00  0.00    -0.069 C  
HETATM    2  O   UNL     1      -6.290   8.529  70.856  1.00  0.00    -0.036 OA 
ENDROOT
BRANCH   2   3
HETATM    3  C   UNL     1      -6.564   7.134  70.952  1.00  0.00    -0.048 C  
BRANCH   3   4
HETATM    4  C   UNL     1      -6.435   6.477  69.580  1.00  0.00    -0.047 C  
BRANCH   4   5
HETATM    5  O   UNL     1      -7.755   6.331  69.067  1.00  0.00    -0.097 OA 
BRANCH   5   6
HETATM    6  C   UNL     1      -8.258   7.233  68.180  1.00  0.00    -0.124 A  
HETATM    7  C   UNL     1      -7.845   7.293  66.844  1.00  0.00    -0.111 A  
HETATM    8  C   UNL     1      -8.347   8.228  65.951  1.00  0.00    -0.129 A  
HETATM    9  C   UNL     1      -9.332   9.128  66.377  1.00  0.00    -0.261 A  
HETATM   10  C   UNL     1      -9.776   9.052  67.725  1.00  0.00    -0.190 A  
HETATM   11  C   UNL     1      -9.792  10.031  65.391  1.00  0.00    -0.314 A  
HETATM   12  N   UNL     1      -9.276  10.032  64.147  1.00  0.00    -0.256 NA 
HETATM   13  C   UNL     1      -9.236   8.130  68.632  1.00  0.00    -0.143 A  
HETATM   14  N   UNL     1      -7.854   8.214  64.713  1.00  0.00    -0.129 NA 
HETATM   15  C   UNL     1      -8.338   9.126  63.868  1.00  0.00    -0.181 A  
BRANCH  11  16
HETATM   16  N   UNL     1     -10.863  10.912  65.692  1.00  0.00    -0.109 NA 
HETATM   17  H   UNL     1     -11.576  10.529  66.312  1.00  0.00     0.000 HD 
BRANCH  16  18
HETATM   18  C   UNL     1     -11.092  12.243  65.264  1.00  0.00    -0.316 A  
HETATM   19  C   UNL     1     -10.572  13.306  66.023  1.00  0.00    -0.292 A  
HETATM   20  C   UNL     1     -11.713  14.927  64.632  1.00  0.00    -0.406 A  
HETATM   21  C   UNL     1     -10.882  14.638  65.712  1.00  0.00    -0.326 A  
HETATM   22  C   UNL     1     -11.935  12.564  64.191  1.00  0.00    -0.508 A  
HETATM   23  C   UNL     1     -12.234  13.890  63.866  1.00  0.00    -0.375 A  
BRANCH  21  24
HETATM   24  C   UNL     1     -10.383  15.713  66.516  1.00  0.00    -0.296 C  
HETATM   25  C   UNL     1      -9.914  16.609  67.163  1.00  0.00    -0.268 C  
ENDBRANCH  21  24
ENDBRANCH  16  18
ENDBRANCH  11  16
BRANCH  13  26
HETATM   26  O   UNL     1      -9.769   8.250  69.895  1.00  0.00    -0.177 OA 
BRANCH  26  27
HETATM   27  C   UNL     1     -11.140   7.892  70.072  1.00  0.00    -0.162 C  
BRANCH  27  28
HETATM   28  C   UNL     1     -11.333   6.385  69.950  1.00  0.00    -0.434 C  
BRANCH  28  29
HETATM   29  O   UNL     1     -10.577   5.762  70.993  1.00  0.00    -0.231 OA 
HETATM   30  C   UNL     1     -10.108   4.476  70.620  1.00  0.00    -0.162 C  
ENDBRANCH  28  29
ENDBRANCH  27  28
ENDBRANCH  26  27
ENDBRANCH  13  26
ENDBRANCH   5   6
ENDBRANCH   4   5
ENDBRANCH   3   4
ENDBRANCH   2   3
TORSDOF 11
ENDMDL
MODEL      194
REMARK 921   NORMALIZED FREE ENERGY PREDICTED BY IDOCK:   -3.83 KCAL/MOL
REMARK 922        TOTAL FREE ENERGY PREDICTED BY IDOCK:   -7.43 KCAL/MOL
REMARK 923 INTER-LIGAND FREE ENERGY PREDICTED BY IDOCK:   -6.15 KCAL/MOL
REMARK 924 INTRA-LIGAND FREE ENERGY PREDICTED BY IDOCK:   -1.28 KCAL/MOL
REMARK 927      BINDING AFFINITY PREDICTED BY RF-SCORE:    0.00 PKD
ROOT
HETATM    1  C   UNL     1      -6.674   7.179  72.729  1.00  0.00    -0.067 C  
HETATM    2  O   UNL     1      -7.347   6.508  73.788  1.00  0.00    -0.085 OA 
ENDROOT
BRANCH   2   3
HETATM    3  C   UNL     1      -7.811   5.228  73.370  1.00  0.00    -0.103 C  
BRANCH   3   4
HETATM    4  C   UNL     1      -9.335   5.172  73.441  1.00  0.00    -0.133 C  
BRANCH   4   5
HETATM    5  O   UNL     1      -9.813   5.235  72.102  1.00  0.00    -0.163 OA 
BRANCH   5   6
HETATM    6  C   UNL     1     -10.419   6.360  71.634  1.00  0.00    -0.217 A  
HETATM    7  C   UNL     1     -11.288   7.133  72.414  1.00  0.00    -0.312 A  
HETATM    8  C   UNL     1     -11.918   8.267  71.923  1.00  0.00    -0.330 A  
HETATM    9  C   UNL     1     -11.656   8.689  70.613  1.00  0.00    -0.225 A  
HETATM   10  C   UNL     1     -10.751   7.925  69.827  1.00  0.00    -0.233 A  
HETATM   11  C   UNL     1     -12.332   9.864  70.211  1.00  0.00    -0.005 A  
HETATM   12  N   UNL     1     -13.193  10.493  71.034  1.00  0.00    -0.318 NA 
HETATM   13  C   UNL     1     -10.149   6.758  70.317  1.00  0.00    -0.179 A  
HETATM   14  N   UNL     1     -12.752   8.905  72.744  1.00  0.00    -0.271 NA 
HETATM   15  C   UNL     1     -13.359   9.987  72.256  1.00  0.00    -0.289 A  
BRANCH  11  16
HETATM   16  N   UNL     1     -12.054  10.432  68.940  1.00  0.00    -0.716 NA 
HETATM   17  H   UNL     1     -12.616  10.068  68.172  1.00  0.00     0.000 HD 
BRANCH  16  18
HETATM   18  C   UNL     1     -11.115  11.429  68.577  1.00  0.00    -0.235 A  
HETATM   19  C   UNL     1     -11.447  12.783  68.761  1.00  0.00    -0.347 A  
HETATM   20  C   UNL     1      -9.414  13.486  67.647  1.00  0.00    -0.222 A  
HETATM   21  C   UNL     1     -10.605  13.804  68.297  1.00  0.00    -0.262 A  
HETATM   22  C   UNL     1      -9.917  11.140  67.909  1.00  0.00    -0.189 A  
HETATM   23  C   UNL     1      -9.066  12.153  67.460  1.00  0.00    -0.180 A  
BRANCH  21  24
HETATM   24  C   UNL     1     -10.971  15.180  68.450  1.00  0.00    -0.271 C  
HETATM   25  C   UNL     1     -11.324  16.324  68.547  1.00  0.00    -0.330 C  
ENDBRANCH  21  24
ENDBRANCH  16  18
ENDBRANCH  11  16
BRANCH  13  26
HETATM   26  O   UNL     1      -9.344   6.142  69.385  1.00  0.00    -0.138 OA 
BRANCH  26  27
HETATM   27  C   UNL     1      -7.937   6.363  69.476  1.00  0.00    -0.113 C  
BRANCH  27  28
HETATM   28  C   UNL     1      -7.168   5.052  69.359  1.00  0.00    -0.056 C  
BRANCH  28  29
HETATM   29  O   UNL     1      -7.821   4.248  68.371  1.00  0.00    -0.074 OA 
HETATM   30  C   UNL     1      -7.509   4.664  67.052  1.00  0.00    -0.086 C  
ENDBRANCH  28  29
ENDBRANCH  27  28
ENDBRANCH  26  27
ENDBRANCH  13  26
ENDBRANCH   5   6
ENDBRANCH   4   5
ENDBRANCH   3   4
ENDBRANCH   2   3
TORSDOF 11
ENDMDL
MODEL      195
REMARK 921   NORMALIZED FREE ENERGY PREDICTED BY IDOCK:   -3.82 KCAL/MOL
REMARK 922        TOTAL FREE ENERGY PREDICTED BY IDOCK:   -7.41 KCAL/MOL
REMARK 923 INTER-LIGAND FREE ENERGY PREDICTED BY IDOCK:   -6.64 KCAL/MOL
REMARK 924 INTRA-LIGAND FREE ENERGY PREDICTED BY IDOCK:   -0.77 KCAL/MOL
REMARK 927      BINDING AFFINITY PREDICTED BY RF-SCORE:    0.00 PKD
ROOT
HETATM    1  C   UNL     1      -8.750   8.102  71.031  1.00  0.00    -0.139 C  
HETATM    2  O   UNL     1     -10.015   8.567  70.573  1.00  0.00    -0.181 OA 
ENDROOT
BRANCH   2   3
HETATM    3  C   UNL     1      -9.939   9.009  69.221  1.00  0.00    -0.188 C  
BRANCH   3   4
HETATM    4  C   UNL     1      -9.797  10.528  69.170  1.00  0.00    -0.218 C  
BRANCH   4   5
HETATM    5  O   UNL     1      -9.993  10.916  67.815  1.00  0.00    -0.171 OA 
BRANCH   5   6
HETATM    6  C   UNL     1      -9.699  12.181  67.407  1.00  0.00    -0.179 A  
HETATM    7  C   UNL     1     -10.651  13.032  66.832  1.00  0.00    -0.260 A  
HETATM    8  C   UNL     1     -10.340  14.312  66.400  1.00  0.00    -0.286 A  
HETATM    9  C   UNL     1      -9.037  14.800  66.571  1.00  0.00    -0.291 A  
HETATM   10  C   UNL     1      -8.074  13.950  67.181  1.00  0.00    -0.103 A  
HETATM   11  C   UNL     1      -8.822  16.120  66.113  1.00  0.00    -0.332 A  
HETATM   12  N   UNL     1      -9.805  16.825  65.522  1.00  0.00    -0.563 NA 
HETATM   13  C   UNL     1      -8.388  12.643  67.580  1.00  0.00    -0.177 A  
HETATM   14  N   UNL     1     -11.318  15.020  65.836  1.00  0.00    -0.314 NA 
HETATM   15  C   UNL     1     -11.001  16.244  65.414  1.00  0.00    -0.197 A  
BRANCH  11  16
HETATM   16  N   UNL     1      -7.566  16.743  66.336  1.00  0.00    -0.296 NA 
HETATM   17  H   UNL     1      -6.754  16.154  66.159  1.00  0.00     0.000 HD 
BRANCH  16  18
HETATM   18  C   UNL     1      -7.269  18.059  66.767  1.00  0.00    -0.208 A  
HETATM   19  C   UNL     1      -6.809  18.263  68.080  1.00  0.00    -0.218 A  
HETATM   20  C   UNL     1      -6.895  20.666  67.794  1.00  0.00    -0.367 A  
HETATM   21  C   UNL     1      -6.627  19.556  68.592  1.00  0.00    -0.318 A  
HETATM   22  C   UNL     1      -7.542  19.195  65.993  1.00  0.00    -0.281 A  
HETATM   23  C   UNL     1      -7.346  20.486  66.491  1.00  0.00    -0.257 A  
BRANCH  21  24
HETATM   24  C   UNL     1      -6.199  19.754  69.944  1.00  0.00    -0.375 C  
HETATM   25  C   UNL     1      -5.860  19.869  71.090  1.00  0.00    -0.306 C  
ENDBRANCH  21  24
ENDBRANCH  16  18
ENDBRANCH  11  16
BRANCH  13  26
HETATM   26  O   UNL     1      -7.306  11.973  68.105  1.00  0.00    -0.080 OA 
BRANCH  26  27
HETATM   27  C   UNL     1      -6.216  11.685  67.230  1.00  0.00    -0.115 C  
BRANCH  27  28
HETATM   28  C   UNL     1      -6.030  10.180  67.064  1.00  0.00    -0.051 C  
BRANCH  28  29
HETATM   29  O   UNL     1      -7.066   9.705  66.199  1.00  0.00    -0.090 OA 
HETATM   30  C   UNL     1      -7.425   8.362  66.481  1.00  0.00    -0.081 C  
ENDBRANCH  28  29
ENDBRANCH  27  28
ENDBRANCH  26  27
ENDBRANCH  13  26
ENDBRANCH   5   6
ENDBRANCH   4   5
ENDBRANCH   3   4
ENDBRANCH   2   3
TORSDOF 11
ENDMDL
MODEL      196
REMARK 921   NORMALIZED FREE ENERGY PREDICTED BY IDOCK:   -3.81 KCAL/MOL
REMARK 922        TOTAL FREE ENERGY PREDICTED BY IDOCK:   -7.40 KCAL/MOL
REMARK 923 INTER-LIGAND FREE ENERGY PREDICTED BY IDOCK:   -6.54 KCAL/MOL
REMARK 924 INTRA-LIGAND FREE ENERGY PREDICTED BY IDOCK:   -0.86 KCAL/MOL
REMARK 927      BINDING AFFINITY PREDICTED BY RF-SCORE:    0.00 PKD
ROOT
HETATM    1  C   UNL     1      -8.940   4.161  68.465  1.00  0.00    -0.118 C  
HETATM    2  O   UNL     1      -8.496   5.504  68.314  1.00  0.00    -0.099 OA 
ENDROOT
BRANCH   2   3
HETATM    3  C   UNL     1      -9.579   6.365  67.970  1.00  0.00    -0.118 C  
BRANCH   3   4
HETATM    4  C   UNL     1      -9.101   7.813  67.907  1.00  0.00    -0.131 C  
BRANCH   4   5
HETATM    5  O   UNL     1      -9.721   8.404  66.771  1.00  0.00    -0.198 OA 
BRANCH   5   6
HETATM    6  C   UNL     1      -9.828   9.757  66.665  1.00  0.00    -0.215 A  
HETATM    7  C   UNL     1     -10.988  10.456  67.019  1.00  0.00    -0.222 A  
HETATM    8  C   UNL     1     -11.097  11.832  66.889  1.00  0.00    -0.307 A  
HETATM    9  C   UNL     1     -10.001  12.569  66.422  1.00  0.00    -0.262 A  
HETATM   10  C   UNL     1      -8.810  11.868  66.089  1.00  0.00    -0.063 A  
HETATM   11  C   UNL     1     -10.204  13.966  66.339  1.00  0.00    -0.292 A  
HETATM   12  N   UNL     1     -11.389  14.522  66.656  1.00  0.00    -0.347 NA 
HETATM   13  C   UNL     1      -8.721  10.473  66.186  1.00  0.00    -0.158 A  
HETATM   14  N   UNL     1     -12.262  12.386  67.224  1.00  0.00    -0.405 NA 
HETATM   15  C   UNL     1     -12.356  13.709  67.083  1.00  0.00    -0.190 A  
BRANCH  11  16
HETATM   16  N   UNL     1      -9.121  14.811  65.979  1.00  0.00    -0.502 NA 
HETATM   17  H   UNL     1      -8.697  14.608  65.075  1.00  0.00     0.000 HD 
BRANCH  16  18
HETATM   18  C   UNL     1      -8.542  15.895  66.683  1.00  0.00    -0.285 A  
HETATM   19  C   UNL     1      -9.221  17.125  66.728  1.00  0.00    -0.270 A  
HETATM   20  C   UNL     1      -7.348  18.180  67.843  1.00  0.00    -0.225 A  
HETATM   21  C   UNL     1      -8.629  18.260  67.300  1.00  0.00    -0.254 A  
HETATM   22  C   UNL     1      -7.251  15.848  67.226  1.00  0.00    -0.251 A  
HETATM   23  C   UNL     1      -6.661  16.971  67.813  1.00  0.00    -0.163 A  
BRANCH  21  24
HETATM   24  C   UNL     1      -9.310  19.519  67.302  1.00  0.00    -0.403 C  
HETATM   25  C   UNL     1      -9.899  20.564  67.252  1.00  0.00    -0.581 C  
ENDBRANCH  21  24
ENDBRANCH  16  18
ENDBRANCH  11  16
BRANCH  13  26
HETATM   26  O   UNL     1      -7.501   9.986  65.774  1.00  0.00    -0.109 OA 
BRANCH  26  27
HETATM   27  C   UNL     1      -7.442   9.333  64.506  1.00  0.00    -0.102 C  
BRANCH  27  28
HETATM   28  C   UNL     1      -6.924   7.906  64.649  1.00  0.00    -0.067 C  
BRANCH  28  29
HETATM   29  O   UNL     1      -7.403   7.153  63.530  1.00  0.00    -0.069 OA 
HETATM   30  C   UNL     1      -8.147   7.954  62.627  1.00  0.00    -0.138 C  
ENDBRANCH  28  29
ENDBRANCH  27  28
ENDBRANCH  26  27
ENDBRANCH  13  26
ENDBRANCH   5   6
ENDBRANCH   4   5
ENDBRANCH   3   4
ENDBRANCH   2   3
TORSDOF 11
ENDMDL
MODEL      197
REMARK 921   NORMALIZED FREE ENERGY PREDICTED BY IDOCK:   -3.81 KCAL/MOL
REMARK 922        TOTAL FREE ENERGY PREDICTED BY IDOCK:   -7.39 KCAL/MOL
REMARK 923 INTER-LIGAND FREE ENERGY PREDICTED BY IDOCK:   -6.17 KCAL/MOL
REMARK 924 INTRA-LIGAND FREE ENERGY PREDICTED BY IDOCK:   -1.23 KCAL/MOL
REMARK 927      BINDING AFFINITY PREDICTED BY RF-SCORE:    0.00 PKD
ROOT
HETATM    1  C   UNL     1      -8.789  20.424  67.098  1.00  0.00    -0.327 C  
HETATM    2  O   UNL     1      -7.808  20.065  68.065  1.00  0.00    -0.290 OA 
ENDROOT
BRANCH   2   3
HETATM    3  C   UNL     1      -8.039  18.750  68.563  1.00  0.00    -0.346 C  
BRANCH   3   4
HETATM    4  C   UNL     1      -8.280  17.783  67.407  1.00  0.00    -0.214 C  
BRANCH   4   5
HETATM    5  O   UNL     1      -9.207  16.808  67.870  1.00  0.00    -0.219 OA 
BRANCH   5   6
HETATM    6  C   UNL     1      -8.856  15.495  67.938  1.00  0.00    -0.171 A  
HETATM    7  C   UNL     1      -7.836  15.025  68.775  1.00  0.00    -0.151 A  
HETATM    8  C   UNL     1      -7.471  13.688  68.824  1.00  0.00    -0.088 A  
HETATM    9  C   UNL     1      -8.163  12.755  68.041  1.00  0.00    -0.168 A  
HETATM   10  C   UNL     1      -9.220  13.222  67.212  1.00  0.00    -0.222 A  
HETATM   11  C   UNL     1      -7.728  11.416  68.172  1.00  0.00    -0.118 A  
HETATM   12  N   UNL     1      -6.693  11.091  68.970  1.00  0.00    -0.066 NA 
HETATM   13  C   UNL     1      -9.557  14.580  67.139  1.00  0.00    -0.231 A  
HETATM   14  N   UNL     1      -6.462  13.361  69.631  1.00  0.00    -0.091 NA 
HETATM   15  C   UNL     1      -6.113  12.075  69.659  1.00  0.00    -0.129 A  
BRANCH  11  16
HETATM   16  N   UNL     1      -8.432  10.381  67.503  1.00  0.00    -0.115 NA 
HETATM   17  H   UNL     1      -9.295  10.083  67.957  1.00  0.00     0.000 HD 
BRANCH  16  18
HETATM   18  C   UNL     1      -8.120   9.700  66.301  1.00  0.00    -0.112 A  
HETATM   19  C   UNL     1      -7.214  10.282  65.398  1.00  0.00    -0.143 A  
HETATM   20  C   UNL     1      -7.634   8.540  63.770  1.00  0.00    -0.130 A  
HETATM   21  C   UNL     1      -6.974   9.710  64.141  1.00  0.00    -0.116 A  
HETATM   22  C   UNL     1      -8.778   8.530  65.895  1.00  0.00    -0.203 A  
HETATM   23  C   UNL     1      -8.531   7.945  64.651  1.00  0.00     0.029 A  
BRANCH  21  24
HETATM   24  C   UNL     1      -6.082  10.334  63.211  1.00  0.00    -0.143 C  
HETATM   25  C   UNL     1      -5.373  10.850  62.391  1.00  0.00    -0.183 C  
ENDBRANCH  21  24
ENDBRANCH  16  18
ENDBRANCH  11  16
BRANCH  13  26
HETATM   26  O   UNL     1     -10.576  14.829  66.247  1.00  0.00    -0.291 OA 
BRANCH  26  27
HETATM   27  C   UNL     1     -10.860  13.827  65.271  1.00  0.00    -0.324 C  
BRANCH  27  28
HETATM   28  C   UNL     1     -12.215  14.070  64.614  1.00  0.00    -0.435 C  
BRANCH  28  29
HETATM   29  O   UNL     1     -12.226  13.375  63.364  1.00  0.00    -0.661 OA 
HETATM   30  C   UNL     1     -12.595  12.014  63.512  1.00  0.00    -0.507 C  
ENDBRANCH  28  29
ENDBRANCH  27  28
ENDBRANCH  26  27
ENDBRANCH  13  26
ENDBRANCH   5   6
ENDBRANCH   4   5
ENDBRANCH   3   4
ENDBRANCH   2   3
TORSDOF 11
ENDMDL
MODEL      198
REMARK 921   NORMALIZED FREE ENERGY PREDICTED BY IDOCK:   -3.79 KCAL/MOL
REMARK 922        TOTAL FREE ENERGY PREDICTED BY IDOCK:   -7.36 KCAL/MOL
REMARK 923 INTER-LIGAND FREE ENERGY PREDICTED BY IDOCK:   -6.00 KCAL/MOL
REMARK 924 INTRA-LIGAND FREE ENERGY PREDICTED BY IDOCK:   -1.36 KCAL/MOL
REMARK 927      BINDING AFFINITY PREDICTED BY RF-SCORE:    0.00 PKD
ROOT
HETATM    1  C   UNL     1      -6.209   3.445  67.133  1.00  0.00    -0.035 C  
HETATM    2  O   UNL     1      -6.824   4.525  67.826  1.00  0.00    -0.053 OA 
ENDROOT
BRANCH   2   3
HETATM    3  C   UNL     1      -5.851   5.330  68.486  1.00  0.00    -0.017 C  
BRANCH   3   4
HETATM    4  C   UNL     1      -6.538   6.410  69.317  1.00  0.00    -0.044 C  
BRANCH   4   5
HETATM    5  O   UNL     1      -7.912   6.051  69.408  1.00  0.00    -0.100 OA 
BRANCH   5   6
HETATM    6  C   UNL     1      -8.875   7.008  69.507  1.00  0.00    -0.133 A  
HETATM    7  C   UNL     1      -9.498   7.334  70.718  1.00  0.00    -0.164 A  
HETATM    8  C   UNL     1     -10.492   8.296  70.807  1.00  0.00    -0.196 A  
HETATM    9  C   UNL     1     -10.872   9.004  69.659  1.00  0.00    -0.196 A  
HETATM   10  C   UNL     1     -10.221   8.698  68.433  1.00  0.00    -0.232 A  
HETATM   11  C   UNL     1     -11.881   9.975  69.855  1.00  0.00    -0.074 A  
HETATM   12  N   UNL     1     -12.450  10.160  71.062  1.00  0.00    -0.345 NA 
HETATM   13  C   UNL     1      -9.245   7.697  68.343  1.00  0.00    -0.140 A  
HETATM   14  N   UNL     1     -11.040   8.498  72.006  1.00  0.00    -0.318 NA 
HETATM   15  C   UNL     1     -12.002   9.417  72.075  1.00  0.00    -0.275 A  
BRANCH  11  16
HETATM   16  N   UNL     1     -12.261  10.818  68.778  1.00  0.00    -0.814 NA 
HETATM   17  H   UNL     1     -13.230  10.724  68.477  1.00  0.00     0.000 HD 
BRANCH  16  18
HETATM   18  C   UNL     1     -11.500  11.771  68.058  1.00  0.00    -0.319 A  
HETATM   19  C   UNL     1     -11.378  11.639  66.664  1.00  0.00    -0.338 A  
HETATM   20  C   UNL     1      -9.797  13.471  66.575  1.00  0.00    -0.292 A  
HETATM   21  C   UNL     1     -10.531  12.480  65.928  1.00  0.00    -0.289 A  
HETATM   22  C   UNL     1     -10.740  12.769  68.684  1.00  0.00    -0.273 A  
HETATM   23  C   UNL     1      -9.907  13.622  67.953  1.00  0.00    -0.237 A  
BRANCH  21  24
HETATM   24  C   UNL     1     -10.380  12.310  64.514  1.00  0.00    -0.339 C  
HETATM   25  C   UNL     1     -10.229  12.118  63.338  1.00  0.00    -0.422 C  
ENDBRANCH  21  24
ENDBRANCH  16  18
ENDBRANCH  11  16
BRANCH  13  26
HETATM   26  O   UNL     1      -8.772   7.527  67.061  1.00  0.00    -0.122 OA 
BRANCH  26  27
HETATM   27  C   UNL     1      -7.918   8.540  66.530  1.00  0.00    -0.099 C  
BRANCH  27  28
HETATM   28  C   UNL     1      -6.667   7.930  65.908  1.00  0.00    -0.049 C  
BRANCH  28  29
HETATM   29  O   UNL     1      -7.086   6.966  64.938  1.00  0.00    -0.056 OA 
HETATM   30  C   UNL     1      -6.076   6.009  64.664  1.00  0.00    -0.026 C  
ENDBRANCH  28  29
ENDBRANCH  27  28
ENDBRANCH  26  27
ENDBRANCH  13  26
ENDBRANCH   5   6
ENDBRANCH   4   5
ENDBRANCH   3   4
ENDBRANCH   2   3
TORSDOF 11
ENDMDL
MODEL      199
REMARK 921   NORMALIZED FREE ENERGY PREDICTED BY IDOCK:   -3.78 KCAL/MOL
REMARK 922        TOTAL FREE ENERGY PREDICTED BY IDOCK:   -7.35 KCAL/MOL
REMARK 923 INTER-LIGAND FREE ENERGY PREDICTED BY IDOCK:   -6.43 KCAL/MOL
REMARK 924 INTRA-LIGAND FREE ENERGY PREDICTED BY IDOCK:   -0.91 KCAL/MOL
REMARK 927      BINDING AFFINITY PREDICTED BY RF-SCORE:    0.00 PKD
ROOT
HETATM    1  C   UNL     1     -10.524   3.044  63.020  1.00  0.00    -0.179 C  
HETATM    2  O   UNL     1      -9.466   2.273  63.577  1.00  0.00    -0.095 OA 
ENDROOT
BRANCH   2   3
HETATM    3  C   UNL     1      -9.360   2.488  64.981  1.00  0.00    -0.100 C  
BRANCH   3   4
HETATM    4  C   UNL     1      -9.636   3.953  65.312  1.00  0.00    -0.185 C  
BRANCH   4   5
HETATM    5  O   UNL     1      -8.628   4.367  66.226  1.00  0.00    -0.112 OA 
BRANCH   5   6
HETATM    6  C   UNL     1      -8.962   4.858  67.451  1.00  0.00    -0.107 A  
HETATM    7  C   UNL     1      -9.176   4.036  68.565  1.00  0.00    -0.206 A  
HETATM    8  C   UNL     1      -9.536   4.542  69.805  1.00  0.00    -0.177 A  
HETATM    9  C   UNL     1      -9.657   5.927  69.975  1.00  0.00    -0.200 A  
HETATM   10  C   UNL     1      -9.412   6.768  68.856  1.00  0.00    -0.128 A  
HETATM   11  C   UNL     1     -10.012   6.346  71.278  1.00  0.00    -0.182 A  
HETATM   12  N   UNL     1     -10.249   5.455  72.260  1.00  0.00    -0.189 NA 
HETATM   13  C   UNL     1      -9.086   6.247  67.596  1.00  0.00    -0.117 A  
HETATM   14  N   UNL     1      -9.748   3.663  70.783  1.00  0.00    -0.179 NA 
HETATM   15  C   UNL     1     -10.104   4.162  71.967  1.00  0.00    -0.164 A  
BRANCH  11  16
HETATM   16  N   UNL     1     -10.057   7.732  71.581  1.00  0.00    -0.182 NA 
HETATM   17  H   UNL     1      -9.187   8.124  71.940  1.00  0.00     0.000 HD 
BRANCH  16  18
HETATM   18  C   UNL     1     -11.125   8.654  71.460  1.00  0.00    -0.288 A  
HETATM   19  C   UNL     1     -10.974   9.772  70.622  1.00  0.00    -0.398 A  
HETATM   20  C   UNL     1     -13.099  10.675  71.354  1.00  0.00    -0.499 A  
HETATM   21  C   UNL     1     -11.951  10.777  70.571  1.00  0.00    -0.456 A  
HETATM   22  C   UNL     1     -12.284   8.585  72.246  1.00  0.00    -0.454 A  
HETATM   23  C   UNL     1     -13.269   9.574  72.186  1.00  0.00    -0.539 A  
BRANCH  21  24
HETATM   24  C   UNL     1     -11.768  11.934  69.747  1.00  0.00    -0.403 C  
HETATM   25  C   UNL     1     -11.615  12.936  69.103  1.00  0.00    -0.375 C  
ENDBRANCH  21  24
ENDBRANCH  16  18
ENDBRANCH  11  16
BRANCH  13  26
HETATM   26  O   UNL     1      -8.933   7.224  66.638  1.00  0.00    -0.137 OA 
BRANCH  26  27
HETATM   27  C   UNL     1      -7.676   7.304  65.968  1.00  0.00    -0.095 C  
BRANCH  27  28
HETATM   28  C   UNL     1      -6.921   8.567  66.368  1.00  0.00    -0.078 C  
BRANCH  28  29
HETATM   29  O   UNL     1      -6.898   9.440  65.234  1.00  0.00    -0.079 OA 
HETATM   30  C   UNL     1      -7.715   8.964  64.177  1.00  0.00    -0.127 C  
ENDBRANCH  28  29
ENDBRANCH  27  28
ENDBRANCH  26  27
ENDBRANCH  13  26
ENDBRANCH   5   6
ENDBRANCH   4   5
ENDBRANCH   3   4
ENDBRANCH   2   3
TORSDOF 11
ENDMDL
MODEL      200
REMARK 921   NORMALIZED FREE ENERGY PREDICTED BY IDOCK:   -3.74 KCAL/MOL
REMARK 922        TOTAL FREE ENERGY PREDICTED BY IDOCK:   -7.28 KCAL/MOL
REMARK 923 INTER-LIGAND FREE ENERGY PREDICTED BY IDOCK:   -6.10 KCAL/MOL
REMARK 924 INTRA-LIGAND FREE ENERGY PREDICTED BY IDOCK:   -1.19 KCAL/MOL
REMARK 927      BINDING AFFINITY PREDICTED BY RF-SCORE:    0.00 PKD
ROOT
HETATM    1  C   UNL     1     -10.533  17.232  67.845  1.00  0.00    -0.382 C  
HETATM    2  O   UNL     1     -10.231  16.597  66.608  1.00  0.00    -0.286 OA 
ENDROOT
BRANCH   2   3
HETATM    3  C   UNL     1     -10.972  15.389  66.458  1.00  0.00    -0.271 C  
BRANCH   3   4
HETATM    4  C   UNL     1     -10.652  14.429  67.601  1.00  0.00    -0.260 C  
BRANCH   4   5
HETATM    5  O   UNL     1     -11.204  13.166  67.247  1.00  0.00    -0.267 OA 
BRANCH   5   6
HETATM    6  C   UNL     1     -11.183  12.129  68.128  1.00  0.00    -0.267 A  
HETATM    7  C   UNL     1     -12.129  11.982  69.149  1.00  0.00    -0.241 A  
HETATM    8  C   UNL     1     -12.089  10.934  70.055  1.00  0.00    -0.355 A  
HETATM    9  C   UNL     1     -11.094   9.955  69.934  1.00  0.00    -0.318 A  
HETATM   10  C   UNL     1     -10.148  10.083  68.881  1.00  0.00    -0.200 A  
HETATM   11  C   UNL     1     -11.146   8.919  70.895  1.00  0.00    -0.271 A  
HETATM   12  N   UNL     1     -12.074   8.914  71.871  1.00  0.00    -0.348 NA 
HETATM   13  C   UNL     1     -10.172  11.167  67.993  1.00  0.00    -0.181 A  
HETATM   14  N   UNL     1     -13.021  10.915  71.008  1.00  0.00    -0.343 NA 
HETATM   15  C   UNL     1     -12.964   9.908  71.879  1.00  0.00    -0.448 A  
BRANCH  11  16
HETATM   16  N   UNL     1     -10.247   7.824  70.795  1.00  0.00    -0.197 NA 
HETATM   17  H   UNL     1     -10.563   7.059  70.200  1.00  0.00     0.000 HD 
BRANCH  16  18
HETATM   18  C   UNL     1      -8.979   7.633  71.394  1.00  0.00    -0.132 A  
HETATM   19  C   UNL     1      -8.662   6.378  71.943  1.00  0.00    -0.134 A  
HETATM   20  C   UNL     1      -6.578   7.234  72.832  1.00  0.00    -0.063 A  
HETATM   21  C   UNL     1      -7.473   6.180  72.659  1.00  0.00    -0.094 A  
HETATM   22  C   UNL     1      -8.065   8.677  71.595  1.00  0.00    -0.183 A  
HETATM   23  C   UNL     1      -6.870   8.481  72.293  1.00  0.00    -0.093 A  
BRANCH  21  24
HETATM   24  C   UNL     1      -7.179   4.909  73.252  1.00  0.00    -0.085 C  
HETATM   25  C   UNL     1      -6.975   3.853  73.784  1.00  0.00    -0.058 C  
ENDBRANCH  21  24
ENDBRANCH  16  18
ENDBRANCH  11  16
BRANCH  13  26
HETATM   26  O   UNL     1      -9.145  11.127  67.076  1.00  0.00    -0.150 OA 
BRANCH  26  27
HETATM   27  C   UNL     1      -7.978  10.380  67.420  1.00  0.00    -0.107 C  
BRANCH  27  28
HETATM   28  C   UNL     1      -7.365   9.724  66.188  1.00  0.00    -0.101 C  
BRANCH  28  29
HETATM   29  O   UNL     1      -8.391   8.968  65.538  1.00  0.00    -0.118 OA 
HETATM   30  C   UNL     1      -8.298   7.582  65.826  1.00  0.00    -0.142 C  
ENDBRANCH  28  29
ENDBRANCH  27  28
ENDBRANCH  26  27
ENDBRANCH  13  26
ENDBRANCH   5   6
ENDBRANCH   4   5
ENDBRANCH   3   4
ENDBRANCH   2   3
TORSDOF 11
ENDMDL
MODEL      201
REMARK 921   NORMALIZED FREE ENERGY PREDICTED BY IDOCK:   -3.74 KCAL/MOL
REMARK 922        TOTAL FREE ENERGY PREDICTED BY IDOCK:   -7.28 KCAL/MOL
REMARK 923 INTER-LIGAND FREE ENERGY PREDICTED BY IDOCK:   -7.28 KCAL/MOL
REMARK 924 INTRA-LIGAND FREE ENERGY PREDICTED BY IDOCK:    0.00 KCAL/MOL
REMARK 927      BINDING AFFINITY PREDICTED BY RF-SCORE:    0.00 PKD
ROOT
HETATM    1  C   UNL     1     -12.933  11.210  71.667  1.00  0.00    -0.443 C  
HETATM    2  O   UNL     1     -13.022  10.471  70.454  1.00  0.00    -0.314 OA 
ENDROOT
BRANCH   2   3
HETATM    3  C   UNL     1     -12.106  10.969  69.483  1.00  0.00    -0.329 C  
BRANCH   3   4
HETATM    4  C   UNL     1     -10.729  10.343  69.688  1.00  0.00    -0.265 C  
BRANCH   4   5
HETATM    5  O   UNL     1     -10.002  10.538  68.481  1.00  0.00    -0.158 OA 
BRANCH   5   6
HETATM    6  C   UNL     1     -10.373  11.504  67.597  1.00  0.00    -0.186 A  
HETATM    7  C   UNL     1     -11.102  11.228  66.434  1.00  0.00    -0.257 A  
HETATM    8  C   UNL     1     -11.458  12.214  65.527  1.00  0.00    -0.343 A  
HETATM    9  C   UNL     1     -11.117  13.548  65.789  1.00  0.00    -0.295 A  
HETATM   10  C   UNL     1     -10.402  13.838  66.983  1.00  0.00    -0.260 A  
HETATM   11  C   UNL     1     -11.538  14.482  64.814  1.00  0.00    -0.413 A  
HETATM   12  N   UNL     1     -12.187  14.088  63.702  1.00  0.00    -0.660 NA 
HETATM   13  C   UNL     1     -10.012  12.830  67.875  1.00  0.00    -0.229 A  
HETATM   14  N   UNL     1     -12.121  11.830  64.437  1.00  0.00    -0.176 NA 
HETATM   15  C   UNL     1     -12.448  12.787  63.568  1.00  0.00    -0.379 A  
BRANCH  11  16
HETATM   16  N   UNL     1     -11.334  15.868  65.038  1.00  0.00    -0.246 NA 
HETATM   17  H   UNL     1     -12.043  16.480  64.635  1.00  0.00     0.000 HD 
BRANCH  16  18
HETATM   18  C   UNL     1     -10.296  16.533  65.736  1.00  0.00    -0.341 A  
HETATM   19  C   UNL     1     -10.594  17.701  66.460  1.00  0.00    -0.207 A  
HETATM   20  C   UNL     1      -8.250  18.063  66.946  1.00  0.00    -0.259 A  
HETATM   21  C   UNL     1      -9.580  18.462  67.057  1.00  0.00    -0.301 A  
HETATM   22  C   UNL     1      -8.948  16.163  65.631  1.00  0.00     0.134 A  
HETATM   23  C   UNL     1      -7.934  16.908  66.238  1.00  0.00    -0.350 A  
BRANCH  21  24
HETATM   24  C   UNL     1      -9.889  19.674  67.755  1.00  0.00    -0.498 C  
HETATM   25  C   UNL     1     -10.187  20.700  68.302  1.00  0.00     0.019 C  
ENDBRANCH  21  24
ENDBRANCH  16  18
ENDBRANCH  11  16
BRANCH  13  26
HETATM   26  O   UNL     1      -9.292  13.314  68.944  1.00  0.00     0.048 OA 
BRANCH  26  27
HETATM   27  C   UNL     1      -9.048  14.720  68.996  1.00  0.00    -0.136 C  
BRANCH  27  28
HETATM   28  C   UNL     1      -7.604  15.010  69.393  1.00  0.00    -0.195 C  
BRANCH  28  29
HETATM   29  O   UNL     1      -6.815  13.871  69.038  1.00  0.00    -0.105 OA 
HETATM   30  C   UNL     1      -6.026  14.105  67.883  1.00  0.00    -0.135 C  
ENDBRANCH  28  29
ENDBRANCH  27  28
ENDBRANCH  26  27
ENDBRANCH  13  26
ENDBRANCH   5   6
ENDBRANCH   4   5
ENDBRANCH   3   4
ENDBRANCH   2   3
TORSDOF 11
ENDMDL
MODEL      202
REMARK 921   NORMALIZED FREE ENERGY PREDICTED BY IDOCK:   -3.73 KCAL/MOL
REMARK 922        TOTAL FREE ENERGY PREDICTED BY IDOCK:   -7.27 KCAL/MOL
REMARK 923 INTER-LIGAND FREE ENERGY PREDICTED BY IDOCK:   -6.27 KCAL/MOL
REMARK 924 INTRA-LIGAND FREE ENERGY PREDICTED BY IDOCK:   -1.00 KCAL/MOL
REMARK 927      BINDING AFFINITY PREDICTED BY RF-SCORE:    0.00 PKD
ROOT
HETATM    1  C   UNL     1      -7.813   6.842  72.732  1.00  0.00    -0.099 C  
HETATM    2  O   UNL     1      -8.377   5.584  73.086  1.00  0.00    -0.117 OA 
ENDROOT
BRANCH   2   3
HETATM    3  C   UNL     1      -8.593   4.777  71.932  1.00  0.00    -0.123 C  
BRANCH   3   4
HETATM    4  C   UNL     1     -10.080   4.466  71.778  1.00  0.00    -0.168 C  
BRANCH   4   5
HETATM    5  O   UNL     1     -10.517   5.117  70.590  1.00  0.00    -0.250 OA 
BRANCH   5   6
HETATM    6  C   UNL     1     -10.868   6.432  70.609  1.00  0.00    -0.276 A  
HETATM    7  C   UNL     1     -11.800   6.955  71.513  1.00  0.00    -0.366 A  
HETATM    8  C   UNL     1     -12.168   8.292  71.513  1.00  0.00    -0.301 A  
HETATM    9  C   UNL     1     -11.565   9.173  70.604  1.00  0.00    -0.282 A  
HETATM   10  C   UNL     1     -10.596   8.653  69.704  1.00  0.00    -0.219 A  
HETATM   11  C   UNL     1     -11.994  10.517  70.692  1.00  0.00    -0.357 A  
HETATM   12  N   UNL     1     -12.944  10.893  71.569  1.00  0.00    -0.442 NA 
HETATM   13  C   UNL     1     -10.259   7.292  69.685  1.00  0.00    -0.211 A  
HETATM   14  N   UNL     1     -13.091   8.671  72.396  1.00  0.00    -0.369 NA 
HETATM   15  C   UNL     1     -13.444   9.956  72.376  1.00  0.00    -0.206 A  
BRANCH  11  16
HETATM   16  N   UNL     1     -11.369  11.506  69.889  1.00  0.00    -0.464 NA 
HETATM   17  H   UNL     1     -11.274  12.422  70.326  1.00  0.00     0.000 HD 
BRANCH  16  18
HETATM   18  C   UNL     1     -10.855  11.415  68.572  1.00  0.00    -0.211 A  
HETATM   19  C   UNL     1      -9.463  11.383  68.380  1.00  0.00    -0.194 A  
HETATM   20  C   UNL     1      -9.738  11.491  65.976  1.00  0.00    -0.253 A  
HETATM   21  C   UNL     1      -8.907  11.425  67.093  1.00  0.00    -0.156 A  
HETATM   22  C   UNL     1     -11.665  11.494  67.430  1.00  0.00    -0.231 A  
HETATM   23  C   UNL     1     -11.118  11.518  66.144  1.00  0.00    -0.302 A  
BRANCH  21  24
HETATM   24  C   UNL     1      -7.487  11.436  66.908  1.00  0.00    -0.147 C  
HETATM   25  C   UNL     1      -6.293  11.400  66.787  1.00  0.00    -0.142 C  
ENDBRANCH  21  24
ENDBRANCH  16  18
ENDBRANCH  11  16
BRANCH  13  26
HETATM   26  O   UNL     1      -9.335   6.986  68.710  1.00  0.00    -0.136 OA 
BRANCH  26  27
HETATM   27  C   UNL     1      -8.178   7.815  68.611  1.00  0.00    -0.128 C  
BRANCH  27  28
HETATM   28  C   UNL     1      -6.952   6.999  68.217  1.00  0.00    -0.080 C  
BRANCH  28  29
HETATM   29  O   UNL     1      -6.178   6.774  69.400  1.00  0.00    -0.028 OA 
HETATM   30  C   UNL     1      -5.651   5.459  69.453  1.00  0.00    -0.011 C  
ENDBRANCH  28  29
ENDBRANCH  27  28
ENDBRANCH  26  27
ENDBRANCH  13  26
ENDBRANCH   5   6
ENDBRANCH   4   5
ENDBRANCH   3   4
ENDBRANCH   2   3
TORSDOF 11
ENDMDL
MODEL      203
REMARK 921   NORMALIZED FREE ENERGY PREDICTED BY IDOCK:   -3.68 KCAL/MOL
REMARK 922        TOTAL FREE ENERGY PREDICTED BY IDOCK:   -7.19 KCAL/MOL
REMARK 923 INTER-LIGAND FREE ENERGY PREDICTED BY IDOCK:   -6.51 KCAL/MOL
REMARK 924 INTRA-LIGAND FREE ENERGY PREDICTED BY IDOCK:   -0.67 KCAL/MOL
REMARK 927      BINDING AFFINITY PREDICTED BY RF-SCORE:    0.00 PKD
ROOT
HETATM    1  C   UNL     1     -11.550  15.601  69.544  1.00  0.00    -0.357 C  
HETATM    2  O   UNL     1     -11.996  15.267  68.235  1.00  0.00    -0.297 OA 
ENDROOT
BRANCH   2   3
HETATM    3  C   UNL     1     -10.989  15.543  67.265  1.00  0.00    -0.303 C  
BRANCH   3   4
HETATM    4  C   UNL     1     -11.339  14.873  65.939  1.00  0.00    -0.306 C  
BRANCH   4   5
HETATM    5  O   UNL     1     -10.170  14.189  65.501  1.00  0.00    -0.320 OA 
BRANCH   5   6
HETATM    6  C   UNL     1      -9.708  13.102  66.177  1.00  0.00    -0.248 A  
HETATM    7  C   UNL     1      -8.801  13.199  67.238  1.00  0.00    -0.208 A  
HETATM    8  C   UNL     1      -8.319  12.085  67.909  1.00  0.00    -0.155 A  
HETATM    9  C   UNL     1      -8.777  10.811  67.548  1.00  0.00    -0.125 A  
HETATM   10  C   UNL     1      -9.722  10.709  66.491  1.00  0.00    -0.236 A  
HETATM   11  C   UNL     1      -8.241   9.741  68.301  1.00  0.00    -0.105 A  
HETATM   12  N   UNL     1      -7.326   9.952  69.266  1.00  0.00    -0.076 NA 
HETATM   13  C   UNL     1     -10.174  11.837  65.792  1.00  0.00    -0.239 A  
HETATM   14  N   UNL     1      -7.431  12.294  68.881  1.00  0.00    -0.062 NA 
HETATM   15  C   UNL     1      -6.968  11.214  69.509  1.00  0.00    -0.111 A  
BRANCH  11  16
HETATM   16  N   UNL     1      -8.720   8.422  68.084  1.00  0.00    -0.142 NA 
HETATM   17  H   UNL     1      -8.569   8.057  67.144  1.00  0.00     0.000 HD 
BRANCH  16  18
HETATM   18  C   UNL     1      -9.374   7.536  68.974  1.00  0.00    -0.146 A  
HETATM   19  C   UNL     1      -8.604   6.750  69.849  1.00  0.00    -0.141 A  
HETATM   20  C   UNL     1     -10.575   5.560  70.601  1.00  0.00    -0.329 A  
HETATM   21  C   UNL     1      -9.198   5.767  70.654  1.00  0.00    -0.172 A  
HETATM   22  C   UNL     1     -10.755   7.296  68.933  1.00  0.00    -0.173 A  
HETATM   23  C   UNL     1     -11.355   6.330  69.745  1.00  0.00    -0.506 A  
BRANCH  21  24
HETATM   24  C   UNL     1      -8.400   4.942  71.510  1.00  0.00    -0.113 C  
HETATM   25  C   UNL     1      -7.710   4.297  72.251  1.00  0.00    -0.081 C  
ENDBRANCH  21  24
ENDBRANCH  16  18
ENDBRANCH  11  16
BRANCH  13  26
HETATM   26  O   UNL     1     -11.049  11.519  64.777  1.00  0.00    -0.296 OA 
BRANCH  26  27
HETATM   27  C   UNL     1     -10.737  11.982  63.464  1.00  0.00    -0.455 C  
BRANCH  27  28
HETATM   28  C   UNL     1      -9.388  11.443  63.000  1.00  0.00    -0.322 C  
BRANCH  28  29
HETATM   29  O   UNL     1      -9.520  10.030  62.823  1.00  0.00    -0.295 OA 
HETATM   30  C   UNL     1      -8.409   9.319  63.346  1.00  0.00    -0.193 C  
ENDBRANCH  28  29
ENDBRANCH  27  28
ENDBRANCH  26  27
ENDBRANCH  13  26
ENDBRANCH   5   6
ENDBRANCH   4   5
ENDBRANCH   3   4
ENDBRANCH   2   3
TORSDOF 11
ENDMDL
MODEL      204
REMARK 921   NORMALIZED FREE ENERGY PREDICTED BY IDOCK:   -3.67 KCAL/MOL
REMARK 922        TOTAL FREE ENERGY PREDICTED BY IDOCK:   -7.17 KCAL/MOL
REMARK 923 INTER-LIGAND FREE ENERGY PREDICTED BY IDOCK:   -6.33 KCAL/MOL
REMARK 924 INTRA-LIGAND FREE ENERGY PREDICTED BY IDOCK:   -0.85 KCAL/MOL
REMARK 927      BINDING AFFINITY PREDICTED BY RF-SCORE:    0.00 PKD
ROOT
HETATM    1  C   UNL     1      -8.946  10.577  63.107  1.00  0.00    -0.236 C  
HETATM    2  O   UNL     1     -10.153  11.061  63.684  1.00  0.00    -0.312 OA 
ENDROOT
BRANCH   2   3
HETATM    3  C   UNL     1      -9.896  12.133  64.587  1.00  0.00    -0.128 C  
BRANCH   3   4
HETATM    4  C   UNL     1      -9.557  11.585  65.971  1.00  0.00    -0.228 C  
BRANCH   4   5
HETATM    5  O   UNL     1     -10.509  10.567  66.257  1.00  0.00    -0.235 OA 
BRANCH   5   6
HETATM    6  C   UNL     1     -10.119   9.389  66.815  1.00  0.00    -0.256 A  
HETATM    7  C   UNL     1      -9.748   8.275  66.051  1.00  0.00    -0.100 A  
HETATM    8  C   UNL     1      -9.371   7.071  66.627  1.00  0.00    -0.165 A  
HETATM    9  C   UNL     1      -9.318   6.960  68.022  1.00  0.00    -0.123 A  
HETATM   10  C   UNL     1      -9.665   8.097  68.802  1.00  0.00    -0.155 A  
HETATM   11  C   UNL     1      -8.907   5.699  68.513  1.00  0.00    -0.108 A  
HETATM   12  N   UNL     1      -8.629   4.680  67.678  1.00  0.00    -0.103 NA 
HETATM   13  C   UNL     1     -10.082   9.299  68.213  1.00  0.00    -0.185 A  
HETATM   14  N   UNL     1      -9.073   6.068  65.802  1.00  0.00    -0.116 NA 
HETATM   15  C   UNL     1      -8.723   4.913  66.368  1.00  0.00    -0.113 A  
BRANCH  11  16
HETATM   16  N   UNL     1      -8.719   5.517  69.908  1.00  0.00    -0.122 NA 
HETATM   17  H   UNL     1      -7.748   5.423  70.204  1.00  0.00     0.000 HD 
BRANCH  16  18
HETATM   18  C   UNL     1      -9.674   5.448  70.952  1.00  0.00    -0.180 A  
HETATM   19  C   UNL     1     -10.931   6.052  70.773  1.00  0.00    -0.364 A  
HETATM   20  C   UNL     1     -11.544   5.581  73.067  1.00  0.00    -0.233 A  
HETATM   21  C   UNL     1     -11.858   6.122  71.822  1.00  0.00    -0.279 A  
HETATM   22  C   UNL     1      -9.382   4.923  72.218  1.00  0.00    -0.165 A  
HETATM   23  C   UNL     1     -10.308   4.974  73.264  1.00  0.00    -0.232 A  
BRANCH  21  24
HETATM   24  C   UNL     1     -13.118   6.778  71.643  1.00  0.00    -0.258 C  
HETATM   25  C   UNL     1     -14.201   7.278  71.503  1.00  0.00    -0.540 C  
ENDBRANCH  21  24
ENDBRANCH  16  18
ENDBRANCH  11  16
BRANCH  13  26
HETATM   26  O   UNL     1     -10.415  10.260  69.142  1.00  0.00    -0.196 OA 
BRANCH  26  27
HETATM   27  C   UNL     1     -11.176   9.848  70.277  1.00  0.00    -0.301 C  
BRANCH  27  28
HETATM   28  C   UNL     1     -12.087  10.972  70.762  1.00  0.00    -0.366 C  
BRANCH  28  29
HETATM   29  O   UNL     1     -12.111  11.982  69.749  1.00  0.00    -0.294 OA 
HETATM   30  C   UNL     1     -11.887  13.278  70.281  1.00  0.00    -0.234 C  
ENDBRANCH  28  29
ENDBRANCH  27  28
ENDBRANCH  26  27
ENDBRANCH  13  26
ENDBRANCH   5   6
ENDBRANCH   4   5
ENDBRANCH   3   4
ENDBRANCH   2   3
TORSDOF 11
ENDMDL
MODEL      205
REMARK 921   NORMALIZED FREE ENERGY PREDICTED BY IDOCK:   -3.67 KCAL/MOL
REMARK 922        TOTAL FREE ENERGY PREDICTED BY IDOCK:   -7.16 KCAL/MOL
REMARK 923 INTER-LIGAND FREE ENERGY PREDICTED BY IDOCK:   -6.84 KCAL/MOL
REMARK 924 INTRA-LIGAND FREE ENERGY PREDICTED BY IDOCK:   -0.32 KCAL/MOL
REMARK 927      BINDING AFFINITY PREDICTED BY RF-SCORE:    0.00 PKD
ROOT
HETATM    1  C   UNL     1      -9.749  11.454  62.966  1.00  0.00    -0.371 C  
HETATM    2  O   UNL     1     -10.513  10.735  63.928  1.00  0.00    -0.338 OA 
ENDROOT
BRANCH   2   3
HETATM    3  C   UNL     1      -9.720   9.743  64.573  1.00  0.00    -0.039 C  
BRANCH   3   4
HETATM    4  C   UNL     1      -9.661  10.012  66.075  1.00  0.00    -0.240 C  
BRANCH   4   5
HETATM    5  O   UNL     1      -8.296  10.246  66.399  1.00  0.00    -0.126 OA 
BRANCH   5   6
HETATM    6  C   UNL     1      -7.940  11.302  67.181  1.00  0.00    -0.151 A  
HETATM    7  C   UNL     1      -6.936  11.220  68.154  1.00  0.00    -0.069 A  
HETATM    8  C   UNL     1      -6.593  12.295  68.961  1.00  0.00    -0.100 A  
HETATM    9  C   UNL     1      -7.239  13.525  68.782  1.00  0.00    -0.096 A  
HETATM   10  C   UNL     1      -8.239  13.622  67.775  1.00  0.00    -0.179 A  
HETATM   11  C   UNL     1      -6.809  14.563  69.641  1.00  0.00    -0.142 A  
HETATM   12  N   UNL     1      -5.871  14.349  70.582  1.00  0.00    -0.172 NA 
HETATM   13  C   UNL     1      -8.607  12.520  66.991  1.00  0.00    -0.188 A  
HETATM   14  N   UNL     1      -5.647  12.092  69.878  1.00  0.00    -0.096 NA 
HETATM   15  C   UNL     1      -5.336  13.130  70.654  1.00  0.00    -0.151 A  
BRANCH  11  16
HETATM   16  N   UNL     1      -7.326  15.874  69.469  1.00  0.00    -0.206 NA 
HETATM   17  H   UNL     1      -6.672  16.627  69.678  1.00  0.00     0.000 HD 
BRANCH  16  18
HETATM   18  C   UNL     1      -8.612  16.296  69.052  1.00  0.00    -0.247 A  
HETATM   19  C   UNL     1      -8.721  17.339  68.115  1.00  0.00    -0.243 A  
HETATM   20  C   UNL     1     -11.131  17.373  68.354  1.00  0.00     0.028 A  
HETATM   21  C   UNL     1      -9.970  17.876  67.771  1.00  0.00    -0.331 A  
HETATM   22  C   UNL     1      -9.796  15.818  69.631  1.00  0.00    -0.275 A  
HETATM   23  C   UNL     1     -11.045  16.338  69.279  1.00  0.00    -0.325 A  
BRANCH  21  24
HETATM   24  C   UNL     1     -10.068  18.968  66.849  1.00  0.00    -0.437 C  
HETATM   25  C   UNL     1     -10.205  19.886  66.089  1.00  0.00    -0.611 C  
ENDBRANCH  21  24
ENDBRANCH  16  18
ENDBRANCH  11  16
BRANCH  13  26
HETATM   26  O   UNL     1      -9.622  12.811  66.107  1.00  0.00    -0.254 OA 
BRANCH  26  27
HETATM   27  C   UNL     1     -10.639  13.715  66.541  1.00  0.00    -0.282 C  
BRANCH  27  28
HETATM   28  C   UNL     1     -11.832  13.692  65.592  1.00  0.00    -0.364 C  
BRANCH  28  29
HETATM   29  O   UNL     1     -11.570  14.624  64.538  1.00  0.00    -0.397 OA 
HETATM   30  C   UNL     1     -10.827  15.745  64.988  1.00  0.00    -0.443 C  
ENDBRANCH  28  29
ENDBRANCH  27  28
ENDBRANCH  26  27
ENDBRANCH  13  26
ENDBRANCH   5   6
ENDBRANCH   4   5
ENDBRANCH   3   4
ENDBRANCH   2   3
TORSDOF 11
ENDMDL
MODEL      206
REMARK 921   NORMALIZED FREE ENERGY PREDICTED BY IDOCK:   -3.65 KCAL/MOL
REMARK 922        TOTAL FREE ENERGY PREDICTED BY IDOCK:   -7.13 KCAL/MOL
REMARK 923 INTER-LIGAND FREE ENERGY PREDICTED BY IDOCK:   -6.81 KCAL/MOL
REMARK 924 INTRA-LIGAND FREE ENERGY PREDICTED BY IDOCK:   -0.31 KCAL/MOL
REMARK 927      BINDING AFFINITY PREDICTED BY RF-SCORE:    0.00 PKD
ROOT
HETATM    1  C   UNL     1      -9.559   3.358  67.596  1.00  0.00    -0.107 C  
HETATM    2  O   UNL     1      -9.207   4.687  67.962  1.00  0.00    -0.115 OA 
ENDROOT
BRANCH   2   3
HETATM    3  C   UNL     1      -9.557   5.611  66.935  1.00  0.00    -0.141 C  
BRANCH   3   4
HETATM    4  C   UNL     1      -9.172   7.029  67.349  1.00  0.00    -0.126 C  
BRANCH   4   5
HETATM    5  O   UNL     1      -9.073   7.795  66.153  1.00  0.00    -0.173 OA 
BRANCH   5   6
HETATM    6  C   UNL     1      -9.312   9.135  66.167  1.00  0.00    -0.228 A  
HETATM    7  C   UNL     1      -9.883   9.814  65.083  1.00  0.00    -0.294 A  
HETATM    8  C   UNL     1     -10.105  11.183  65.096  1.00  0.00    -0.281 A  
HETATM    9  C   UNL     1      -9.786  11.922  66.243  1.00  0.00    -0.246 A  
HETATM   10  C   UNL     1      -9.233  11.233  67.357  1.00  0.00    -0.164 A  
HETATM   11  C   UNL     1     -10.064  13.306  66.165  1.00  0.00    -0.293 A  
HETATM   12  N   UNL     1     -10.563  13.859  65.043  1.00  0.00    -0.379 NA 
HETATM   13  C   UNL     1      -8.976   9.856  67.321  1.00  0.00    -0.135 A  
HETATM   14  N   UNL     1     -10.622  11.727  63.995  1.00  0.00    -0.336 NA 
HETATM   15  C   UNL     1     -10.819  13.045  64.017  1.00  0.00    -0.377 A  
BRANCH  11  16
HETATM   16  N   UNL     1      -9.875  14.124  67.310  1.00  0.00    -0.235 NA 
HETATM   17  H   UNL     1      -9.813  13.621  68.195  1.00  0.00     0.000 HD 
BRANCH  16  18
HETATM   18  C   UNL     1      -9.760  15.532  67.412  1.00  0.00    -0.218 A  
HETATM   19  C   UNL     1      -8.500  16.131  67.239  1.00  0.00    -0.203 A  
HETATM   20  C   UNL     1      -9.388  18.300  67.847  1.00  0.00    -0.284 A  
HETATM   21  C   UNL     1      -8.314  17.504  67.458  1.00  0.00    -0.220 A  
HETATM   22  C   UNL     1     -10.820  16.357  67.815  1.00  0.00    -0.306 A  
HETATM   23  C   UNL     1     -10.644  17.728  68.018  1.00  0.00    -0.372 A  
BRANCH  21  24
HETATM   24  C   UNL     1      -7.017  18.097  67.323  1.00  0.00    -0.207 C  
HETATM   25  C   UNL     1      -5.914  18.548  67.182  1.00  0.00    -0.171 C  
ENDBRANCH  21  24
ENDBRANCH  16  18
ENDBRANCH  11  16
BRANCH  13  26
HETATM   26  O   UNL     1      -8.399   9.391  68.482  1.00  0.00    -0.116 OA 
BRANCH  26  27
HETATM   27  C   UNL     1      -8.913   9.884  69.720  1.00  0.00    -0.221 C  
BRANCH  27  28
HETATM   28  C   UNL     1      -8.315   9.127  70.901  1.00  0.00    -0.185 C  
BRANCH  28  29
HETATM   29  O   UNL     1      -9.310   9.060  71.926  1.00  0.00    -0.341 OA 
HETATM   30  C   UNL     1     -10.626   9.105  71.398  1.00  0.00    -0.341 C  
ENDBRANCH  28  29
ENDBRANCH  27  28
ENDBRANCH  26  27
ENDBRANCH  13  26
ENDBRANCH   5   6
ENDBRANCH   4   5
ENDBRANCH   3   4
ENDBRANCH   2   3
TORSDOF 11
ENDMDL
MODEL      207
REMARK 921   NORMALIZED FREE ENERGY PREDICTED BY IDOCK:   -3.64 KCAL/MOL
REMARK 922        TOTAL FREE ENERGY PREDICTED BY IDOCK:   -7.11 KCAL/MOL
REMARK 923 INTER-LIGAND FREE ENERGY PREDICTED BY IDOCK:   -6.07 KCAL/MOL
REMARK 924 INTRA-LIGAND FREE ENERGY PREDICTED BY IDOCK:   -1.04 KCAL/MOL
REMARK 927      BINDING AFFINITY PREDICTED BY RF-SCORE:    0.00 PKD
ROOT
HETATM    1  C   UNL     1     -10.457  20.372  68.078  1.00  0.00    -0.069 C  
HETATM    2  O   UNL     1     -10.835  19.749  66.855  1.00  0.00    -0.472 OA 
ENDROOT
BRANCH   2   3
HETATM    3  C   UNL     1      -9.758  18.988  66.314  1.00  0.00    -0.354 C  
BRANCH   3   4
HETATM    4  C   UNL     1     -10.298  17.867  65.430  1.00  0.00     0.277 C  
BRANCH   4   5
HETATM    5  O   UNL     1     -10.751  16.836  66.300  1.00  0.00    -0.234 OA 
BRANCH   5   6
HETATM    6  C   UNL     1     -10.550  15.526  65.987  1.00  0.00    -0.325 A  
HETATM    7  C   UNL     1     -11.266  14.869  64.979  1.00  0.00    -0.408 A  
HETATM    8  C   UNL     1     -11.070  13.530  64.680  1.00  0.00    -0.374 A  
HETATM    9  C   UNL     1     -10.096  12.803  65.377  1.00  0.00    -0.274 A  
HETATM   10  C   UNL     1      -9.345  13.473  66.381  1.00  0.00    -0.191 A  
HETATM   11  C   UNL     1      -9.960  11.450  64.989  1.00  0.00    -0.266 A  
HETATM   12  N   UNL     1     -10.749  10.910  64.041  1.00  0.00    -0.272 NA 
HETATM   13  C   UNL     1      -9.577  14.817  66.705  1.00  0.00    -0.272 A  
HETATM   14  N   UNL     1     -11.833  13.000  63.725  1.00  0.00    -0.473 NA 
HETATM   15  C   UNL     1     -11.642  11.709  63.455  1.00  0.00    -0.305 A  
BRANCH  11  16
HETATM   16  N   UNL     1      -8.930  10.657  65.561  1.00  0.00    -0.184 NA 
HETATM   17  H   UNL     1      -8.000  10.813  65.175  1.00  0.00     0.000 HD 
BRANCH  16  18
HETATM   18  C   UNL     1      -8.997   9.683  66.587  1.00  0.00    -0.146 A  
HETATM   19  C   UNL     1      -7.808   9.096  67.053  1.00  0.00    -0.102 A  
HETATM   20  C   UNL     1      -9.053   7.553  68.445  1.00  0.00    -0.133 A  
HETATM   21  C   UNL     1      -7.835   8.037  67.972  1.00  0.00    -0.126 A  
HETATM   22  C   UNL     1     -10.208   9.167  67.070  1.00  0.00    -0.333 A  
HETATM   23  C   UNL     1     -10.240   8.124  67.999  1.00  0.00    -0.263 A  
BRANCH  21  24
HETATM   24  C   UNL     1      -6.620   7.416  68.409  1.00  0.00    -0.046 C  
HETATM   25  C   UNL     1      -5.576   6.945  68.768  1.00  0.00    -0.018 C  
ENDBRANCH  21  24
ENDBRANCH  16  18
ENDBRANCH  11  16
BRANCH  13  26
HETATM   26  O   UNL     1      -8.777  15.263  67.733  1.00  0.00    -0.160 OA 
BRANCH  26  27
HETATM   27  C   UNL     1      -7.368  15.072  67.606  1.00  0.00    -0.188 C  
BRANCH  27  28
HETATM   28  C   UNL     1      -6.607  15.927  68.614  1.00  0.00    -0.118 C  
BRANCH  28  29
HETATM   29  O   UNL     1      -5.555  15.126  69.161  1.00  0.00    -0.097 OA 
HETATM   30  C   UNL     1      -5.692  14.949  70.562  1.00  0.00    -0.147 C  
ENDBRANCH  28  29
ENDBRANCH  27  28
ENDBRANCH  26  27
ENDBRANCH  13  26
ENDBRANCH   5   6
ENDBRANCH   4   5
ENDBRANCH   3   4
ENDBRANCH   2   3
TORSDOF 11
ENDMDL
MODEL      208
REMARK 921   NORMALIZED FREE ENERGY PREDICTED BY IDOCK:   -3.64 KCAL/MOL
REMARK 922        TOTAL FREE ENERGY PREDICTED BY IDOCK:   -7.11 KCAL/MOL
REMARK 923 INTER-LIGAND FREE ENERGY PREDICTED BY IDOCK:   -6.79 KCAL/MOL
REMARK 924 INTRA-LIGAND FREE ENERGY PREDICTED BY IDOCK:   -0.32 KCAL/MOL
REMARK 927      BINDING AFFINITY PREDICTED BY RF-SCORE:    0.00 PKD
ROOT
HETATM    1  C   UNL     1     -12.083  14.768  64.213  1.00  0.00    -0.394 C  
HETATM    2  O   UNL     1     -12.998  14.006  64.994  1.00  0.00    -0.728 OA 
ENDROOT
BRANCH   2   3
HETATM    3  C   UNL     1     -12.458  12.726  65.310  1.00  0.00    -0.465 C  
BRANCH   3   4
HETATM    4  C   UNL     1     -10.963  12.841  65.596  1.00  0.00    -0.273 C  
BRANCH   4   5
HETATM    5  O   UNL     1     -10.817  12.908  67.011  1.00  0.00    -0.255 OA 
BRANCH   5   6
HETATM    6  C   UNL     1     -10.854  11.776  67.766  1.00  0.00    -0.213 A  
HETATM    7  C   UNL     1     -11.812  11.560  68.763  1.00  0.00    -0.394 A  
HETATM    8  C   UNL     1     -11.830  10.413  69.542  1.00  0.00    -0.147 A  
HETATM    9  C   UNL     1     -10.884   9.407  69.310  1.00  0.00    -0.190 A  
HETATM   10  C   UNL     1      -9.926   9.607  68.278  1.00  0.00    -0.178 A  
HETATM   11  C   UNL     1     -10.994   8.270  70.144  1.00  0.00    -0.222 A  
HETATM   12  N   UNL     1     -11.927   8.200  71.113  1.00  0.00    -0.290 NA 
HETATM   13  C   UNL     1      -9.891  10.786  67.521  1.00  0.00    -0.172 A  
HETATM   14  N   UNL     1     -12.768  10.332  70.486  1.00  0.00    -0.290 NA 
HETATM   15  C   UNL     1     -12.766   9.229  71.235  1.00  0.00    -0.299 A  
BRANCH  11  16
HETATM   16  N   UNL     1     -10.150   7.151  69.919  1.00  0.00    -0.189 NA 
HETATM   17  H   UNL     1      -9.385   7.046  70.584  1.00  0.00     0.000 HD 
BRANCH  16  18
HETATM   18  C   UNL     1     -10.208   6.158  68.910  1.00  0.00    -0.188 A  
HETATM   19  C   UNL     1      -9.500   4.957  69.090  1.00  0.00    -0.205 A  
HETATM   20  C   UNL     1     -10.058   4.231  66.848  1.00  0.00    -0.097 A  
HETATM   21  C   UNL     1      -9.422   4.002  68.066  1.00  0.00    -0.220 A  
HETATM   22  C   UNL     1     -10.827   6.367  67.670  1.00  0.00    -0.425 A  
HETATM   23  C   UNL     1     -10.767   5.411  66.652  1.00  0.00    -0.309 A  
BRANCH  21  24
HETATM   24  C   UNL     1      -8.663   2.800  68.242  1.00  0.00    -0.136 C  
HETATM   25  C   UNL     1      -8.075   1.764  68.393  1.00  0.00    -0.067 C  
ENDBRANCH  21  24
ENDBRANCH  16  18
ENDBRANCH  11  16
BRANCH  13  26
HETATM   26  O   UNL     1      -8.862  10.801  66.606  1.00  0.00    -0.140 OA 
BRANCH  26  27
HETATM   27  C   UNL     1      -7.567  10.405  67.059  1.00  0.00    -0.101 C  
BRANCH  27  28
HETATM   28  C   UNL     1      -7.217  11.086  68.378  1.00  0.00    -0.085 C  
BRANCH  28  29
HETATM   29  O   UNL     1      -5.792  11.190  68.451  1.00  0.00    -0.043 OA 
HETATM   30  C   UNL     1      -5.329  12.473  68.061  1.00  0.00    -0.078 C  
ENDBRANCH  28  29
ENDBRANCH  27  28
ENDBRANCH  26  27
ENDBRANCH  13  26
ENDBRANCH   5   6
ENDBRANCH   4   5
ENDBRANCH   3   4
ENDBRANCH   2   3
TORSDOF 11
ENDMDL
MODEL      209
REMARK 921   NORMALIZED FREE ENERGY PREDICTED BY IDOCK:   -3.64 KCAL/MOL
REMARK 922        TOTAL FREE ENERGY PREDICTED BY IDOCK:   -7.11 KCAL/MOL
REMARK 923 INTER-LIGAND FREE ENERGY PREDICTED BY IDOCK:   -5.97 KCAL/MOL
REMARK 924 INTRA-LIGAND FREE ENERGY PREDICTED BY IDOCK:   -1.14 KCAL/MOL
REMARK 927      BINDING AFFINITY PREDICTED BY RF-SCORE:    0.00 PKD
ROOT
HETATM    1  C   UNL     1     -10.283   4.402  65.649  1.00  0.00    -0.238 C  
HETATM    2  O   UNL     1     -10.278   4.988  66.945  1.00  0.00    -0.208 OA 
ENDROOT
BRANCH   2   3
HETATM    3  C   UNL     1      -9.326   4.350  67.792  1.00  0.00    -0.153 C  
BRANCH   3   4
HETATM    4  C   UNL     1      -8.276   5.356  68.256  1.00  0.00    -0.095 C  
BRANCH   4   5
HETATM    5  O   UNL     1      -8.981   6.477  68.777  1.00  0.00    -0.125 OA 
BRANCH   5   6
HETATM    6  C   UNL     1      -8.622   7.744  68.430  1.00  0.00    -0.128 A  
HETATM    7  C   UNL     1      -7.466   8.029  67.694  1.00  0.00    -0.097 A  
HETATM    8  C   UNL     1      -7.097   9.324  67.361  1.00  0.00    -0.079 A  
HETATM    9  C   UNL     1      -7.921  10.394  67.736  1.00  0.00    -0.102 A  
HETATM   10  C   UNL     1      -9.111  10.107  68.459  1.00  0.00    -0.134 A  
HETATM   11  C   UNL     1      -7.468  11.672  67.338  1.00  0.00    -0.135 A  
HETATM   12  N   UNL     1      -6.304  11.829  66.679  1.00  0.00    -0.078 NA 
HETATM   13  C   UNL     1      -9.457   8.799  68.825  1.00  0.00    -0.142 A  
HETATM   14  N   UNL     1      -5.958   9.479  66.688  1.00  0.00    -0.058 NA 
HETATM   15  C   UNL     1      -5.609  10.730  66.385  1.00  0.00    -0.094 A  
BRANCH  11  16
HETATM   16  N   UNL     1      -8.282  12.810  67.577  1.00  0.00    -0.168 NA 
HETATM   17  H   UNL     1      -8.224  13.193  68.520  1.00  0.00     0.000 HD 
BRANCH  16  18
HETATM   18  C   UNL     1      -9.164  13.495  66.705  1.00  0.00    -0.240 A  
HETATM   19  C   UNL     1      -9.215  14.900  66.747  1.00  0.00    -0.281 A  
HETATM   20  C   UNL     1     -11.069  14.932  65.190  1.00  0.00    -0.399 A  
HETATM   21  C   UNL     1     -10.162  15.613  65.999  1.00  0.00    -0.354 A  
HETATM   22  C   UNL     1     -10.097  12.837  65.892  1.00  0.00    -0.286 A  
HETATM   23  C   UNL     1     -11.032  13.543  65.130  1.00  0.00    -0.328 A  
BRANCH  21  24
HETATM   24  C   UNL     1     -10.235  17.041  66.081  1.00  0.00    -0.346 C  
HETATM   25  C   UNL     1     -10.286  18.234  66.206  1.00  0.00    -0.414 C  
ENDBRANCH  21  24
ENDBRANCH  16  18
ENDBRANCH  11  16
BRANCH  13  26
HETATM   26  O   UNL     1     -10.622   8.741  69.557  1.00  0.00    -0.225 OA 
BRANCH  26  27
HETATM   27  C   UNL     1     -10.760   9.644  70.654  1.00  0.00    -0.322 C  
BRANCH  27  28
HETATM   28  C   UNL     1     -12.206   9.706  71.133  1.00  0.00    -0.350 C  
BRANCH  28  29
HETATM   29  O   UNL     1     -12.526   8.443  71.724  1.00  0.00    -0.304 OA 
HETATM   30  C   UNL     1     -13.637   7.825  71.096  1.00  0.00    -0.087 C  
ENDBRANCH  28  29
ENDBRANCH  27  28
ENDBRANCH  26  27
ENDBRANCH  13  26
ENDBRANCH   5   6
ENDBRANCH   4   5
ENDBRANCH   3   4
ENDBRANCH   2   3
TORSDOF 11
ENDMDL
MODEL      210
REMARK 921   NORMALIZED FREE ENERGY PREDICTED BY IDOCK:   -3.63 KCAL/MOL
REMARK 922        TOTAL FREE ENERGY PREDICTED BY IDOCK:   -7.11 KCAL/MOL
REMARK 923 INTER-LIGAND FREE ENERGY PREDICTED BY IDOCK:   -6.36 KCAL/MOL
REMARK 924 INTRA-LIGAND FREE ENERGY PREDICTED BY IDOCK:   -0.75 KCAL/MOL
REMARK 927      BINDING AFFINITY PREDICTED BY RF-SCORE:    0.00 PKD
ROOT
HETATM    1  C   UNL     1     -11.998  14.260  64.478  1.00  0.00    -0.462 C  
HETATM    2  O   UNL     1     -11.686  14.599  65.824  1.00  0.00    -0.352 OA 
ENDROOT
BRANCH   2   3
HETATM    3  C   UNL     1     -12.106  13.575  66.721  1.00  0.00    -0.375 C  
BRANCH   3   4
HETATM    4  C   UNL     1     -11.070  13.385  67.826  1.00  0.00    -0.268 C  
BRANCH   4   5
HETATM    5  O   UNL     1     -10.609  12.042  67.733  1.00  0.00    -0.199 OA 
BRANCH   5   6
HETATM    6  C   UNL     1     -10.807  11.168  68.759  1.00  0.00    -0.213 A  
HETATM    7  C   UNL     1     -12.022  11.071  69.447  1.00  0.00    -0.408 A  
HETATM    8  C   UNL     1     -12.210  10.193  70.504  1.00  0.00    -0.264 A  
HETATM    9  C   UNL     1     -11.166   9.339  70.885  1.00  0.00    -0.372 A  
HETATM   10  C   UNL     1      -9.940   9.413  70.169  1.00  0.00    -0.269 A  
HETATM   11  C   UNL     1     -11.459   8.470  71.961  1.00  0.00    -0.361 A  
HETATM   12  N   UNL     1     -12.652   8.507  72.586  1.00  0.00    -0.293 NA 
HETATM   13  C   UNL     1      -9.746  10.330  69.128  1.00  0.00    -0.217 A  
HETATM   14  N   UNL     1     -13.397  10.211  71.109  1.00  0.00    -0.351 NA 
HETATM   15  C   UNL     1     -13.560   9.371  72.130  1.00  0.00    -0.457 A  
BRANCH  11  16
HETATM   16  N   UNL     1     -10.506   7.494  72.353  1.00  0.00    -0.226 NA 
HETATM   17  H   UNL     1     -10.894   6.580  72.585  1.00  0.00     0.000 HD 
BRANCH  16  18
HETATM   18  C   UNL     1      -9.099   7.595  72.471  1.00  0.00    -0.155 A  
HETATM   19  C   UNL     1      -8.283   6.923  71.544  1.00  0.00    -0.110 A  
HETATM   20  C   UNL     1      -6.289   7.530  72.778  1.00  0.00    -0.059 A  
HETATM   21  C   UNL     1      -6.889   6.887  71.697  1.00  0.00    -0.065 A  
HETATM   22  C   UNL     1      -8.467   8.221  73.555  1.00  0.00    -0.264 A  
HETATM   23  C   UNL     1      -7.078   8.203  73.703  1.00  0.00    -0.169 A  
BRANCH  21  24
HETATM   24  C   UNL     1      -6.070   6.165  70.771  1.00  0.00    -0.038 C  
HETATM   25  C   UNL     1      -5.391   5.512  70.026  1.00  0.00    -0.004 C  
ENDBRANCH  21  24
ENDBRANCH  16  18
ENDBRANCH  11  16
BRANCH  13  26
HETATM   26  O   UNL     1      -8.476  10.272  68.597  1.00  0.00    -0.114 OA 
BRANCH  26  27
HETATM   27  C   UNL     1      -7.888   8.983  68.426  1.00  0.00    -0.103 C  
BRANCH  27  28
HETATM   28  C   UNL     1      -6.451   9.098  67.929  1.00  0.00    -0.056 C  
BRANCH  28  29
HETATM   29  O   UNL     1      -6.058  10.469  68.042  1.00  0.00    -0.047 OA 
HETATM   30  C   UNL     1      -5.726  11.037  66.785  1.00  0.00    -0.089 C  
ENDBRANCH  28  29
ENDBRANCH  27  28
ENDBRANCH  26  27
ENDBRANCH  13  26
ENDBRANCH   5   6
ENDBRANCH   4   5
ENDBRANCH   3   4
ENDBRANCH   2   3
TORSDOF 11
ENDMDL
MODEL      211
REMARK 921   NORMALIZED FREE ENERGY PREDICTED BY IDOCK:   -3.63 KCAL/MOL
REMARK 922        TOTAL FREE ENERGY PREDICTED BY IDOCK:   -7.09 KCAL/MOL
REMARK 923 INTER-LIGAND FREE ENERGY PREDICTED BY IDOCK:   -5.90 KCAL/MOL
REMARK 924 INTRA-LIGAND FREE ENERGY PREDICTED BY IDOCK:   -1.19 KCAL/MOL
REMARK 927      BINDING AFFINITY PREDICTED BY RF-SCORE:    0.00 PKD
ROOT
HETATM    1  C   UNL     1     -10.516   4.556  65.672  1.00  0.00    -0.229 C  
HETATM    2  O   UNL     1      -9.871   4.451  66.936  1.00  0.00    -0.202 OA 
ENDROOT
BRANCH   2   3
HETATM    3  C   UNL     1      -8.713   3.626  66.853  1.00  0.00    -0.117 C  
BRANCH   3   4
HETATM    4  C   UNL     1      -7.678   4.262  65.928  1.00  0.00    -0.090 C  
BRANCH   4   5
HETATM    5  O   UNL     1      -7.238   5.458  66.562  1.00  0.00    -0.074 OA 
BRANCH   5   6
HETATM    6  C   UNL     1      -7.585   6.676  66.062  1.00  0.00    -0.086 A  
HETATM    7  C   UNL     1      -7.720   6.922  64.690  1.00  0.00    -0.116 A  
HETATM    8  C   UNL     1      -8.054   8.170  64.188  1.00  0.00    -0.128 A  
HETATM    9  C   UNL     1      -8.307   9.225  65.074  1.00  0.00    -0.160 A  
HETATM   10  C   UNL     1      -8.200   8.973  66.470  1.00  0.00    -0.114 A  
HETATM   11  C   UNL     1      -8.655  10.454  64.467  1.00  0.00    -0.180 A  
HETATM   12  N   UNL     1      -8.697  10.586  63.128  1.00  0.00    -0.185 NA 
HETATM   13  C   UNL     1      -7.824   7.719  66.968  1.00  0.00    -0.112 A  
HETATM   14  N   UNL     1      -8.120   8.297  62.863  1.00  0.00    -0.167 NA 
HETATM   15  C   UNL     1      -8.431   9.505  62.393  1.00  0.00    -0.181 A  
BRANCH  11  16
HETATM   16  N   UNL     1      -9.032  11.555  65.279  1.00  0.00    -0.402 NA 
HETATM   17  H   UNL     1      -8.406  11.751  66.060  1.00  0.00     0.000 HD 
BRANCH  16  18
HETATM   18  C   UNL     1     -10.145  12.424  65.172  1.00  0.00    -0.256 A  
HETATM   19  C   UNL     1      -9.956  13.806  65.350  1.00  0.00    -0.254 A  
HETATM   20  C   UNL     1     -12.342  14.203  65.228  1.00  0.00    -0.469 A  
HETATM   21  C   UNL     1     -11.045  14.689  65.381  1.00  0.00    -0.349 A  
HETATM   22  C   UNL     1     -11.462  11.963  65.032  1.00  0.00    -0.306 A  
HETATM   23  C   UNL     1     -12.550  12.840  65.045  1.00  0.00    -0.538 A  
BRANCH  21  24
HETATM   24  C   UNL     1     -10.846  16.089  65.606  1.00  0.00    -0.273 C  
HETATM   25  C   UNL     1     -10.661  17.267  65.742  1.00  0.00    -0.198 C  
ENDBRANCH  21  24
ENDBRANCH  16  18
ENDBRANCH  11  16
BRANCH  13  26
HETATM   26  O   UNL     1      -7.736   7.696  68.342  1.00  0.00    -0.114 OA 
BRANCH  26  27
HETATM   27  C   UNL     1      -8.915   8.001  69.086  1.00  0.00    -0.145 C  
BRANCH  27  28
HETATM   28  C   UNL     1      -8.750   9.301  69.866  1.00  0.00    -0.180 C  
BRANCH  28  29
HETATM   29  O   UNL     1      -9.953  10.059  69.711  1.00  0.00    -0.225 OA 
HETATM   30  C   UNL     1      -9.723  11.301  69.066  1.00  0.00    -0.054 C  
ENDBRANCH  28  29
ENDBRANCH  27  28
ENDBRANCH  26  27
ENDBRANCH  13  26
ENDBRANCH   5   6
ENDBRANCH   4   5
ENDBRANCH   3   4
ENDBRANCH   2   3
TORSDOF 11
ENDMDL
MODEL      212
REMARK 921   NORMALIZED FREE ENERGY PREDICTED BY IDOCK:   -3.62 KCAL/MOL
REMARK 922        TOTAL FREE ENERGY PREDICTED BY IDOCK:   -7.08 KCAL/MOL
REMARK 923 INTER-LIGAND FREE ENERGY PREDICTED BY IDOCK:   -5.74 KCAL/MOL
REMARK 924 INTRA-LIGAND FREE ENERGY PREDICTED BY IDOCK:   -1.34 KCAL/MOL
REMARK 927      BINDING AFFINITY PREDICTED BY RF-SCORE:    0.00 PKD
ROOT
HETATM    1  C   UNL     1      -6.238   3.460  67.549  1.00  0.00    -0.032 C  
HETATM    2  O   UNL     1      -6.963   4.457  68.260  1.00  0.00    -0.053 OA 
ENDROOT
BRANCH   2   3
HETATM    3  C   UNL     1      -6.092   5.247  69.065  1.00  0.00    -0.025 C  
BRANCH   3   4
HETATM    4  C   UNL     1      -6.869   6.390  69.715  1.00  0.00    -0.061 C  
BRANCH   4   5
HETATM    5  O   UNL     1      -8.231   6.231  69.336  1.00  0.00    -0.111 OA 
BRANCH   5   6
HETATM    6  C   UNL     1      -9.070   7.303  69.302  1.00  0.00    -0.138 A  
HETATM    7  C   UNL     1      -9.702   7.807  70.445  1.00  0.00    -0.179 A  
HETATM    8  C   UNL     1     -10.572   8.886  70.399  1.00  0.00    -0.217 A  
HETATM    9  C   UNL     1     -10.808   9.530  69.177  1.00  0.00    -0.194 A  
HETATM   10  C   UNL     1     -10.146   9.040  68.018  1.00  0.00    -0.234 A  
HETATM   11  C   UNL     1     -11.697  10.628  69.235  1.00  0.00    -0.264 A  
HETATM   12  N   UNL     1     -12.292  10.988  70.389  1.00  0.00    -0.344 NA 
HETATM   13  C   UNL     1      -9.299   7.925  68.066  1.00  0.00    -0.145 A  
HETATM   14  N   UNL     1     -11.144   9.258  71.544  1.00  0.00    -0.354 NA 
HETATM   15  C   UNL     1     -11.986  10.289  71.483  1.00  0.00    -0.268 A  
BRANCH  11  16
HETATM   16  N   UNL     1     -11.919  11.412  68.073  1.00  0.00    -0.640 NA 
HETATM   17  H   UNL     1     -12.834  11.290  67.639  1.00  0.00     0.000 HD 
BRANCH  16  18
HETATM   18  C   UNL     1     -11.066  12.338  67.424  1.00  0.00    -0.282 A  
HETATM   19  C   UNL     1      -9.834  12.666  68.016  1.00  0.00    -0.218 A  
HETATM   20  C   UNL     1      -9.417  14.359  66.336  1.00  0.00    -0.309 A  
HETATM   21  C   UNL     1      -9.017  13.671  67.479  1.00  0.00    -0.209 A  
HETATM   22  C   UNL     1     -11.448  13.055  66.282  1.00  0.00    -0.379 A  
HETATM   23  C   UNL     1     -10.630  14.046  65.732  1.00  0.00    -0.303 A  
BRANCH  21  24
HETATM   24  C   UNL     1      -7.784  14.029  68.114  1.00  0.00    -0.143 C  
HETATM   25  C   UNL     1      -6.771  14.308  68.695  1.00  0.00    -0.092 C  
ENDBRANCH  21  24
ENDBRANCH  16  18
ENDBRANCH  11  16
BRANCH  13  26
HETATM   26  O   UNL     1      -8.794   7.586  66.831  1.00  0.00    -0.127 OA 
BRANCH  26  27
HETATM   27  C   UNL     1      -8.803   8.587  65.814  1.00  0.00    -0.190 C  
BRANCH  27  28
HETATM   28  C   UNL     1      -7.386   8.915  65.355  1.00  0.00    -0.085 C  
BRANCH  28  29
HETATM   29  O   UNL     1      -6.599   9.178  66.521  1.00  0.00    -0.066 OA 
HETATM   30  C   UNL     1      -6.559  10.560  66.839  1.00  0.00    -0.081 C  
ENDBRANCH  28  29
ENDBRANCH  27  28
ENDBRANCH  26  27
ENDBRANCH  13  26
ENDBRANCH   5   6
ENDBRANCH   4   5
ENDBRANCH   3   4
ENDBRANCH   2   3
TORSDOF 11
ENDMDL
MODEL      213
REMARK 921   NORMALIZED FREE ENERGY PREDICTED BY IDOCK:   -3.61 KCAL/MOL
REMARK 922        TOTAL FREE ENERGY PREDICTED BY IDOCK:   -7.07 KCAL/MOL
REMARK 923 INTER-LIGAND FREE ENERGY PREDICTED BY IDOCK:   -6.62 KCAL/MOL
REMARK 924 INTRA-LIGAND FREE ENERGY PREDICTED BY IDOCK:   -0.45 KCAL/MOL
REMARK 927      BINDING AFFINITY PREDICTED BY RF-SCORE:    0.00 PKD
ROOT
HETATM    1  C   UNL     1      -8.199  16.471  68.749  1.00  0.00    -0.248 C  
HETATM    2  O   UNL     1      -9.604  16.321  68.577  1.00  0.00    -0.209 OA 
ENDROOT
BRANCH   2   3
HETATM    3  C   UNL     1     -10.016  14.989  68.868  1.00  0.00    -0.236 C  
BRANCH   3   4
HETATM    4  C   UNL     1     -11.286  15.003  69.714  1.00  0.00    -0.283 C  
BRANCH   4   5
HETATM    5  O   UNL     1     -12.155  14.015  69.171  1.00  0.00    -0.346 OA 
BRANCH   5   6
HETATM    6  C   UNL     1     -11.746  13.220  68.144  1.00  0.00    -0.362 A  
HETATM    7  C   UNL     1     -11.752  13.644  66.810  1.00  0.00    -0.426 A  
HETATM    8  C   UNL     1     -11.353  12.821  65.767  1.00  0.00    -0.320 A  
HETATM    9  C   UNL     1     -10.889  11.529  66.046  1.00  0.00    -0.330 A  
HETATM   10  C   UNL     1     -10.854  11.104  67.403  1.00  0.00    -0.317 A  
HETATM   11  C   UNL     1     -10.491  10.774  64.919  1.00  0.00    -0.254 A  
HETATM   12  N   UNL     1     -10.596  11.269  63.672  1.00  0.00    -0.384 NA 
HETATM   13  C   UNL     1     -11.295  11.928  68.447  1.00  0.00    -0.276 A  
HETATM   14  N   UNL     1     -11.434  13.319  64.533  1.00  0.00    -0.350 NA 
HETATM   15  C   UNL     1     -11.058  12.513  63.539  1.00  0.00    -0.439 A  
BRANCH  11  16
HETATM   16  N   UNL     1      -9.908   9.493  65.105  1.00  0.00    -0.437 NA 
HETATM   17  H   UNL     1     -10.570   8.719  65.143  1.00  0.00     0.000 HD 
BRANCH  16  18
HETATM   18  C   UNL     1      -8.547   9.126  65.243  1.00  0.00    -0.167 A  
HETATM   19  C   UNL     1      -8.002   8.171  64.367  1.00  0.00    -0.145 A  
HETATM   20  C   UNL     1      -5.920   8.146  65.605  1.00  0.00    -0.041 A  
HETATM   21  C   UNL     1      -6.700   7.682  64.547  1.00  0.00    -0.048 A  
HETATM   22  C   UNL     1      -7.743   9.565  66.304  1.00  0.00    -0.101 A  
HETATM   23  C   UNL     1      -6.439   9.094  66.479  1.00  0.00    -0.067 A  
BRANCH  21  24
HETATM   24  C   UNL     1      -6.168   6.677  63.676  1.00  0.00    -0.038 C  
HETATM   25  C   UNL     1      -5.732   5.870  62.902  1.00  0.00    -0.018 C  
ENDBRANCH  21  24
ENDBRANCH  16  18
ENDBRANCH  11  16
BRANCH  13  26
HETATM   26  O   UNL     1     -11.220  11.314  69.678  1.00  0.00    -0.257 OA 
BRANCH  26  27
HETATM   27  C   UNL     1     -11.985  10.125  69.872  1.00  0.00    -0.086 C  
BRANCH  27  28
HETATM   28  C   UNL     1     -11.095   8.968  70.315  1.00  0.00    -0.235 C  
BRANCH  28  29
HETATM   29  O   UNL     1      -9.760   9.255  69.889  1.00  0.00    -0.178 OA 
HETATM   30  C   UNL     1      -8.866   9.385  70.982  1.00  0.00    -0.023 C  
ENDBRANCH  28  29
ENDBRANCH  27  28
ENDBRANCH  26  27
ENDBRANCH  13  26
ENDBRANCH   5   6
ENDBRANCH   4   5
ENDBRANCH   3   4
ENDBRANCH   2   3
TORSDOF 11
ENDMDL
MODEL      214
REMARK 921   NORMALIZED FREE ENERGY PREDICTED BY IDOCK:   -3.54 KCAL/MOL
REMARK 922        TOTAL FREE ENERGY PREDICTED BY IDOCK:   -6.94 KCAL/MOL
REMARK 923 INTER-LIGAND FREE ENERGY PREDICTED BY IDOCK:   -6.17 KCAL/MOL
REMARK 924 INTRA-LIGAND FREE ENERGY PREDICTED BY IDOCK:   -0.77 KCAL/MOL
REMARK 927      BINDING AFFINITY PREDICTED BY RF-SCORE:    0.00 PKD
ROOT
HETATM    1  C   UNL     1      -7.334   3.826  71.097  1.00  0.00    -0.033 C  
HETATM    2  O   UNL     1      -6.402   4.019  70.039  1.00  0.00    -0.026 OA 
ENDROOT
BRANCH   2   3
HETATM    3  C   UNL     1      -5.736   5.272  70.166  1.00  0.00    -0.016 C  
BRANCH   3   4
HETATM    4  C   UNL     1      -6.120   6.192  69.011  1.00  0.00    -0.029 C  
BRANCH   4   5
HETATM    5  O   UNL     1      -6.315   7.489  69.563  1.00  0.00    -0.031 OA 
BRANCH   5   6
HETATM    6  C   UNL     1      -7.560   8.038  69.622  1.00  0.00    -0.096 A  
HETATM    7  C   UNL     1      -8.330   8.045  70.791  1.00  0.00    -0.115 A  
HETATM    8  C   UNL     1      -9.605   8.588  70.839  1.00  0.00    -0.185 A  
HETATM    9  C   UNL     1     -10.142   9.189  69.692  1.00  0.00    -0.206 A  
HETATM   10  C   UNL     1      -9.352   9.211  68.511  1.00  0.00    -0.137 A  
HETATM   11  C   UNL     1     -11.440   9.728  69.845  1.00  0.00    -0.140 A  
HETATM   12  N   UNL     1     -12.110   9.623  71.008  1.00  0.00    -0.320 NA 
HETATM   13  C   UNL     1      -8.079   8.626  68.461  1.00  0.00    -0.117 A  
HETATM   14  N   UNL     1     -10.260   8.507  71.997  1.00  0.00    -0.293 NA 
HETATM   15  C   UNL     1     -11.489   9.022  72.024  1.00  0.00    -0.338 A  
BRANCH  11  16
HETATM   16  N   UNL     1     -12.029  10.450  68.774  1.00  0.00    -0.715 NA 
HETATM   17  H   UNL     1     -12.655   9.908  68.180  1.00  0.00     0.000 HD 
BRANCH  16  18
HETATM   18  C   UNL     1     -11.880  11.809  68.405  1.00  0.00    -0.282 A  
HETATM   19  C   UNL     1     -11.873  12.795  69.408  1.00  0.00    -0.359 A  
HETATM   20  C   UNL     1     -11.845  14.559  67.748  1.00  0.00    -0.390 A  
HETATM   21  C   UNL     1     -11.859  14.159  69.083  1.00  0.00    -0.380 A  
HETATM   22  C   UNL     1     -11.878  12.242  67.072  1.00  0.00    -0.329 A  
HETATM   23  C   UNL     1     -11.847  13.599  66.742  1.00  0.00    -0.452 A  
BRANCH  21  24
HETATM   24  C   UNL     1     -11.895  15.156  70.110  1.00  0.00    -0.351 C  
HETATM   25  C   UNL     1     -11.871  15.983  70.981  1.00  0.00    -0.435 C  
ENDBRANCH  21  24
ENDBRANCH  16  18
ENDBRANCH  11  16
BRANCH  13  26
HETATM   26  O   UNL     1      -7.500   8.715  67.214  1.00  0.00    -0.087 OA 
BRANCH  26  27
HETATM   27  C   UNL     1      -7.449   7.530  66.421  1.00  0.00    -0.084 C  
BRANCH  27  28
HETATM   28  C   UNL     1      -8.553   7.528  65.368  1.00  0.00    -0.049 C  
BRANCH  28  29
HETATM   29  O   UNL     1      -7.935   7.367  64.088  1.00  0.00    -0.132 OA 
HETATM   30  C   UNL     1      -6.823   6.488  64.137  1.00  0.00    -0.045 C  
ENDBRANCH  28  29
ENDBRANCH  27  28
ENDBRANCH  26  27
ENDBRANCH  13  26
ENDBRANCH   5   6
ENDBRANCH   4   5
ENDBRANCH   3   4
ENDBRANCH   2   3
TORSDOF 11
ENDMDL
MODEL      215
REMARK 921   NORMALIZED FREE ENERGY PREDICTED BY IDOCK:   -3.53 KCAL/MOL
REMARK 922        TOTAL FREE ENERGY PREDICTED BY IDOCK:   -6.94 KCAL/MOL
REMARK 923 INTER-LIGAND FREE ENERGY PREDICTED BY IDOCK:   -5.85 KCAL/MOL
REMARK 924 INTRA-LIGAND FREE ENERGY PREDICTED BY IDOCK:   -1.09 KCAL/MOL
REMARK 927      BINDING AFFINITY PREDICTED BY RF-SCORE:    0.00 PKD
ROOT
HETATM    1  C   UNL     1      -9.002   7.105  69.843  1.00  0.00    -0.142 C  
HETATM    2  O   UNL     1      -8.825   6.269  68.705  1.00  0.00    -0.120 OA 
ENDROOT
BRANCH   2   3
HETATM    3  C   UNL     1      -8.857   7.029  67.501  1.00  0.00    -0.119 C  
BRANCH   3   4
HETATM    4  C   UNL     1     -10.087   7.932  67.481  1.00  0.00    -0.213 C  
BRANCH   4   5
HETATM    5  O   UNL     1     -10.037   8.672  66.266  1.00  0.00    -0.277 OA 
BRANCH   5   6
HETATM    6  C   UNL     1     -10.081  10.033  66.281  1.00  0.00    -0.243 A  
HETATM    7  C   UNL     1     -11.096  10.751  66.925  1.00  0.00    -0.204 A  
HETATM    8  C   UNL     1     -11.146  12.137  66.918  1.00  0.00    -0.297 A  
HETATM    9  C   UNL     1     -10.130  12.860  66.279  1.00  0.00    -0.281 A  
HETATM   10  C   UNL     1      -9.081  12.136  65.649  1.00  0.00     0.132 A  
HETATM   11  C   UNL     1     -10.260  14.267  66.341  1.00  0.00    -0.291 A  
HETATM   12  N   UNL     1     -11.316  14.847  66.943  1.00  0.00    -0.349 NA 
HETATM   13  C   UNL     1      -9.059  10.735  65.627  1.00  0.00    -0.194 A  
HETATM   14  N   UNL     1     -12.178  12.713  67.534  1.00  0.00    -0.340 NA 
HETATM   15  C   UNL     1     -12.219  14.045  67.510  1.00  0.00    -0.223 A  
BRANCH  11  16
HETATM   16  N   UNL     1      -9.229  15.090  65.817  1.00  0.00    -0.468 NA 
HETATM   17  H   UNL     1      -8.933  14.860  64.868  1.00  0.00     0.000 HD 
BRANCH  16  18
HETATM   18  C   UNL     1      -8.548  16.181  66.409  1.00  0.00    -0.330 A  
HETATM   19  C   UNL     1      -7.627  15.935  67.443  1.00  0.00    -0.208 A  
HETATM   20  C   UNL     1      -7.335  18.309  67.821  1.00  0.00    -0.218 A  
HETATM   21  C   UNL     1      -7.027  16.990  68.146  1.00  0.00    -0.173 A  
HETATM   22  C   UNL     1      -8.847  17.518  66.113  1.00  0.00    -0.160 A  
HETATM   23  C   UNL     1      -8.240  18.574  66.798  1.00  0.00    -0.268 A  
BRANCH  21  24
HETATM   24  C   UNL     1      -6.124  16.729  69.226  1.00  0.00    -0.189 C  
HETATM   25  C   UNL     1      -5.331  16.549  70.109  1.00  0.00    -0.194 C  
ENDBRANCH  21  24
ENDBRANCH  16  18
ENDBRANCH  11  16
BRANCH  13  26
HETATM   26  O   UNL     1      -7.985  10.230  64.929  1.00  0.00    -0.151 OA 
BRANCH  26  27
HETATM   27  C   UNL     1      -6.878   9.736  65.683  1.00  0.00    -0.096 C  
BRANCH  27  28
HETATM   28  C   UNL     1      -6.217  10.854  66.481  1.00  0.00    -0.122 C  
BRANCH  28  29
HETATM   29  O   UNL     1      -5.898  10.337  67.777  1.00  0.00    -0.045 OA 
HETATM   30  C   UNL     1      -7.060  10.008  68.522  1.00  0.00    -0.071 C  
ENDBRANCH  28  29
ENDBRANCH  27  28
ENDBRANCH  26  27
ENDBRANCH  13  26
ENDBRANCH   5   6
ENDBRANCH   4   5
ENDBRANCH   3   4
ENDBRANCH   2   3
TORSDOF 11
ENDMDL
MODEL      216
REMARK 921   NORMALIZED FREE ENERGY PREDICTED BY IDOCK:   -3.53 KCAL/MOL
REMARK 922        TOTAL FREE ENERGY PREDICTED BY IDOCK:   -6.93 KCAL/MOL
REMARK 923 INTER-LIGAND FREE ENERGY PREDICTED BY IDOCK:   -6.29 KCAL/MOL
REMARK 924 INTRA-LIGAND FREE ENERGY PREDICTED BY IDOCK:   -0.64 KCAL/MOL
REMARK 927      BINDING AFFINITY PREDICTED BY RF-SCORE:    0.00 PKD
ROOT
HETATM    1  C   UNL     1     -10.477  16.546  69.717  1.00  0.00    -0.215 C  
HETATM    2  O   UNL     1     -11.081  16.080  68.516  1.00  0.00    -0.310 OA 
ENDROOT
BRANCH   2   3
HETATM    3  C   UNL     1     -11.785  14.861  68.736  1.00  0.00    -0.325 C  
BRANCH   3   4
HETATM    4  C   UNL     1     -10.812  13.684  68.738  1.00  0.00    -0.255 C  
BRANCH   4   5
HETATM    5  O   UNL     1     -10.870  13.098  67.442  1.00  0.00    -0.250 OA 
BRANCH   5   6
HETATM    6  C   UNL     1     -10.492  11.805  67.248  1.00  0.00    -0.214 A  
HETATM    7  C   UNL     1      -9.495  11.436  66.337  1.00  0.00    -0.224 A  
HETATM    8  C   UNL     1      -9.130  10.114  66.130  1.00  0.00    -0.155 A  
HETATM    9  C   UNL     1      -9.745   9.103  66.880  1.00  0.00    -0.254 A  
HETATM   10  C   UNL     1     -10.738   9.475  67.827  1.00  0.00    -0.302 A  
HETATM   11  C   UNL     1      -9.294   7.791  66.608  1.00  0.00    -0.188 A  
HETATM   12  N   UNL     1      -8.365   7.551  65.664  1.00  0.00    -0.136 NA 
HETATM   13  C   UNL     1     -11.129  10.810  68.003  1.00  0.00    -0.299 A  
HETATM   14  N   UNL     1      -8.193   9.877  65.212  1.00  0.00    -0.138 NA 
HETATM   15  C   UNL     1      -7.860   8.601  65.015  1.00  0.00    -0.116 A  
BRANCH  11  16
HETATM   16  N   UNL     1      -9.779   6.708  67.387  1.00  0.00    -0.124 NA 
HETATM   17  H   UNL     1     -10.377   6.972  68.169  1.00  0.00     0.000 HD 
BRANCH  16  18
HETATM   18  C   UNL     1      -9.559   5.316  67.245  1.00  0.00    -0.137 A  
HETATM   19  C   UNL     1      -8.673   4.668  68.124  1.00  0.00    -0.113 A  
HETATM   20  C   UNL     1      -8.864   2.600  66.878  1.00  0.00    -0.148 A  
HETATM   21  C   UNL     1      -8.325   3.322  67.940  1.00  0.00    -0.096 A  
HETATM   22  C   UNL     1     -10.076   4.568  66.178  1.00  0.00    -0.282 A  
HETATM   23  C   UNL     1      -9.746   3.221  66.000  1.00  0.00     0.071 A  
BRANCH  21  24
HETATM   24  C   UNL     1      -7.388   2.683  68.815  1.00  0.00    -0.048 C  
HETATM   25  C   UNL     1      -6.561   2.171  69.519  1.00  0.00    -0.029 C  
ENDBRANCH  21  24
ENDBRANCH  16  18
ENDBRANCH  11  16
BRANCH  13  26
HETATM   26  O   UNL     1     -12.133  10.952  68.934  1.00  0.00    -0.463 OA 
BRANCH  26  27
HETATM   27  C   UNL     1     -11.844  10.581  70.281  1.00  0.00    -0.331 C  
BRANCH  27  28
HETATM   28  C   UNL     1     -13.126  10.422  71.092  1.00  0.00    -0.383 C  
BRANCH  28  29
HETATM   29  O   UNL     1     -13.072  11.349  72.181  1.00  0.00    -0.462 OA 
HETATM   30  C   UNL     1     -13.119  12.696  71.740  1.00  0.00    -0.360 C  
ENDBRANCH  28  29
ENDBRANCH  27  28
ENDBRANCH  26  27
ENDBRANCH  13  26
ENDBRANCH   5   6
ENDBRANCH   4   5
ENDBRANCH   3   4
ENDBRANCH   2   3
TORSDOF 11
ENDMDL
MODEL      217
REMARK 921   NORMALIZED FREE ENERGY PREDICTED BY IDOCK:   -3.51 KCAL/MOL
REMARK 922        TOTAL FREE ENERGY PREDICTED BY IDOCK:   -6.91 KCAL/MOL
REMARK 923 INTER-LIGAND FREE ENERGY PREDICTED BY IDOCK:   -6.36 KCAL/MOL
REMARK 924 INTRA-LIGAND FREE ENERGY PREDICTED BY IDOCK:   -0.56 KCAL/MOL
REMARK 927      BINDING AFFINITY PREDICTED BY RF-SCORE:    0.00 PKD
ROOT
HETATM    1  C   UNL     1      -9.269   5.545  74.456  1.00  0.00    -0.126 C  
HETATM    2  O   UNL     1      -8.908   6.027  73.167  1.00  0.00    -0.129 OA 
ENDROOT
BRANCH   2   3
HETATM    3  C   UNL     1      -8.444   4.967  72.335  1.00  0.00    -0.121 C  
BRANCH   3   4
HETATM    4  C   UNL     1      -9.576   4.465  71.442  1.00  0.00    -0.165 C  
BRANCH   4   5
HETATM    5  O   UNL     1      -9.450   5.142  70.196  1.00  0.00    -0.148 OA 
BRANCH   5   6
HETATM    6  C   UNL     1      -9.809   6.450  70.078  1.00  0.00    -0.168 A  
HETATM    7  C   UNL     1     -10.900   7.001  70.761  1.00  0.00    -0.272 A  
HETATM    8  C   UNL     1     -11.272   8.329  70.619  1.00  0.00    -0.256 A  
HETATM    9  C   UNL     1     -10.515   9.173  69.796  1.00  0.00    -0.234 A  
HETATM   10  C   UNL     1      -9.389   8.626  69.123  1.00  0.00    -0.153 A  
HETATM   11  C   UNL     1     -10.964  10.512  69.729  1.00  0.00    -0.294 A  
HETATM   12  N   UNL     1     -12.066  10.916  70.389  1.00  0.00    -0.332 NA 
HETATM   13  C   UNL     1      -9.043   7.273  69.241  1.00  0.00    -0.138 A  
HETATM   14  N   UNL     1     -12.349   8.736  71.290  1.00  0.00    -0.291 NA 
HETATM   15  C   UNL     1     -12.702  10.012  71.136  1.00  0.00    -0.387 A  
BRANCH  11  16
HETATM   16  N   UNL     1     -10.205  11.470  69.006  1.00  0.00    -0.384 NA 
HETATM   17  H   UNL     1      -9.246  11.195  68.801  1.00  0.00     0.000 HD 
BRANCH  16  18
HETATM   18  C   UNL     1     -10.578  12.750  68.527  1.00  0.00    -0.252 A  
HETATM   19  C   UNL     1     -11.184  12.858  67.263  1.00  0.00    -0.329 A  
HETATM   20  C   UNL     1     -11.122  15.276  67.381  1.00  0.00    -0.326 A  
HETATM   21  C   UNL     1     -11.451  14.111  66.692  1.00  0.00    -0.378 A  
HETATM   22  C   UNL     1     -10.247  13.939  69.191  1.00  0.00     0.019 A  
HETATM   23  C   UNL     1     -10.526  15.191  68.635  1.00  0.00    -0.234 A  
BRANCH  21  24
HETATM   24  C   UNL     1     -12.029  14.212  65.386  1.00  0.00    -0.382 C  
HETATM   25  C   UNL     1     -12.464  14.279  64.269  1.00  0.00    -0.304 C  
ENDBRANCH  21  24
ENDBRANCH  16  18
ENDBRANCH  11  16
BRANCH  13  26
HETATM   26  O   UNL     1      -7.949   6.934  68.476  1.00  0.00    -0.116 OA 
BRANCH  26  27
HETATM   27  C   UNL     1      -8.119   5.915  67.491  1.00  0.00    -0.102 C  
BRANCH  27  28
HETATM   28  C   UNL     1      -7.487   6.324  66.165  1.00  0.00    -0.085 C  
BRANCH  28  29
HETATM   29  O   UNL     1      -8.483   6.189  65.147  1.00  0.00    -0.149 OA 
HETATM   30  C   UNL     1      -7.933   5.746  63.916  1.00  0.00    -0.121 C  
ENDBRANCH  28  29
ENDBRANCH  27  28
ENDBRANCH  26  27
ENDBRANCH  13  26
ENDBRANCH   5   6
ENDBRANCH   4   5
ENDBRANCH   3   4
ENDBRANCH   2   3
TORSDOF 11
ENDMDL
MODEL      218
REMARK 921   NORMALIZED FREE ENERGY PREDICTED BY IDOCK:   -3.49 KCAL/MOL
REMARK 922        TOTAL FREE ENERGY PREDICTED BY IDOCK:   -6.87 KCAL/MOL
REMARK 923 INTER-LIGAND FREE ENERGY PREDICTED BY IDOCK:   -5.78 KCAL/MOL
REMARK 924 INTRA-LIGAND FREE ENERGY PREDICTED BY IDOCK:   -1.09 KCAL/MOL
REMARK 927      BINDING AFFINITY PREDICTED BY RF-SCORE:    0.00 PKD
ROOT
HETATM    1  C   UNL     1      -7.177   6.068  71.986  1.00  0.00    -0.092 C  
HETATM    2  O   UNL     1      -8.536   6.100  72.405  1.00  0.00    -0.120 OA 
ENDROOT
BRANCH   2   3
HETATM    3  C   UNL     1      -9.345   5.263  71.584  1.00  0.00    -0.147 C  
BRANCH   3   4
HETATM    4  C   UNL     1     -10.127   6.106  70.581  1.00  0.00    -0.193 C  
BRANCH   4   5
HETATM    5  O   UNL     1      -9.347   6.163  69.391  1.00  0.00    -0.138 OA 
BRANCH   5   6
HETATM    6  C   UNL     1      -9.206   7.332  68.709  1.00  0.00    -0.137 A  
HETATM    7  C   UNL     1      -8.556   8.449  69.247  1.00  0.00    -0.130 A  
HETATM    8  C   UNL     1      -8.434   9.644  68.554  1.00  0.00    -0.118 A  
HETATM    9  C   UNL     1      -8.941   9.741  67.251  1.00  0.00    -0.146 A  
HETATM   10  C   UNL     1      -9.575   8.599  66.689  1.00  0.00    -0.285 A  
HETATM   11  C   UNL     1      -8.754  10.993  66.622  1.00  0.00    -0.160 A  
HETATM   12  N   UNL     1      -8.161  12.018  67.264  1.00  0.00    -0.166 NA 
HETATM   13  C   UNL     1      -9.729   7.408  67.411  1.00  0.00    -0.153 A  
HETATM   14  N   UNL     1      -7.827  10.653  69.179  1.00  0.00    -0.136 NA 
HETATM   15  C   UNL     1      -7.727  11.798  68.505  1.00  0.00    -0.137 A  
BRANCH  11  16
HETATM   16  N   UNL     1      -9.136  11.159  65.265  1.00  0.00    -0.295 NA 
HETATM   17  H   UNL     1      -8.568  10.648  64.590  1.00  0.00     0.000 HD 
BRANCH  16  18
HETATM   18  C   UNL     1     -10.188  11.926  64.705  1.00  0.00    -0.276 A  
HETATM   19  C   UNL     1     -10.170  13.324  64.853  1.00  0.00    -0.313 A  
HETATM   20  C   UNL     1     -12.365  13.512  63.846  1.00  0.00    -0.397 A  
HETATM   21  C   UNL     1     -11.251  14.111  64.431  1.00  0.00    -0.290 A  
HETATM   22  C   UNL     1     -11.326  11.350  64.125  1.00  0.00    -0.263 A  
HETATM   23  C   UNL     1     -12.399  12.131  63.687  1.00  0.00    -0.673 A  
BRANCH  21  24
HETATM   24  C   UNL     1     -11.243  15.530  64.625  1.00  0.00    -0.381 C  
HETATM   25  C   UNL     1     -11.233  16.711  64.843  1.00  0.00    -0.065 C  
ENDBRANCH  21  24
ENDBRANCH  16  18
ENDBRANCH  11  16
BRANCH  13  26
HETATM   26  O   UNL     1     -10.409   6.441  66.704  1.00  0.00    -0.195 OA 
BRANCH  26  27
HETATM   27  C   UNL     1      -9.640   5.535  65.914  1.00  0.00    -0.063 C  
BRANCH  27  28
HETATM   28  C   UNL     1     -10.233   4.131  65.958  1.00  0.00    -0.074 C  
BRANCH  28  29
HETATM   29  O   UNL     1      -9.150   3.197  65.895  1.00  0.00    -0.143 OA 
HETATM   30  C   UNL     1      -8.415   3.147  67.107  1.00  0.00    -0.098 C  
ENDBRANCH  28  29
ENDBRANCH  27  28
ENDBRANCH  26  27
ENDBRANCH  13  26
ENDBRANCH   5   6
ENDBRANCH   4   5
ENDBRANCH   3   4
ENDBRANCH   2   3
TORSDOF 11
ENDMDL
MODEL      219
REMARK 921   NORMALIZED FREE ENERGY PREDICTED BY IDOCK:   -3.45 KCAL/MOL
REMARK 922        TOTAL FREE ENERGY PREDICTED BY IDOCK:   -6.81 KCAL/MOL
REMARK 923 INTER-LIGAND FREE ENERGY PREDICTED BY IDOCK:   -5.56 KCAL/MOL
REMARK 924 INTRA-LIGAND FREE ENERGY PREDICTED BY IDOCK:   -1.25 KCAL/MOL
REMARK 927      BINDING AFFINITY PREDICTED BY RF-SCORE:    0.00 PKD
ROOT
HETATM    1  C   UNL     1     -10.215   3.553  62.887  1.00  0.00    -0.173 C  
HETATM    2  O   UNL     1     -10.199   3.251  64.277  1.00  0.00    -0.172 OA 
ENDROOT
BRANCH   2   3
HETATM    3  C   UNL     1      -8.982   2.613  64.649  1.00  0.00    -0.124 C  
BRANCH   3   4
HETATM    4  C   UNL     1      -8.004   3.635  65.223  1.00  0.00    -0.090 C  
BRANCH   4   5
HETATM    5  O   UNL     1      -8.621   4.192  66.379  1.00  0.00    -0.111 OA 
BRANCH   5   6
HETATM    6  C   UNL     1      -8.664   5.541  66.560  1.00  0.00    -0.119 A  
HETATM    7  C   UNL     1      -8.726   6.447  65.495  1.00  0.00    -0.076 A  
HETATM    8  C   UNL     1      -8.749   7.820  65.686  1.00  0.00    -0.104 A  
HETATM    9  C   UNL     1      -8.749   8.334  66.990  1.00  0.00    -0.132 A  
HETATM   10  C   UNL     1      -8.715   7.417  68.076  1.00  0.00    -0.124 A  
HETATM   11  C   UNL     1      -8.790   9.745  67.082  1.00  0.00    -0.132 A  
HETATM   12  N   UNL     1      -8.790  10.519  65.981  1.00  0.00    -0.160 NA 
HETATM   13  C   UNL     1      -8.653   6.032  67.873  1.00  0.00    -0.113 A  
HETATM   14  N   UNL     1      -8.773   8.588  64.597  1.00  0.00    -0.061 NA 
HETATM   15  C   UNL     1      -8.783   9.906  64.796  1.00  0.00    -0.189 A  
BRANCH  11  16
HETATM   16  N   UNL     1      -8.899  10.360  68.357  1.00  0.00    -0.131 NA 
HETATM   17  H   UNL     1      -8.015  10.510  68.842  1.00  0.00     0.000 HD 
BRANCH  16  18
HETATM   18  C   UNL     1     -10.049  10.800  69.058  1.00  0.00    -0.211 A  
HETATM   19  C   UNL     1     -10.665   9.931  69.976  1.00  0.00    -0.338 A  
HETATM   20  C   UNL     1     -12.487  11.492  70.310  1.00  0.00    -0.284 A  
HETATM   21  C   UNL     1     -11.877  10.272  70.595  1.00  0.00    -0.439 A  
HETATM   22  C   UNL     1     -10.692  12.014  68.782  1.00  0.00    -0.252 A  
HETATM   23  C   UNL     1     -11.891  12.367  69.409  1.00  0.00    -0.365 A  
BRANCH  21  24
HETATM   24  C   UNL     1     -12.520   9.363  71.495  1.00  0.00    -0.450 C  
HETATM   25  C   UNL     1     -13.011   8.598  72.280  1.00  0.00    -0.430 C  
ENDBRANCH  21  24
ENDBRANCH  16  18
ENDBRANCH  11  16
BRANCH  13  26
HETATM   26  O   UNL     1      -8.583   5.324  69.051  1.00  0.00    -0.094 OA 
BRANCH  26  27
HETATM   27  C   UNL     1      -9.806   4.841  69.608  1.00  0.00    -0.221 C  
BRANCH  27  28
HETATM   28  C   UNL     1      -9.552   4.057  70.891  1.00  0.00    -0.183 C  
BRANCH  28  29
HETATM   29  O   UNL     1      -9.809   4.930  71.995  1.00  0.00    -0.163 OA 
HETATM   30  C   UNL     1      -9.190   4.479  73.189  1.00  0.00    -0.118 C  
ENDBRANCH  28  29
ENDBRANCH  27  28
ENDBRANCH  26  27
ENDBRANCH  13  26
ENDBRANCH   5   6
ENDBRANCH   4   5
ENDBRANCH   3   4
ENDBRANCH   2   3
TORSDOF 11
ENDMDL
MODEL      220
REMARK 921   NORMALIZED FREE ENERGY PREDICTED BY IDOCK:   -3.32 KCAL/MOL
REMARK 922        TOTAL FREE ENERGY PREDICTED BY IDOCK:   -6.59 KCAL/MOL
REMARK 923 INTER-LIGAND FREE ENERGY PREDICTED BY IDOCK:   -5.96 KCAL/MOL
REMARK 924 INTRA-LIGAND FREE ENERGY PREDICTED BY IDOCK:   -0.63 KCAL/MOL
REMARK 927      BINDING AFFINITY PREDICTED BY RF-SCORE:    0.00 PKD
ROOT
HETATM    1  C   UNL     1      -9.656  14.637  68.943  1.00  0.00    -0.184 C  
HETATM    2  O   UNL     1     -10.919  14.882  68.335  1.00  0.00    -0.245 OA 
ENDROOT
BRANCH   2   3
HETATM    3  C   UNL     1     -11.822  13.808  68.580  1.00  0.00    -0.374 C  
BRANCH   3   4
HETATM    4  C   UNL     1     -12.110  13.056  67.283  1.00  0.00    -0.245 C  
BRANCH   4   5
HETATM    5  O   UNL     1     -10.945  13.168  66.474  1.00  0.00    -0.281 OA 
BRANCH   5   6
HETATM    6  C   UNL     1     -10.328  12.056  65.987  1.00  0.00    -0.238 A  
HETATM    7  C   UNL     1     -10.160  11.821  64.617  1.00  0.00    -0.310 A  
HETATM    8  C   UNL     1      -9.549  10.676  64.129  1.00  0.00    -0.300 A  
HETATM    9  C   UNL     1      -9.043   9.728  65.027  1.00  0.00    -0.280 A  
HETATM   10  C   UNL     1      -9.185   9.975  66.420  1.00  0.00    -0.191 A  
HETATM   11  C   UNL     1      -8.424   8.604  64.433  1.00  0.00    -0.095 A  
HETATM   12  N   UNL     1      -8.371   8.458  63.095  1.00  0.00    -0.132 NA 
HETATM   13  C   UNL     1      -9.838  11.116  66.905  1.00  0.00    -0.194 A  
HETATM   14  N   UNL     1      -9.475  10.542  62.805  1.00  0.00    -0.316 NA 
HETATM   15  C   UNL     1      -8.896   9.431  62.349  1.00  0.00    -0.247 A  
BRANCH  11  16
HETATM   16  N   UNL     1      -7.787   7.638  65.256  1.00  0.00    -0.114 NA 
HETATM   17  H   UNL     1      -7.252   8.020  66.035  1.00  0.00     0.000 HD 
BRANCH  16  18
HETATM   18  C   UNL     1      -7.780   6.225  65.159  1.00  0.00    -0.099 A  
HETATM   19  C   UNL     1      -8.427   5.467  66.151  1.00  0.00    -0.122 A  
HETATM   20  C   UNL     1      -7.602   3.404  65.189  1.00  0.00    -0.080 A  
HETATM   21  C   UNL     1      -8.336   4.068  66.169  1.00  0.00    -0.108 A  
HETATM   22  C   UNL     1      -7.038   5.530  64.194  1.00  0.00    -0.049 A  
HETATM   23  C   UNL     1      -6.958   4.135  64.196  1.00  0.00    -0.046 A  
BRANCH  21  24
HETATM   24  C   UNL     1      -8.962   3.307  67.208  1.00  0.00    -0.180 C  
HETATM   25  C   UNL     1      -9.449   2.689  68.115  1.00  0.00    -0.217 C  
ENDBRANCH  21  24
ENDBRANCH  16  18
ENDBRANCH  11  16
BRANCH  13  26
HETATM   26  O   UNL     1      -9.909  11.145  68.280  1.00  0.00    -0.175 OA 
BRANCH  26  27
HETATM   27  C   UNL     1     -10.257   9.935  68.951  1.00  0.00    -0.196 C  
BRANCH  27  28
HETATM   28  C   UNL     1     -10.935  10.224  70.286  1.00  0.00    -0.309 C  
BRANCH  28  29
HETATM   29  O   UNL     1     -11.712   9.076  70.640  1.00  0.00    -0.272 OA 
HETATM   30  C   UNL     1     -12.015   9.042  72.025  1.00  0.00    -0.363 C  
ENDBRANCH  28  29
ENDBRANCH  27  28
ENDBRANCH  26  27
ENDBRANCH  13  26
ENDBRANCH   5   6
ENDBRANCH   4   5
ENDBRANCH   3   4
ENDBRANCH   2   3
TORSDOF 11
ENDMDL
MODEL      221
REMARK 921   NORMALIZED FREE ENERGY PREDICTED BY IDOCK:   -3.31 KCAL/MOL
REMARK 922        TOTAL FREE ENERGY PREDICTED BY IDOCK:   -6.57 KCAL/MOL
REMARK 923 INTER-LIGAND FREE ENERGY PREDICTED BY IDOCK:   -5.41 KCAL/MOL
REMARK 924 INTRA-LIGAND FREE ENERGY PREDICTED BY IDOCK:   -1.16 KCAL/MOL
REMARK 927      BINDING AFFINITY PREDICTED BY RF-SCORE:    0.00 PKD
ROOT
HETATM    1  C   UNL     1     -10.046   4.126  62.362  1.00  0.00    -0.149 C  
HETATM    2  O   UNL     1      -9.113   4.721  63.257  1.00  0.00    -0.123 OA 
ENDROOT
BRANCH   2   3
HETATM    3  C   UNL     1      -7.924   5.106  62.573  1.00  0.00    -0.080 C  
BRANCH   3   4
HETATM    4  C   UNL     1      -7.877   6.623  62.413  1.00  0.00    -0.103 C  
BRANCH   4   5
HETATM    5  O   UNL     1      -7.543   7.164  63.686  1.00  0.00    -0.096 OA 
BRANCH   5   6
HETATM    6  C   UNL     1      -8.154   8.291  64.143  1.00  0.00    -0.136 A  
HETATM    7  C   UNL     1      -8.863   9.161  63.307  1.00  0.00    -0.095 A  
HETATM    8  C   UNL     1      -9.465  10.318  63.776  1.00  0.00    -0.300 A  
HETATM    9  C   UNL     1      -9.403  10.622  65.143  1.00  0.00    -0.254 A  
HETATM   10  C   UNL     1      -8.710   9.726  66.002  1.00  0.00    -0.156 A  
HETATM   11  C   UNL     1     -10.061  11.814  65.527  1.00  0.00    -0.249 A  
HETATM   12  N   UNL     1     -10.664  12.604  64.619  1.00  0.00    -0.308 NA 
HETATM   13  C   UNL     1      -8.070   8.579  65.513  1.00  0.00    -0.126 A  
HETATM   14  N   UNL     1     -10.083  11.090  62.883  1.00  0.00    -0.239 NA 
HETATM   15  C   UNL     1     -10.648  12.205  63.346  1.00  0.00    -0.410 A  
BRANCH  11  16
HETATM   16  N   UNL     1     -10.146  12.155  66.902  1.00  0.00    -0.205 NA 
HETATM   17  H   UNL     1     -10.839  11.631  67.435  1.00  0.00     0.000 HD 
BRANCH  16  18
HETATM   18  C   UNL     1      -9.415  13.112  67.647  1.00  0.00    -0.207 A  
HETATM   19  C   UNL     1     -10.003  14.359  67.926  1.00  0.00    -0.228 A  
HETATM   20  C   UNL     1      -7.942  15.172  68.904  1.00  0.00    -0.178 A  
HETATM   21  C   UNL     1      -9.272  15.382  68.546  1.00  0.00    -0.198 A  
HETATM   22  C   UNL     1      -8.072  12.934  68.007  1.00  0.00    -0.159 A  
HETATM   23  C   UNL     1      -7.344  13.945  68.641  1.00  0.00    -0.117 A  
BRANCH  21  24
HETATM   24  C   UNL     1      -9.866  16.663  68.787  1.00  0.00    -0.252 C  
HETATM   25  C   UNL     1     -10.393  17.731  68.941  1.00  0.00    -0.300 C  
ENDBRANCH  21  24
ENDBRANCH  16  18
ENDBRANCH  11  16
BRANCH  13  26
HETATM   26  O   UNL     1      -7.419   7.871  66.498  1.00  0.00    -0.085 OA 
BRANCH  26  27
HETATM   27  C   UNL     1      -8.078   6.725  67.036  1.00  0.00    -0.109 C  
BRANCH  27  28
HETATM   28  C   UNL     1      -8.494   6.962  68.484  1.00  0.00    -0.123 C  
BRANCH  28  29
HETATM   29  O   UNL     1      -9.689   6.212  68.723  1.00  0.00    -0.126 OA 
HETATM   30  C   UNL     1     -10.726   6.555  67.818  1.00  0.00    -0.296 C  
ENDBRANCH  28  29
ENDBRANCH  27  28
ENDBRANCH  26  27
ENDBRANCH  13  26
ENDBRANCH   5   6
ENDBRANCH   4   5
ENDBRANCH   3   4
ENDBRANCH   2   3
TORSDOF 11
ENDMDL
MODEL      222
REMARK 921   NORMALIZED FREE ENERGY PREDICTED BY IDOCK:   -3.30 KCAL/MOL
REMARK 922        TOTAL FREE ENERGY PREDICTED BY IDOCK:   -6.56 KCAL/MOL
REMARK 923 INTER-LIGAND FREE ENERGY PREDICTED BY IDOCK:   -5.51 KCAL/MOL
REMARK 924 INTRA-LIGAND FREE ENERGY PREDICTED BY IDOCK:   -1.05 KCAL/MOL
REMARK 927      BINDING AFFINITY PREDICTED BY RF-SCORE:    0.00 PKD
ROOT
HETATM    1  C   UNL     1      -7.202   9.998  64.805  1.00  0.00    -0.136 C  
HETATM    2  O   UNL     1      -6.199  10.736  65.495  1.00  0.00    -0.117 OA 
ENDROOT
BRANCH   2   3
HETATM    3  C   UNL     1      -6.779  11.601  66.467  1.00  0.00     0.039 C  
BRANCH   3   4
HETATM    4  C   UNL     1      -5.954  11.579  67.751  1.00  0.00    -0.049 C  
BRANCH   4   5
HETATM    5  O   UNL     1      -6.789  11.040  68.770  1.00  0.00    -0.062 OA 
BRANCH   5   6
HETATM    6  C   UNL     1      -7.192   9.741  68.722  1.00  0.00    -0.072 A  
HETATM    7  C   UNL     1      -6.319   8.687  68.427  1.00  0.00    -0.055 A  
HETATM    8  C   UNL     1      -6.741   7.368  68.359  1.00  0.00    -0.054 A  
HETATM    9  C   UNL     1      -8.080   7.058  68.631  1.00  0.00    -0.121 A  
HETATM   10  C   UNL     1      -8.965   8.121  68.960  1.00  0.00    -0.144 A  
HETATM   11  C   UNL     1      -8.410   5.685  68.552  1.00  0.00    -0.106 A  
HETATM   12  N   UNL     1      -7.493   4.764  68.201  1.00  0.00    -0.073 NA 
HETATM   13  C   UNL     1      -8.539   9.456  68.988  1.00  0.00    -0.135 A  
HETATM   14  N   UNL     1      -5.829   6.452  68.035  1.00  0.00    -0.012 NA 
HETATM   15  C   UNL     1      -6.252   5.189  67.962  1.00  0.00    -0.035 A  
BRANCH  11  16
HETATM   16  N   UNL     1      -9.714   5.256  68.913  1.00  0.00    -0.137 NA 
HETATM   17  H   UNL     1     -10.236   4.791  68.171  1.00  0.00     0.000 HD 
BRANCH  16  18
HETATM   18  C   UNL     1     -10.401   5.374  70.145  1.00  0.00    -0.290 A  
HETATM   19  C   UNL     1     -11.440   6.315  70.264  1.00  0.00    -0.428 A  
HETATM   20  C   UNL     1     -11.655   5.859  72.632  1.00  0.00    -0.289 A  
HETATM   21  C   UNL     1     -12.060   6.558  71.498  1.00  0.00    -0.363 A  
HETATM   22  C   UNL     1     -10.007   4.695  71.306  1.00  0.00    -0.268 A  
HETATM   23  C   UNL     1     -10.633   4.921  72.535  1.00  0.00    -0.271 A  
BRANCH  21  24
HETATM   24  C   UNL     1     -13.087   7.549  71.618  1.00  0.00    -0.401 C  
HETATM   25  C   UNL     1     -13.908   8.419  71.723  1.00  0.00    -0.458 C  
ENDBRANCH  21  24
ENDBRANCH  16  18
ENDBRANCH  11  16
BRANCH  13  26
HETATM   26  O   UNL     1      -9.557  10.334  69.284  1.00  0.00    -0.205 OA 
BRANCH  26  27
HETATM   27  C   UNL     1     -10.395  10.763  68.211  1.00  0.00    -0.173 C  
BRANCH  27  28
HETATM   28  C   UNL     1     -10.732  12.245  68.338  1.00  0.00    -0.234 C  
BRANCH  28  29
HETATM   29  O   UNL     1     -11.988  12.464  67.689  1.00  0.00    -0.454 OA 
HETATM   30  C   UNL     1     -11.983  13.642  66.898  1.00  0.00    -0.410 C  
ENDBRANCH  28  29
ENDBRANCH  27  28
ENDBRANCH  26  27
ENDBRANCH  13  26
ENDBRANCH   5   6
ENDBRANCH   4   5
ENDBRANCH   3   4
ENDBRANCH   2   3
TORSDOF 11
ENDMDL
MODEL      223
REMARK 921   NORMALIZED FREE ENERGY PREDICTED BY IDOCK:   -3.29 KCAL/MOL
REMARK 922        TOTAL FREE ENERGY PREDICTED BY IDOCK:   -6.55 KCAL/MOL
REMARK 923 INTER-LIGAND FREE ENERGY PREDICTED BY IDOCK:   -5.57 KCAL/MOL
REMARK 924 INTRA-LIGAND FREE ENERGY PREDICTED BY IDOCK:   -0.98 KCAL/MOL
REMARK 927      BINDING AFFINITY PREDICTED BY RF-SCORE:    0.00 PKD
ROOT
HETATM    1  C   UNL     1     -11.872  12.940  64.076  1.00  0.00    -0.443 C  
HETATM    2  O   UNL     1     -11.026  12.542  63.003  1.00  0.00    -0.202 OA 
ENDROOT
BRANCH   2   3
HETATM    3  C   UNL     1      -9.830  11.940  63.490  1.00  0.00    -0.336 C  
BRANCH   3   4
HETATM    4  C   UNL     1      -9.954  10.419  63.454  1.00  0.00    -0.078 C  
BRANCH   4   5
HETATM    5  O   UNL     1      -9.008   9.905  64.385  1.00  0.00    -0.203 OA 
BRANCH   5   6
HETATM    6  C   UNL     1      -9.238   9.987  65.724  1.00  0.00    -0.176 A  
HETATM    7  C   UNL     1     -10.464  10.399  66.259  1.00  0.00    -0.229 A  
HETATM    8  C   UNL     1     -10.685  10.500  67.624  1.00  0.00    -0.275 A  
HETATM    9  C   UNL     1      -9.664  10.142  68.515  1.00  0.00    -0.161 A  
HETATM   10  C   UNL     1      -8.426   9.694  67.978  1.00  0.00    -0.118 A  
HETATM   11  C   UNL     1      -9.990  10.263  69.886  1.00  0.00    -0.135 A  
HETATM   12  N   UNL     1     -11.190  10.728  70.282  1.00  0.00    -0.285 NA 
HETATM   13  C   UNL     1      -8.199   9.633  66.596  1.00  0.00    -0.120 A  
HETATM   14  N   UNL     1     -11.880  10.937  68.018  1.00  0.00    -0.579 NA 
HETATM   15  C   UNL     1     -12.074  11.040  69.333  1.00  0.00    -0.318 A  
BRANCH  11  16
HETATM   16  N   UNL     1      -9.062   9.826  70.868  1.00  0.00    -0.341 NA 
HETATM   17  H   UNL     1      -8.465  10.557  71.253  1.00  0.00     0.000 HD 
BRANCH  16  18
HETATM   18  C   UNL     1      -8.840   8.530  71.394  1.00  0.00    -0.198 A  
HETATM   19  C   UNL     1      -9.942   7.693  71.642  1.00  0.00    -0.207 A  
HETATM   20  C   UNL     1      -8.515   6.033  72.678  1.00  0.00    -0.118 A  
HETATM   21  C   UNL     1      -9.782   6.455  72.282  1.00  0.00    -0.158 A  
HETATM   22  C   UNL     1      -7.580   8.084  71.815  1.00  0.00    -0.095 A  
HETATM   23  C   UNL     1      -7.412   6.845  72.438  1.00  0.00    -0.087 A  
BRANCH  21  24
HETATM   24  C   UNL     1     -10.915   5.628  72.569  1.00  0.00    -0.313 C  
HETATM   25  C   UNL     1     -11.853   4.939  72.865  1.00  0.00    -0.095 C  
ENDBRANCH  21  24
ENDBRANCH  16  18
ENDBRANCH  11  16
BRANCH  13  26
HETATM   26  O   UNL     1      -6.924   9.217  66.284  1.00  0.00    -0.084 OA 
BRANCH  26  27
HETATM   27  C   UNL     1      -6.654   7.816  66.330  1.00  0.00    -0.050 C  
BRANCH  27  28
HETATM   28  C   UNL     1      -5.835   7.377  65.121  1.00  0.00    -0.037 C  
BRANCH  28  29
HETATM   29  O   UNL     1      -6.670   6.552  64.303  1.00  0.00    -0.036 OA 
HETATM   30  C   UNL     1      -7.619   5.826  65.068  1.00  0.00    -0.087 C  
ENDBRANCH  28  29
ENDBRANCH  27  28
ENDBRANCH  26  27
ENDBRANCH  13  26
ENDBRANCH   5   6
ENDBRANCH   4   5
ENDBRANCH   3   4
ENDBRANCH   2   3
TORSDOF 11
ENDMDL
MODEL      224
REMARK 921   NORMALIZED FREE ENERGY PREDICTED BY IDOCK:   -3.28 KCAL/MOL
REMARK 922        TOTAL FREE ENERGY PREDICTED BY IDOCK:   -6.52 KCAL/MOL
REMARK 923 INTER-LIGAND FREE ENERGY PREDICTED BY IDOCK:   -5.46 KCAL/MOL
REMARK 924 INTRA-LIGAND FREE ENERGY PREDICTED BY IDOCK:   -1.06 KCAL/MOL
REMARK 927      BINDING AFFINITY PREDICTED BY RF-SCORE:    0.00 PKD
ROOT
HETATM    1  C   UNL     1      -8.603   5.311  65.411  1.00  0.00    -0.149 C  
HETATM    2  O   UNL     1      -8.380   5.246  66.815  1.00  0.00    -0.108 OA 
ENDROOT
BRANCH   2   3
HETATM    3  C   UNL     1      -6.989   5.306  67.116  1.00  0.00    -0.065 C  
BRANCH   3   4
HETATM    4  C   UNL     1      -6.507   6.754  67.094  1.00  0.00    -0.046 C  
BRANCH   4   5
HETATM    5  O   UNL     1      -7.366   7.488  67.960  1.00  0.00    -0.090 OA 
BRANCH   5   6
HETATM    6  C   UNL     1      -7.316   8.848  67.997  1.00  0.00    -0.084 A  
HETATM    7  C   UNL     1      -6.472   9.551  68.865  1.00  0.00    -0.046 A  
HETATM    8  C   UNL     1      -6.441  10.937  68.912  1.00  0.00    -0.049 A  
HETATM    9  C   UNL     1      -7.251  11.675  68.038  1.00  0.00    -0.083 A  
HETATM   10  C   UNL     1      -8.088  10.965  67.134  1.00  0.00    -0.127 A  
HETATM   11  C   UNL     1      -7.137  13.080  68.151  1.00  0.00    -0.107 A  
HETATM   12  N   UNL     1      -6.329  13.646  69.068  1.00  0.00    -0.096 NA 
HETATM   13  C   UNL     1      -8.142   9.565  67.120  1.00  0.00    -0.106 A  
HETATM   14  N   UNL     1      -5.624  11.499  69.803  1.00  0.00    -0.072 NA 
HETATM   15  C   UNL     1      -5.613  12.831  69.845  1.00  0.00    -0.114 A  
BRANCH  11  16
HETATM   16  N   UNL     1      -7.836  13.914  67.240  1.00  0.00    -0.324 NA 
HETATM   17  H   UNL     1      -7.253  14.374  66.541  1.00  0.00     0.000 HD 
BRANCH  16  18
HETATM   18  C   UNL     1      -9.219  14.207  67.154  1.00  0.00    -0.231 A  
HETATM   19  C   UNL     1      -9.947  14.432  68.335  1.00  0.00    -0.241 A  
HETATM   20  C   UNL     1     -12.025  14.545  67.096  1.00  0.00    -0.373 A  
HETATM   21  C   UNL     1     -11.340  14.596  68.308  1.00  0.00    -0.317 A  
HETATM   22  C   UNL     1      -9.937  14.148  65.951  1.00  0.00    -0.331 A  
HETATM   23  C   UNL     1     -11.322  14.328  65.916  1.00  0.00    -0.328 A  
BRANCH  21  24
HETATM   24  C   UNL     1     -12.079  14.782  69.520  1.00  0.00    -0.328 C  
HETATM   25  C   UNL     1     -12.710  14.990  70.520  1.00  0.00    -0.406 C  
ENDBRANCH  21  24
ENDBRANCH  16  18
ENDBRANCH  11  16
BRANCH  13  26
HETATM   26  O   UNL     1      -9.046   9.076  66.204  1.00  0.00    -0.170 OA 
BRANCH  26  27
HETATM   27  C   UNL     1     -10.211   9.858  65.941  1.00  0.00    -0.194 C  
BRANCH  27  28
HETATM   28  C   UNL     1     -10.059  10.645  64.643  1.00  0.00    -0.349 C  
BRANCH  28  29
HETATM   29  O   UNL     1      -9.282   9.853  63.740  1.00  0.00    -0.256 OA 
HETATM   30  C   UNL     1      -9.403  10.298  62.398  1.00  0.00    -0.271 C  
ENDBRANCH  28  29
ENDBRANCH  27  28
ENDBRANCH  26  27
ENDBRANCH  13  26
ENDBRANCH   5   6
ENDBRANCH   4   5
ENDBRANCH   3   4
ENDBRANCH   2   3
TORSDOF 11
ENDMDL
MODEL      225
REMARK 921   NORMALIZED FREE ENERGY PREDICTED BY IDOCK:   -3.23 KCAL/MOL
REMARK 922        TOTAL FREE ENERGY PREDICTED BY IDOCK:   -6.44 KCAL/MOL
REMARK 923 INTER-LIGAND FREE ENERGY PREDICTED BY IDOCK:   -5.45 KCAL/MOL
REMARK 924 INTRA-LIGAND FREE ENERGY PREDICTED BY IDOCK:   -0.99 KCAL/MOL
REMARK 927      BINDING AFFINITY PREDICTED BY RF-SCORE:    0.00 PKD
ROOT
HETATM    1  C   UNL     1      -7.089   5.420  72.562  1.00  0.00    -0.088 C  
HETATM    2  O   UNL     1      -8.477   5.179  72.358  1.00  0.00    -0.119 OA 
ENDROOT
BRANCH   2   3
HETATM    3  C   UNL     1      -8.685   4.232  71.314  1.00  0.00    -0.102 C  
BRANCH   3   4
HETATM    4  C   UNL     1      -9.320   4.913  70.104  1.00  0.00    -0.154 C  
BRANCH   4   5
HETATM    5  O   UNL     1      -8.452   5.975  69.725  1.00  0.00    -0.123 OA 
BRANCH   5   6
HETATM    6  C   UNL     1      -8.953   7.201  69.409  1.00  0.00    -0.136 A  
HETATM    7  C   UNL     1     -10.058   7.759  70.062  1.00  0.00    -0.201 A  
HETATM    8  C   UNL     1     -10.575   9.000  69.721  1.00  0.00    -0.228 A  
HETATM    9  C   UNL     1      -9.957   9.751  68.713  1.00  0.00    -0.179 A  
HETATM   10  C   UNL     1      -8.816   9.202  68.067  1.00  0.00    -0.129 A  
HETATM   11  C   UNL     1     -10.547  11.008  68.449  1.00  0.00    -0.193 A  
HETATM   12  N   UNL     1     -11.650  11.417  69.106  1.00  0.00    -0.283 NA 
HETATM   13  C   UNL     1      -8.323   7.930  68.391  1.00  0.00    -0.124 A  
HETATM   14  N   UNL     1     -11.652   9.416  70.387  1.00  0.00    -0.232 NA 
HETATM   15  C   UNL     1     -12.145  10.605  70.041  1.00  0.00    -0.316 A  
BRANCH  11  16
HETATM   16  N   UNL     1      -9.934  11.890  67.520  1.00  0.00    -0.186 NA 
HETATM   17  H   UNL     1      -8.974  12.151  67.743  1.00  0.00     0.000 HD 
BRANCH  16  18
HETATM   18  C   UNL     1     -10.451  12.461  66.332  1.00  0.00    -0.243 A  
HETATM   19  C   UNL     1     -10.438  13.859  66.181  1.00  0.00    -0.297 A  
HETATM   20  C   UNL     1     -11.689  13.701  64.113  1.00  0.00    -0.424 A  
HETATM   21  C   UNL     1     -11.054  14.475  65.083  1.00  0.00    -0.374 A  
HETATM   22  C   UNL     1     -11.107  11.709  65.347  1.00  0.00    -0.299 A  
HETATM   23  C   UNL     1     -11.708  12.316  64.242  1.00  0.00    -0.456 A  
BRANCH  21  24
HETATM   24  C   UNL     1     -11.074  15.901  64.960  1.00  0.00    -0.370 C  
HETATM   25  C   UNL     1     -11.095  17.091  64.801  1.00  0.00     0.227 C  
ENDBRANCH  21  24
ENDBRANCH  16  18
ENDBRANCH  11  16
BRANCH  13  26
HETATM   26  O   UNL     1      -7.242   7.566  67.620  1.00  0.00    -0.085 OA 
BRANCH  26  27
HETATM   27  C   UNL     1      -7.314   7.816  66.217  1.00  0.00    -0.079 C  
BRANCH  27  28
HETATM   28  C   UNL     1      -8.184   6.776  65.519  1.00  0.00    -0.131 C  
BRANCH  28  29
HETATM   29  O   UNL     1      -7.405   5.586  65.367  1.00  0.00    -0.070 OA 
HETATM   30  C   UNL     1      -7.402   5.116  64.029  1.00  0.00    -0.055 C  
ENDBRANCH  28  29
ENDBRANCH  27  28
ENDBRANCH  26  27
ENDBRANCH  13  26
ENDBRANCH   5   6
ENDBRANCH   4   5
ENDBRANCH   3   4
ENDBRANCH   2   3
TORSDOF 11
ENDMDL
MODEL      226
REMARK 921   NORMALIZED FREE ENERGY PREDICTED BY IDOCK:   -3.22 KCAL/MOL
REMARK 922        TOTAL FREE ENERGY PREDICTED BY IDOCK:   -6.42 KCAL/MOL
REMARK 923 INTER-LIGAND FREE ENERGY PREDICTED BY IDOCK:   -5.15 KCAL/MOL
REMARK 924 INTRA-LIGAND FREE ENERGY PREDICTED BY IDOCK:   -1.27 KCAL/MOL
REMARK 927      BINDING AFFINITY PREDICTED BY RF-SCORE:    0.00 PKD
ROOT
HETATM    1  C   UNL     1     -11.350  13.621  63.934  1.00  0.00    -0.108 C  
HETATM    2  O   UNL     1     -10.596  13.166  65.052  1.00  0.00    -0.303 OA 
ENDROOT
BRANCH   2   3
HETATM    3  C   UNL     1      -9.991  11.904  64.781  1.00  0.00    -0.235 C  
BRANCH   3   4
HETATM    4  C   UNL     1     -10.827  10.779  65.387  1.00  0.00     0.008 C  
BRANCH   4   5
HETATM    5  O   UNL     1      -9.941   9.974  66.156  1.00  0.00    -0.229 OA 
BRANCH   5   6
HETATM    6  C   UNL     1     -10.322   9.486  67.367  1.00  0.00    -0.258 A  
HETATM    7  C   UNL     1     -10.926  10.280  68.349  1.00  0.00    -0.308 A  
HETATM    8  C   UNL     1     -11.293   9.780  69.589  1.00  0.00    -0.122 A  
HETATM    9  C   UNL     1     -11.093   8.423  69.872  1.00  0.00    -0.109 A  
HETATM   10  C   UNL     1     -10.507   7.604  68.868  1.00  0.00    -0.211 A  
HETATM   11  C   UNL     1     -11.514   8.005  71.155  1.00  0.00    -0.276 A  
HETATM   12  N   UNL     1     -12.033   8.877  72.041  1.00  0.00    -0.362 NA 
HETATM   13  C   UNL     1     -10.103   8.126  67.631  1.00  0.00    -0.207 A  
HETATM   14  N   UNL     1     -11.829  10.637  70.458  1.00  0.00    -0.329 NA 
HETATM   15  C   UNL     1     -12.166  10.145  71.650  1.00  0.00    -0.331 A  
BRANCH  11  16
HETATM   16  N   UNL     1     -11.452   6.629  71.500  1.00  0.00    -0.282 NA 
HETATM   17  H   UNL     1     -12.272   6.082  71.241  1.00  0.00     0.000 HD 
BRANCH  16  18
HETATM   18  C   UNL     1     -10.425   5.901  72.148  1.00  0.00    -0.207 A  
HETATM   19  C   UNL     1      -9.105   6.381  72.095  1.00  0.00    -0.140 A  
HETATM   20  C   UNL     1      -8.278   4.387  73.191  1.00  0.00    -0.095 A  
HETATM   21  C   UNL     1      -8.039   5.630  72.609  1.00  0.00    -0.102 A  
HETATM   22  C   UNL     1     -10.633   4.642  72.729  1.00  0.00    -0.273 A  
HETATM   23  C   UNL     1      -9.577   3.896  73.258  1.00  0.00    -0.140 A  
BRANCH  21  24
HETATM   24  C   UNL     1      -6.692   6.107  72.511  1.00  0.00    -0.069 C  
HETATM   25  C   UNL     1      -5.547   6.465  72.461  1.00  0.00    -0.037 C  
ENDBRANCH  21  24
ENDBRANCH  16  18
ENDBRANCH  11  16
BRANCH  13  26
HETATM   26  O   UNL     1      -9.518   7.180  66.819  1.00  0.00    -0.155 OA 
BRANCH  26  27
HETATM   27  C   UNL     1      -8.247   6.665  67.212  1.00  0.00    -0.121 C  
BRANCH  27  28
HETATM   28  C   UNL     1      -7.135   7.667  66.916  1.00  0.00    -0.084 C  
BRANCH  28  29
HETATM   29  O   UNL     1      -6.055   6.953  66.306  1.00  0.00    -0.033 OA 
HETATM   30  C   UNL     1      -6.336   5.569  66.172  1.00  0.00    -0.035 C  
ENDBRANCH  28  29
ENDBRANCH  27  28
ENDBRANCH  26  27
ENDBRANCH  13  26
ENDBRANCH   5   6
ENDBRANCH   4   5
ENDBRANCH   3   4
ENDBRANCH   2   3
TORSDOF 11
ENDMDL
MODEL      227
REMARK 921   NORMALIZED FREE ENERGY PREDICTED BY IDOCK:   -3.20 KCAL/MOL
REMARK 922        TOTAL FREE ENERGY PREDICTED BY IDOCK:   -6.40 KCAL/MOL
REMARK 923 INTER-LIGAND FREE ENERGY PREDICTED BY IDOCK:   -5.47 KCAL/MOL
REMARK 924 INTRA-LIGAND FREE ENERGY PREDICTED BY IDOCK:   -0.93 KCAL/MOL
REMARK 927      BINDING AFFINITY PREDICTED BY RF-SCORE:    0.00 PKD
ROOT
HETATM    1  C   UNL     1     -10.493   3.768  62.464  1.00  0.00    -0.200 C  
HETATM    2  O   UNL     1      -9.499   3.036  63.171  1.00  0.00    -0.094 OA 
ENDROOT
BRANCH   2   3
HETATM    3  C   UNL     1      -9.242   3.619  64.445  1.00  0.00    -0.136 C  
BRANCH   3   4
HETATM    4  C   UNL     1      -8.501   4.944  64.278  1.00  0.00    -0.137 C  
BRANCH   4   5
HETATM    5  O   UNL     1      -7.422   4.933  65.206  1.00  0.00    -0.074 OA 
BRANCH   5   6
HETATM    6  C   UNL     1      -7.584   5.428  66.463  1.00  0.00    -0.088 A  
HETATM    7  C   UNL     1      -7.332   4.671  67.614  1.00  0.00    -0.074 A  
HETATM    8  C   UNL     1      -7.518   5.176  68.892  1.00  0.00    -0.069 A  
HETATM    9  C   UNL     1      -7.938   6.503  69.055  1.00  0.00    -0.111 A  
HETATM   10  C   UNL     1      -8.167   7.285  67.890  1.00  0.00    -0.119 A  
HETATM   11  C   UNL     1      -8.084   6.929  70.395  1.00  0.00    -0.116 A  
HETATM   12  N   UNL     1      -7.867   6.089  71.425  1.00  0.00    -0.110 NA 
HETATM   13  C   UNL     1      -8.013   6.755  66.602  1.00  0.00    -0.108 A  
HETATM   14  N   UNL     1      -7.281   4.353  69.913  1.00  0.00    -0.049 NA 
HETATM   15  C   UNL     1      -7.476   4.848  71.136  1.00  0.00    -0.073 A  
BRANCH  11  16
HETATM   16  N   UNL     1      -8.402   8.285  70.668  1.00  0.00    -0.116 NA 
HETATM   17  H   UNL     1      -7.600   8.891  70.839  1.00  0.00     0.000 HD 
BRANCH  16  18
HETATM   18  C   UNL     1      -9.663   8.926  70.739  1.00  0.00    -0.227 A  
HETATM   19  C   UNL     1     -10.023   9.845  69.737  1.00  0.00    -0.275 A  
HETATM   20  C   UNL     1     -12.044  10.438  70.932  1.00  0.00    -0.477 A  
HETATM   21  C   UNL     1     -11.202  10.598  69.834  1.00  0.00    -0.378 A  
HETATM   22  C   UNL     1     -10.524   8.796  71.838  1.00  0.00    -0.423 A  
HETATM   23  C   UNL     1     -11.709   9.531  71.931  1.00  0.00    -0.311 A  
BRANCH  21  24
HETATM   24  C   UNL     1     -11.538  11.563  68.831  1.00  0.00    -0.384 C  
HETATM   25  C   UNL     1     -11.765  12.387  67.988  1.00  0.00    -0.414 C  
ENDBRANCH  21  24
ENDBRANCH  16  18
ENDBRANCH  11  16
BRANCH  13  26
HETATM   26  O   UNL     1      -8.326   7.661  65.613  1.00  0.00    -0.129 OA 
BRANCH  26  27
HETATM   27  C   UNL     1      -9.385   8.583  65.870  1.00  0.00    -0.163 C  
BRANCH  27  28
HETATM   28  C   UNL     1      -8.917  10.022  65.681  1.00  0.00    -0.172 C  
BRANCH  28  29
HETATM   29  O   UNL     1      -9.856  10.678  64.825  1.00  0.00    -0.258 OA 
HETATM   30  C   UNL     1      -9.847  12.086  65.000  1.00  0.00    -0.187 C  
ENDBRANCH  28  29
ENDBRANCH  27  28
ENDBRANCH  26  27
ENDBRANCH  13  26
ENDBRANCH   5   6
ENDBRANCH   4   5
ENDBRANCH   3   4
ENDBRANCH   2   3
TORSDOF 11
ENDMDL
MODEL      228
REMARK 921   NORMALIZED FREE ENERGY PREDICTED BY IDOCK:   -3.20 KCAL/MOL
REMARK 922        TOTAL FREE ENERGY PREDICTED BY IDOCK:   -6.39 KCAL/MOL
REMARK 923 INTER-LIGAND FREE ENERGY PREDICTED BY IDOCK:   -5.25 KCAL/MOL
REMARK 924 INTRA-LIGAND FREE ENERGY PREDICTED BY IDOCK:   -1.14 KCAL/MOL
REMARK 927      BINDING AFFINITY PREDICTED BY RF-SCORE:    0.00 PKD
ROOT
HETATM    1  C   UNL     1      -9.044   5.252  65.743  1.00  0.00    -0.157 C  
HETATM    2  O   UNL     1      -9.198   5.465  67.141  1.00  0.00    -0.111 OA 
ENDROOT
BRANCH   2   3
HETATM    3  C   UNL     1      -7.935   5.475  67.800  1.00  0.00    -0.101 C  
BRANCH   3   4
HETATM    4  C   UNL     1      -7.273   6.842  67.648  1.00  0.00    -0.091 C  
BRANCH   4   5
HETATM    5  O   UNL     1      -8.180   7.802  68.179  1.00  0.00    -0.122 OA 
BRANCH   5   6
HETATM    6  C   UNL     1      -7.777   9.080  68.416  1.00  0.00    -0.098 A  
HETATM    7  C   UNL     1      -6.929   9.424  69.475  1.00  0.00    -0.053 A  
HETATM    8  C   UNL     1      -6.539  10.731  69.722  1.00  0.00    -0.128 A  
HETATM    9  C   UNL     1      -6.972  11.753  68.866  1.00  0.00    -0.109 A  
HETATM   10  C   UNL     1      -7.810  11.405  67.772  1.00  0.00    -0.117 A  
HETATM   11  C   UNL     1      -6.509  13.049  69.191  1.00  0.00    -0.108 A  
HETATM   12  N   UNL     1      -5.739  13.267  70.274  1.00  0.00    -0.142 NA 
HETATM   13  C   UNL     1      -8.231  10.087  67.552  1.00  0.00    -0.114 A  
HETATM   14  N   UNL     1      -5.758  10.945  70.780  1.00  0.00    -0.221 NA 
HETATM   15  C   UNL     1      -5.400  12.209  71.012  1.00  0.00    -0.126 A  
BRANCH  11  16
HETATM   16  N   UNL     1      -6.804  14.136  68.327  1.00  0.00    -0.094 NA 
HETATM   17  H   UNL     1      -6.084  14.346  67.636  1.00  0.00     0.000 HD 
BRANCH  16  18
HETATM   18  C   UNL     1      -7.946  14.972  68.277  1.00  0.00    -0.128 A  
HETATM   19  C   UNL     1      -8.812  14.885  67.172  1.00  0.00    -0.235 A  
HETATM   20  C   UNL     1     -10.103  16.773  67.967  1.00  0.00    -0.284 A  
HETATM   21  C   UNL     1      -9.880  15.780  67.016  1.00  0.00    -0.238 A  
HETATM   22  C   UNL     1      -8.188  15.989  69.211  1.00  0.00    -0.212 A  
HETATM   23  C   UNL     1      -9.261  16.873  69.069  1.00  0.00    -0.177 A  
BRANCH  21  24
HETATM   24  C   UNL     1     -10.730  15.711  65.865  1.00  0.00    -0.336 C  
HETATM   25  C   UNL     1     -11.487  15.658  64.935  1.00  0.00    -0.245 C  
ENDBRANCH  21  24
ENDBRANCH  16  18
ENDBRANCH  11  16
BRANCH  13  26
HETATM   26  O   UNL     1      -9.072   9.970  66.468  1.00  0.00    -0.145 OA 
BRANCH  26  27
HETATM   27  C   UNL     1     -10.119  10.930  66.336  1.00  0.00    -0.231 C  
BRANCH  27  28
HETATM   28  C   UNL     1     -10.292  11.355  64.881  1.00  0.00    -0.292 C  
BRANCH  28  29
HETATM   29  O   UNL     1     -11.455  12.185  64.804  1.00  0.00    -0.318 OA 
HETATM   30  C   UNL     1     -11.758  12.558  63.469  1.00  0.00    -0.518 C  
ENDBRANCH  28  29
ENDBRANCH  27  28
ENDBRANCH  26  27
ENDBRANCH  13  26
ENDBRANCH   5   6
ENDBRANCH   4   5
ENDBRANCH   3   4
ENDBRANCH   2   3
TORSDOF 11
ENDMDL
MODEL      229
REMARK 921   NORMALIZED FREE ENERGY PREDICTED BY IDOCK:   -3.19 KCAL/MOL
REMARK 922        TOTAL FREE ENERGY PREDICTED BY IDOCK:   -6.37 KCAL/MOL
REMARK 923 INTER-LIGAND FREE ENERGY PREDICTED BY IDOCK:   -5.25 KCAL/MOL
REMARK 924 INTRA-LIGAND FREE ENERGY PREDICTED BY IDOCK:   -1.12 KCAL/MOL
REMARK 927      BINDING AFFINITY PREDICTED BY RF-SCORE:    0.00 PKD
ROOT
HETATM    1  C   UNL     1     -11.321  13.727  64.210  1.00  0.00    -0.326 C  
HETATM    2  O   UNL     1     -10.814  13.388  65.496  1.00  0.00    -0.283 OA 
ENDROOT
BRANCH   2   3
HETATM    3  C   UNL     1     -10.210  12.098  65.484  1.00  0.00    -0.265 C  
BRANCH   3   4
HETATM    4  C   UNL     1     -11.178  11.059  66.045  1.00  0.00     0.120 C  
BRANCH   4   5
HETATM    5  O   UNL     1     -10.405   9.909  66.370  1.00  0.00    -0.227 OA 
BRANCH   5   6
HETATM    6  C   UNL     1     -10.598   9.254  67.548  1.00  0.00    -0.262 A  
HETATM    7  C   UNL     1     -11.106   9.884  68.690  1.00  0.00    -0.182 A  
HETATM    8  C   UNL     1     -11.280   9.215  69.893  1.00  0.00    -0.102 A  
HETATM    9  C   UNL     1     -10.976   7.850  69.973  1.00  0.00    -0.208 A  
HETATM   10  C   UNL     1     -10.488   7.199  68.808  1.00  0.00    -0.217 A  
HETATM   11  C   UNL     1     -11.202   7.254  71.235  1.00  0.00    -0.256 A  
HETATM   12  N   UNL     1     -11.642   7.978  72.283  1.00  0.00    -0.341 NA 
HETATM   13  C   UNL     1     -10.278   7.891  67.607  1.00  0.00    -0.226 A  
HETATM   14  N   UNL     1     -11.738   9.925  70.924  1.00  0.00    -0.334 NA 
HETATM   15  C   UNL     1     -11.890   9.272  72.077  1.00  0.00    -0.300 A  
BRANCH  11  16
HETATM   16  N   UNL     1     -11.026   5.855  71.391  1.00  0.00    -0.272 NA 
HETATM   17  H   UNL     1     -11.868   5.296  71.259  1.00  0.00     0.000 HD 
BRANCH  16  18
HETATM   18  C   UNL     1      -9.859   5.115  71.703  1.00  0.00    -0.173 A  
HETATM   19  C   UNL     1      -9.375   4.175  70.776  1.00  0.00    -0.223 A  
HETATM   20  C   UNL     1      -7.692   3.417  72.343  1.00  0.00    -0.059 A  
HETATM   21  C   UNL     1      -8.302   3.330  71.094  1.00  0.00    -0.088 A  
HETATM   22  C   UNL     1      -9.233   5.171  72.956  1.00  0.00    -0.129 A  
HETATM   23  C   UNL     1      -8.152   4.343  73.272  1.00  0.00    -0.095 A  
BRANCH  21  24
HETATM   24  C   UNL     1      -7.844   2.346  70.160  1.00  0.00    -0.049 C  
HETATM   25  C   UNL     1      -7.423   1.503  69.415  1.00  0.00    -0.042 C  
ENDBRANCH  21  24
ENDBRANCH  16  18
ENDBRANCH  11  16
BRANCH  13  26
HETATM   26  O   UNL     1      -9.759   7.089  66.614  1.00  0.00    -0.179 OA 
BRANCH  26  27
HETATM   27  C   UNL     1      -9.209   5.830  67.000  1.00  0.00    -0.118 C  
BRANCH  27  28
HETATM   28  C   UNL     1      -8.552   5.133  65.813  1.00  0.00    -0.135 C  
BRANCH  28  29
HETATM   29  O   UNL     1      -8.949   3.759  65.838  1.00  0.00    -0.123 OA 
HETATM   30  C   UNL     1      -9.781   3.423  64.739  1.00  0.00    -0.152 C  
ENDBRANCH  28  29
ENDBRANCH  27  28
ENDBRANCH  26  27
ENDBRANCH  13  26
ENDBRANCH   5   6
ENDBRANCH   4   5
ENDBRANCH   3   4
ENDBRANCH   2   3
TORSDOF 11
ENDMDL
MODEL      230
REMARK 921   NORMALIZED FREE ENERGY PREDICTED BY IDOCK:   -3.16 KCAL/MOL
REMARK 922        TOTAL FREE ENERGY PREDICTED BY IDOCK:   -6.33 KCAL/MOL
REMARK 923 INTER-LIGAND FREE ENERGY PREDICTED BY IDOCK:   -5.45 KCAL/MOL
REMARK 924 INTRA-LIGAND FREE ENERGY PREDICTED BY IDOCK:   -0.88 KCAL/MOL
REMARK 927      BINDING AFFINITY PREDICTED BY RF-SCORE:    0.00 PKD
ROOT
HETATM    1  C   UNL     1      -8.425   3.173  71.315  1.00  0.00    -0.064 C  
HETATM    2  O   UNL     1      -8.716   3.288  69.927  1.00  0.00    -0.066 OA 
ENDROOT
BRANCH   2   3
HETATM    3  C   UNL     1      -8.088   4.437  69.366  1.00  0.00    -0.060 C  
BRANCH   3   4
HETATM    4  C   UNL     1      -9.121   5.309  68.657  1.00  0.00    -0.109 C  
BRANCH   4   5
HETATM    5  O   UNL     1      -8.556   6.610  68.543  1.00  0.00    -0.124 OA 
BRANCH   5   6
HETATM    6  C   UNL     1      -9.333   7.719  68.684  1.00  0.00    -0.148 A  
HETATM    7  C   UNL     1     -10.055   7.995  69.851  1.00  0.00    -0.198 A  
HETATM    8  C   UNL     1     -10.860   9.117  69.979  1.00  0.00    -0.234 A  
HETATM    9  C   UNL     1     -10.935  10.036  68.924  1.00  0.00    -0.244 A  
HETATM   10  C   UNL     1     -10.181   9.775  67.748  1.00  0.00    -0.254 A  
HETATM   11  C   UNL     1     -11.769  11.154  69.156  1.00  0.00    -0.338 A  
HETATM   12  N   UNL     1     -12.463  11.284  70.303  1.00  0.00    -0.275 NA 
HETATM   13  C   UNL     1      -9.399   8.620  67.612  1.00  0.00    -0.137 A  
HETATM   14  N   UNL     1     -11.530   9.259  71.123  1.00  0.00    -0.304 NA 
HETATM   15  C   UNL     1     -12.309  10.336  71.228  1.00  0.00    -0.403 A  
BRANCH  11  16
HETATM   16  N   UNL     1     -11.830  12.195  68.193  1.00  0.00    -0.436 NA 
HETATM   17  H   UNL     1     -12.283  11.944  67.314  1.00  0.00     0.000 HD 
BRANCH  16  18
HETATM   18  C   UNL     1     -11.359  13.528  68.265  1.00  0.00    -0.294 A  
HETATM   19  C   UNL     1     -11.366  14.322  67.105  1.00  0.00    -0.352 A  
HETATM   20  C   UNL     1     -10.204  16.109  68.255  1.00  0.00    -0.248 A  
HETATM   21  C   UNL     1     -10.790  15.601  67.097  1.00  0.00    -0.297 A  
HETATM   22  C   UNL     1     -10.751  14.061  69.411  1.00  0.00    -0.085 A  
HETATM   23  C   UNL     1     -10.191  15.341  69.414  1.00  0.00    -0.258 A  
BRANCH  21  24
HETATM   24  C   UNL     1     -10.764  16.385  65.899  1.00  0.00    -0.219 C  
HETATM   25  C   UNL     1     -10.708  17.002  64.871  1.00  0.00     0.141 C  
ENDBRANCH  21  24
ENDBRANCH  16  18
ENDBRANCH  11  16
BRANCH  13  26
HETATM   26  O   UNL     1      -8.785   8.534  66.382  1.00  0.00    -0.120 OA 
BRANCH  26  27
HETATM   27  C   UNL     1      -7.499   9.136  66.241  1.00  0.00    -0.092 C  
BRANCH  27  28
HETATM   28  C   UNL     1      -6.895   8.824  64.876  1.00  0.00    -0.073 C  
BRANCH  28  29
HETATM   29  O   UNL     1      -7.242   7.477  64.542  1.00  0.00    -0.068 OA 
HETATM   30  C   UNL     1      -7.955   7.395  63.318  1.00  0.00    -0.086 C  
ENDBRANCH  28  29
ENDBRANCH  27  28
ENDBRANCH  26  27
ENDBRANCH  13  26
ENDBRANCH   5   6
ENDBRANCH   4   5
ENDBRANCH   3   4
ENDBRANCH   2   3
TORSDOF 11
ENDMDL
MODEL      231
REMARK 921   NORMALIZED FREE ENERGY PREDICTED BY IDOCK:   -3.16 KCAL/MOL
REMARK 922        TOTAL FREE ENERGY PREDICTED BY IDOCK:   -6.32 KCAL/MOL
REMARK 923 INTER-LIGAND FREE ENERGY PREDICTED BY IDOCK:   -5.19 KCAL/MOL
REMARK 924 INTRA-LIGAND FREE ENERGY PREDICTED BY IDOCK:   -1.14 KCAL/MOL
REMARK 927      BINDING AFFINITY PREDICTED BY RF-SCORE:    0.00 PKD
ROOT
HETATM    1  C   UNL     1      -6.529   5.985  73.343  1.00  0.00    -0.073 C  
HETATM    2  O   UNL     1      -7.707   6.704  72.997  1.00  0.00    -0.095 OA 
ENDROOT
BRANCH   2   3
HETATM    3  C   UNL     1      -8.332   6.140  71.848  1.00  0.00    -0.118 C  
BRANCH   3   4
HETATM    4  C   UNL     1      -8.906   7.245  70.965  1.00  0.00    -0.144 C  
BRANCH   4   5
HETATM    5  O   UNL     1      -7.916   7.553  69.990  1.00  0.00    -0.107 OA 
BRANCH   5   6
HETATM    6  C   UNL     1      -7.701   8.839  69.601  1.00  0.00    -0.088 A  
HETATM    7  C   UNL     1      -6.936   9.740  70.351  1.00  0.00    -0.139 A  
HETATM    8  C   UNL     1      -6.739  11.055  69.958  1.00  0.00    -0.094 A  
HETATM    9  C   UNL     1      -7.288  11.504  68.750  1.00  0.00    -0.115 A  
HETATM   10  C   UNL     1      -8.041  10.585  67.970  1.00  0.00    -0.111 A  
HETATM   11  C   UNL     1      -7.018  12.854  68.429  1.00  0.00    -0.096 A  
HETATM   12  N   UNL     1      -6.314  13.645  69.260  1.00  0.00    -0.103 NA 
HETATM   13  C   UNL     1      -8.268   9.268  68.393  1.00  0.00    -0.115 A  
HETATM   14  N   UNL     1      -6.022  11.833  70.769  1.00  0.00    -0.335 NA 
HETATM   15  C   UNL     1      -5.850  13.098  70.385  1.00  0.00    -0.156 A  
BRANCH  11  16
HETATM   16  N   UNL     1      -7.440  13.374  67.177  1.00  0.00    -0.370 NA 
HETATM   17  H   UNL     1      -6.770  13.265  66.416  1.00  0.00     0.000 HD 
BRANCH  16  18
HETATM   18  C   UNL     1      -8.649  14.022  66.823  1.00  0.00    -0.055 A  
HETATM   19  C   UNL     1      -9.665  13.280  66.196  1.00  0.00    -0.258 A  
HETATM   20  C   UNL     1     -10.987  15.280  65.853  1.00  0.00    -0.325 A  
HETATM   21  C   UNL     1     -10.824  13.904  65.711  1.00  0.00    -0.289 A  
HETATM   22  C   UNL     1      -8.835  15.406  66.940  1.00  0.00    -0.281 A  
HETATM   23  C   UNL     1      -9.995  16.031  66.475  1.00  0.00    -0.293 A  
BRANCH  21  24
HETATM   24  C   UNL     1     -11.834  13.147  65.035  1.00  0.00    -0.390 C  
HETATM   25  C   UNL     1     -12.718  12.527  64.509  1.00  0.00    -0.440 C  
ENDBRANCH  21  24
ENDBRANCH  16  18
ENDBRANCH  11  16
BRANCH  13  26
HETATM   26  O   UNL     1      -9.057   8.556  67.517  1.00  0.00    -0.133 OA 
BRANCH  26  27
HETATM   27  C   UNL     1      -8.485   7.406  66.895  1.00  0.00    -0.123 C  
BRANCH  27  28
HETATM   28  C   UNL     1      -8.402   7.585  65.383  1.00  0.00    -0.124 C  
BRANCH  28  29
HETATM   29  O   UNL     1      -7.424   8.594  65.115  1.00  0.00    -0.086 OA 
HETATM   30  C   UNL     1      -7.808   9.439  64.042  1.00  0.00    -0.128 C  
ENDBRANCH  28  29
ENDBRANCH  27  28
ENDBRANCH  26  27
ENDBRANCH  13  26
ENDBRANCH   5   6
ENDBRANCH   4   5
ENDBRANCH   3   4
ENDBRANCH   2   3
TORSDOF 11
ENDMDL
MODEL      232
REMARK 921   NORMALIZED FREE ENERGY PREDICTED BY IDOCK:   -3.10 KCAL/MOL
REMARK 922        TOTAL FREE ENERGY PREDICTED BY IDOCK:   -6.24 KCAL/MOL
REMARK 923 INTER-LIGAND FREE ENERGY PREDICTED BY IDOCK:   -5.71 KCAL/MOL
REMARK 924 INTRA-LIGAND FREE ENERGY PREDICTED BY IDOCK:   -0.53 KCAL/MOL
REMARK 927      BINDING AFFINITY PREDICTED BY RF-SCORE:    0.00 PKD
ROOT
HETATM    1  C   UNL     1     -11.927  15.036  70.137  1.00  0.00    -0.320 C  
HETATM    2  O   UNL     1     -11.434  16.348  69.890  1.00  0.00    -0.252 OA 
ENDROOT
BRANCH   2   3
HETATM    3  C   UNL     1     -10.807  16.428  68.614  1.00  0.00    -0.331 C  
BRANCH   3   4
HETATM    4  C   UNL     1     -10.294  17.844  68.366  1.00  0.00    -0.374 C  
BRANCH   4   5
HETATM    5  O   UNL     1      -8.979  17.720  67.837  1.00  0.00    -0.246 OA 
BRANCH   5   6
HETATM    6  C   UNL     1      -8.264  16.576  68.015  1.00  0.00    -0.172 A  
HETATM    7  C   UNL     1      -7.441  16.363  69.128  1.00  0.00    -0.228 A  
HETATM    8  C   UNL     1      -6.700  15.202  69.293  1.00  0.00    -0.146 A  
HETATM    9  C   UNL     1      -6.796  14.181  68.339  1.00  0.00    -0.098 A  
HETATM   10  C   UNL     1      -7.652  14.381  67.222  1.00  0.00    -0.135 A  
HETATM   11  C   UNL     1      -6.015  13.032  68.604  1.00  0.00    -0.071 A  
HETATM   12  N   UNL     1      -5.213  12.964  69.684  1.00  0.00    -0.074 NA 
HETATM   13  C   UNL     1      -8.368  15.572  67.043  1.00  0.00    -0.232 A  
HETATM   14  N   UNL     1      -5.924  15.123  70.374  1.00  0.00    -0.137 NA 
HETATM   15  C   UNL     1      -5.208  14.008  70.514  1.00  0.00    -0.106 A  
BRANCH  11  16
HETATM   16  N   UNL     1      -6.123  11.901  67.754  1.00  0.00    -0.058 NA 
HETATM   17  H   UNL     1      -5.248  11.594  67.330  1.00  0.00     0.000 HD 
BRANCH  16  18
HETATM   18  C   UNL     1      -7.260  11.131  67.405  1.00  0.00    -0.107 A  
HETATM   19  C   UNL     1      -8.208  10.822  68.396  1.00  0.00    -0.129 A  
HETATM   20  C   UNL     1      -9.422   9.394  66.863  1.00  0.00    -0.204 A  
HETATM   21  C   UNL     1      -9.279   9.958  68.129  1.00  0.00    -0.131 A  
HETATM   22  C   UNL     1      -7.423  10.540  66.145  1.00  0.00    -0.136 A  
HETATM   23  C   UNL     1      -8.498   9.691  65.868  1.00  0.00    -0.136 A  
BRANCH  21  24
HETATM   24  C   UNL     1     -10.216   9.614  69.156  1.00  0.00    -0.212 C  
HETATM   25  C   UNL     1     -10.984   9.272  70.014  1.00  0.00    -0.254 C  
ENDBRANCH  21  24
ENDBRANCH  16  18
ENDBRANCH  11  16
BRANCH  13  26
HETATM   26  O   UNL     1      -9.102  15.582  65.878  1.00  0.00    -0.323 OA 
BRANCH  26  27
HETATM   27  C   UNL     1      -9.855  14.412  65.559  1.00  0.00    -0.266 C  
BRANCH  27  28
HETATM   28  C   UNL     1     -11.329  14.599  65.903  1.00  0.00    -0.338 C  
BRANCH  28  29
HETATM   29  O   UNL     1     -12.087  13.715  65.072  1.00  0.00    -0.356 OA 
HETATM   30  C   UNL     1     -12.209  14.201  63.745  1.00  0.00    -0.139 C  
ENDBRANCH  28  29
ENDBRANCH  27  28
ENDBRANCH  26  27
ENDBRANCH  13  26
ENDBRANCH   5   6
ENDBRANCH   4   5
ENDBRANCH   3   4
ENDBRANCH   2   3
TORSDOF 11
ENDMDL
MODEL      233
REMARK 921   NORMALIZED FREE ENERGY PREDICTED BY IDOCK:   -3.08 KCAL/MOL
REMARK 922        TOTAL FREE ENERGY PREDICTED BY IDOCK:   -6.19 KCAL/MOL
REMARK 923 INTER-LIGAND FREE ENERGY PREDICTED BY IDOCK:   -4.95 KCAL/MOL
REMARK 924 INTRA-LIGAND FREE ENERGY PREDICTED BY IDOCK:   -1.24 KCAL/MOL
REMARK 927      BINDING AFFINITY PREDICTED BY RF-SCORE:    0.00 PKD
ROOT
HETATM    1  C   UNL     1      -9.782   4.858  72.012  1.00  0.00    -0.166 C  
HETATM    2  O   UNL     1      -8.953   5.961  72.359  1.00  0.00    -0.138 OA 
ENDROOT
BRANCH   2   3
HETATM    3  C   UNL     1      -7.696   5.886  71.693  1.00  0.00    -0.101 C  
BRANCH   3   4
HETATM    4  C   UNL     1      -7.183   7.289  71.377  1.00  0.00    -0.076 C  
BRANCH   4   5
HETATM    5  O   UNL     1      -8.298   8.040  70.909  1.00  0.00    -0.112 OA 
BRANCH   5   6
HETATM    6  C   UNL     1      -8.157   8.924  69.883  1.00  0.00    -0.112 A  
HETATM    7  C   UNL     1      -6.993   9.676  69.686  1.00  0.00    -0.071 A  
HETATM    8  C   UNL     1      -6.865  10.590  68.651  1.00  0.00    -0.054 A  
HETATM    9  C   UNL     1      -7.916  10.750  67.738  1.00  0.00    -0.110 A  
HETATM   10  C   UNL     1      -9.088   9.967  67.916  1.00  0.00    -0.135 A  
HETATM   11  C   UNL     1      -7.684  11.692  66.709  1.00  0.00    -0.116 A  
HETATM   12  N   UNL     1      -6.541  12.402  66.654  1.00  0.00     0.136 NA 
HETATM   13  C   UNL     1      -9.225   9.074  68.988  1.00  0.00    -0.140 A  
HETATM   14  N   UNL     1      -5.725  11.277  68.581  1.00  0.00    -0.043 NA 
HETATM   15  C   UNL     1      -5.619  12.160  67.588  1.00  0.00    -0.099 A  
BRANCH  11  16
HETATM   16  N   UNL     1      -8.643  11.851  65.675  1.00  0.00    -0.315 NA 
HETATM   17  H   UNL     1      -8.391  11.426  64.783  1.00  0.00     0.000 HD 
BRANCH  16  18
HETATM   18  C   UNL     1      -9.897  12.509  65.692  1.00  0.00    -0.216 A  
HETATM   19  C   UNL     1     -10.173  13.433  66.715  1.00  0.00    -0.259 A  
HETATM   20  C   UNL     1     -12.459  13.676  65.953  1.00  0.00    -0.502 A  
HETATM   21  C   UNL     1     -11.444  14.010  66.848  1.00  0.00    -0.373 A  
HETATM   22  C   UNL     1     -10.941  12.183  64.815  1.00  0.00    -0.356 A  
HETATM   23  C   UNL     1     -12.205  12.768  64.931  1.00  0.00    -0.519 A  
BRANCH  21  24
HETATM   24  C   UNL     1     -11.728  14.917  67.919  1.00  0.00    -0.344 C  
HETATM   25  C   UNL     1     -12.008  15.699  68.786  1.00  0.00    -0.247 C  
ENDBRANCH  21  24
ENDBRANCH  16  18
ENDBRANCH  11  16
BRANCH  13  26
HETATM   26  O   UNL     1     -10.452   8.447  69.006  1.00  0.00    -0.222 OA 
BRANCH  26  27
HETATM   27  C   UNL     1     -11.528   9.118  69.660  1.00  0.00     0.199 C  
BRANCH  27  28
HETATM   28  C   UNL     1     -12.128   8.248  70.759  1.00  0.00    -0.058 C  
BRANCH  28  29
HETATM   29  O   UNL     1     -11.963   8.938  72.002  1.00  0.00    -0.341 OA 
HETATM   30  C   UNL     1     -11.317   8.135  72.977  1.00  0.00    -0.064 C  
ENDBRANCH  28  29
ENDBRANCH  27  28
ENDBRANCH  26  27
ENDBRANCH  13  26
ENDBRANCH   5   6
ENDBRANCH   4   5
ENDBRANCH   3   4
ENDBRANCH   2   3
TORSDOF 11
ENDMDL
MODEL      234
REMARK 921   NORMALIZED FREE ENERGY PREDICTED BY IDOCK:   -3.06 KCAL/MOL
REMARK 922        TOTAL FREE ENERGY PREDICTED BY IDOCK:   -6.16 KCAL/MOL
REMARK 923 INTER-LIGAND FREE ENERGY PREDICTED BY IDOCK:   -5.22 KCAL/MOL
REMARK 924 INTRA-LIGAND FREE ENERGY PREDICTED BY IDOCK:   -0.93 KCAL/MOL
REMARK 927      BINDING AFFINITY PREDICTED BY RF-SCORE:    0.00 PKD
ROOT
HETATM    1  C   UNL     1      -8.494   9.010  64.580  1.00  0.00    -0.175 C  
HETATM    2  O   UNL     1      -9.772   9.469  65.006  1.00  0.00    -0.248 OA 
ENDROOT
BRANCH   2   3
HETATM    3  C   UNL     1      -9.666  10.706  65.704  1.00  0.00    -0.230 C  
BRANCH   3   4
HETATM    4  C   UNL     1     -10.071  10.523  67.165  1.00  0.00    -0.209 C  
BRANCH   4   5
HETATM    5  O   UNL     1     -10.840   9.327  67.233  1.00  0.00    -0.238 OA 
BRANCH   5   6
HETATM    6  C   UNL     1     -10.326   8.204  67.806  1.00  0.00    -0.233 A  
HETATM    7  C   UNL     1     -10.142   7.009  67.100  1.00  0.00    -0.283 A  
HETATM    8  C   UNL     1      -9.637   5.863  67.696  1.00  0.00    -0.111 A  
HETATM    9  C   UNL     1      -9.258   5.897  69.044  1.00  0.00    -0.132 A  
HETATM   10  C   UNL     1      -9.416   7.116  69.758  1.00  0.00    -0.149 A  
HETATM   11  C   UNL     1      -8.741   4.685  69.556  1.00  0.00    -0.082 A  
HETATM   12  N   UNL     1      -8.664   3.578  68.793  1.00  0.00    -0.091 NA 
HETATM   13  C   UNL     1      -9.963   8.259  69.159  1.00  0.00    -0.196 A  
HETATM   14  N   UNL     1      -9.538   4.774  66.935  1.00  0.00    -0.158 NA 
HETATM   15  C   UNL     1      -9.063   3.676  67.524  1.00  0.00    -0.157 A  
BRANCH  11  16
HETATM   16  N   UNL     1      -8.231   4.644  70.880  1.00  0.00    -0.088 NA 
HETATM   17  H   UNL     1      -7.223   4.777  70.959  1.00  0.00     0.000 HD 
BRANCH  16  18
HETATM   18  C   UNL     1      -8.908   4.449  72.109  1.00  0.00    -0.117 A  
HETATM   19  C   UNL     1      -9.915   3.471  72.189  1.00  0.00    -0.234 A  
HETATM   20  C   UNL     1     -10.483   4.163  74.439  1.00  0.00    -0.287 A  
HETATM   21  C   UNL     1     -10.699   3.331  73.343  1.00  0.00    -0.299 A  
HETATM   22  C   UNL     1      -8.721   5.280  73.222  1.00  0.00    -0.115 A  
HETATM   23  C   UNL     1      -9.488   5.134  74.382  1.00  0.00    -0.138 A  
BRANCH  21  24
HETATM   24  C   UNL     1     -11.751   2.361  73.399  1.00  0.00    -0.132 C  
HETATM   25  C   UNL     1     -12.635   1.549  73.390  1.00  0.00    -0.130 C  
ENDBRANCH  21  24
ENDBRANCH  16  18
ENDBRANCH  11  16
BRANCH  13  26
HETATM   26  O   UNL     1     -10.071   9.318  70.032  1.00  0.00    -0.187 OA 
BRANCH  26  27
HETATM   27  C   UNL     1     -11.265   9.418  70.808  1.00  0.00    -0.302 C  
BRANCH  27  28
HETATM   28  C   UNL     1     -12.164  10.535  70.289  1.00  0.00    -0.311 C  
BRANCH  28  29
HETATM   29  O   UNL     1     -11.525  11.782  70.582  1.00  0.00     0.072 OA 
HETATM   30  C   UNL     1     -12.141  12.869  69.911  1.00  0.00    -0.265 C  
ENDBRANCH  28  29
ENDBRANCH  27  28
ENDBRANCH  26  27
ENDBRANCH  13  26
ENDBRANCH   5   6
ENDBRANCH   4   5
ENDBRANCH   3   4
ENDBRANCH   2   3
TORSDOF 11
ENDMDL
MODEL      235
REMARK 921   NORMALIZED FREE ENERGY PREDICTED BY IDOCK:   -3.04 KCAL/MOL
REMARK 922        TOTAL FREE ENERGY PREDICTED BY IDOCK:   -6.13 KCAL/MOL
REMARK 923 INTER-LIGAND FREE ENERGY PREDICTED BY IDOCK:   -5.08 KCAL/MOL
REMARK 924 INTRA-LIGAND FREE ENERGY PREDICTED BY IDOCK:   -1.05 KCAL/MOL
REMARK 927      BINDING AFFINITY PREDICTED BY RF-SCORE:    0.00 PKD
ROOT
HETATM    1  C   UNL     1     -10.314   5.122  71.110  1.00  0.00    -0.206 C  
HETATM    2  O   UNL     1      -9.502   5.738  72.103  1.00  0.00    -0.150 OA 
ENDROOT
BRANCH   2   3
HETATM    3  C   UNL     1      -8.122   5.659  71.757  1.00  0.00    -0.118 C  
BRANCH   3   4
HETATM    4  C   UNL     1      -7.562   7.057  71.506  1.00  0.00    -0.089 C  
BRANCH   4   5
HETATM    5  O   UNL     1      -8.656   7.875  71.107  1.00  0.00    -0.122 OA 
BRANCH   5   6
HETATM    6  C   UNL     1      -8.463   8.932  70.272  1.00  0.00    -0.160 A  
HETATM    7  C   UNL     1      -7.543   9.953  70.541  1.00  0.00    -0.034 A  
HETATM    8  C   UNL     1      -7.366  11.037  69.695  1.00  0.00    -0.014 A  
HETATM    9  C   UNL     1      -8.101  11.109  68.504  1.00  0.00    -0.146 A  
HETATM   10  C   UNL     1      -9.016  10.061  68.211  1.00  0.00    -0.119 A  
HETATM   11  C   UNL     1      -7.840  12.244  67.701  1.00  0.00    -0.156 A  
HETATM   12  N   UNL     1      -6.970  13.194  68.093  1.00  0.00    -0.094 NA 
HETATM   13  C   UNL     1      -9.216   8.988  69.091  1.00  0.00    -0.144 A  
HETATM   14  N   UNL     1      -6.488  11.967  70.070  1.00  0.00    -0.071 NA 
HETATM   15  C   UNL     1      -6.337  13.009  69.253  1.00  0.00    -0.107 A  
BRANCH  11  16
HETATM   16  N   UNL     1      -8.454  12.357  66.427  1.00  0.00    -0.407 NA 
HETATM   17  H   UNL     1      -7.944  11.918  65.661  1.00  0.00     0.000 HD 
BRANCH  16  18
HETATM   18  C   UNL     1      -9.668  12.986  66.056  1.00  0.00    -0.216 A  
HETATM   19  C   UNL     1      -9.690  14.379  65.873  1.00  0.00    -0.305 A  
HETATM   20  C   UNL     1     -12.092  14.355  65.567  1.00  0.00    -0.358 A  
HETATM   21  C   UNL     1     -10.892  15.060  65.633  1.00  0.00    -0.356 A  
HETATM   22  C   UNL     1     -10.892  12.305  65.995  1.00  0.00    -0.310 A  
HETATM   23  C   UNL     1     -12.091  12.975  65.740  1.00  0.00    -0.510 A  
BRANCH  21  24
HETATM   24  C   UNL     1     -10.911  16.485  65.491  1.00  0.00    -0.196 C  
HETATM   25  C   UNL     1     -10.871  17.680  65.382  1.00  0.00     0.104 C  
ENDBRANCH  21  24
ENDBRANCH  16  18
ENDBRANCH  11  16
BRANCH  13  26
HETATM   26  O   UNL     1     -10.174   8.105  68.644  1.00  0.00    -0.199 OA 
BRANCH  26  27
HETATM   27  C   UNL     1      -9.742   7.014  67.832  1.00  0.00    -0.124 C  
BRANCH  27  28
HETATM   28  C   UNL     1     -10.679   6.810  66.646  1.00  0.00    -0.117 C  
BRANCH  28  29
HETATM   29  O   UNL     1     -11.012   5.419  66.587  1.00  0.00    -0.220 OA 
HETATM   30  C   UNL     1     -10.357   4.758  65.516  1.00  0.00    -0.133 C  
ENDBRANCH  28  29
ENDBRANCH  27  28
ENDBRANCH  26  27
ENDBRANCH  13  26
ENDBRANCH   5   6
ENDBRANCH   4   5
ENDBRANCH   3   4
ENDBRANCH   2   3
TORSDOF 11
ENDMDL
MODEL      236
REMARK 921   NORMALIZED FREE ENERGY PREDICTED BY IDOCK:   -2.97 KCAL/MOL
REMARK 922        TOTAL FREE ENERGY PREDICTED BY IDOCK:   -6.01 KCAL/MOL
REMARK 923 INTER-LIGAND FREE ENERGY PREDICTED BY IDOCK:   -4.98 KCAL/MOL
REMARK 924 INTRA-LIGAND FREE ENERGY PREDICTED BY IDOCK:   -1.04 KCAL/MOL
REMARK 927      BINDING AFFINITY PREDICTED BY RF-SCORE:    0.00 PKD
ROOT
HETATM    1  C   UNL     1      -9.156   3.979  73.873  1.00  0.00    -0.093 C  
HETATM    2  O   UNL     1      -8.163   4.994  73.958  1.00  0.00    -0.104 OA 
ENDROOT
BRANCH   2   3
HETATM    3  C   UNL     1      -7.172   4.826  72.947  1.00  0.00    -0.080 C  
BRANCH   3   4
HETATM    4  C   UNL     1      -6.546   6.173  72.595  1.00  0.00    -0.064 C  
BRANCH   4   5
HETATM    5  O   UNL     1      -7.618   7.061  72.298  1.00  0.00    -0.089 OA 
BRANCH   5   6
HETATM    6  C   UNL     1      -7.634   7.762  71.131  1.00  0.00    -0.079 A  
HETATM    7  C   UNL     1      -7.216   9.095  71.042  1.00  0.00    -0.113 A  
HETATM    8  C   UNL     1      -7.255   9.809  69.854  1.00  0.00    -0.116 A  
HETATM    9  C   UNL     1      -7.691   9.176  68.683  1.00  0.00    -0.092 A  
HETATM   10  C   UNL     1      -8.089   7.813  68.762  1.00  0.00    -0.126 A  
HETATM   11  C   UNL     1      -7.680   9.981  67.520  1.00  0.00    -0.091 A  
HETATM   12  N   UNL     1      -7.309  11.275  67.568  1.00  0.00    -0.100 NA 
HETATM   13  C   UNL     1      -8.084   7.110  69.974  1.00  0.00    -0.127 A  
HETATM   14  N   UNL     1      -6.866  11.083  69.894  1.00  0.00    -0.133 NA 
HETATM   15  C   UNL     1      -6.919  11.761  68.748  1.00  0.00    -0.103 A  
BRANCH  11  16
HETATM   16  N   UNL     1      -8.003   9.404  66.265  1.00  0.00    -0.110 NA 
HETATM   17  H   UNL     1      -7.946   8.387  66.229  1.00  0.00     0.000 HD 
BRANCH  16  18
HETATM   18  C   UNL     1      -8.392  10.024  65.052  1.00  0.00    -0.155 A  
HETATM   19  C   UNL     1      -9.649  10.650  64.976  1.00  0.00    -0.319 A  
HETATM   20  C   UNL     1      -9.358  11.063  62.607  1.00  0.00    -0.348 A  
HETATM   21  C   UNL     1     -10.131  11.163  63.763  1.00  0.00    -0.416 A  
HETATM   22  C   UNL     1      -7.643   9.928  63.872  1.00  0.00    -0.141 A  
HETATM   23  C   UNL     1      -8.110  10.452  62.663  1.00  0.00    -0.173 A  
BRANCH  21  24
HETATM   24  C   UNL     1     -11.430  11.760  63.685  1.00  0.00    -0.524 C  
HETATM   25  C   UNL     1     -12.495  12.309  63.603  1.00  0.00    -0.647 C  
ENDBRANCH  21  24
ENDBRANCH  16  18
ENDBRANCH  11  16
BRANCH  13  26
HETATM   26  O   UNL     1      -8.547   5.820  69.844  1.00  0.00    -0.123 OA 
BRANCH  26  27
HETATM   27  C   UNL     1      -9.191   5.468  68.620  1.00  0.00    -0.122 C  
BRANCH  27  28
HETATM   28  C   UNL     1      -9.544   3.985  68.594  1.00  0.00    -0.120 C  
BRANCH  28  29
HETATM   29  O   UNL     1      -9.675   3.542  69.948  1.00  0.00    -0.176 OA 
HETATM   30  C   UNL     1      -8.968   2.336  70.188  1.00  0.00    -0.092 C  
ENDBRANCH  28  29
ENDBRANCH  27  28
ENDBRANCH  26  27
ENDBRANCH  13  26
ENDBRANCH   5   6
ENDBRANCH   4   5
ENDBRANCH   3   4
ENDBRANCH   2   3
TORSDOF 11
ENDMDL
MODEL      237
REMARK 921   NORMALIZED FREE ENERGY PREDICTED BY IDOCK:   -2.95 KCAL/MOL
REMARK 922        TOTAL FREE ENERGY PREDICTED BY IDOCK:   -5.98 KCAL/MOL
REMARK 923 INTER-LIGAND FREE ENERGY PREDICTED BY IDOCK:   -4.85 KCAL/MOL
REMARK 924 INTRA-LIGAND FREE ENERGY PREDICTED BY IDOCK:   -1.13 KCAL/MOL
REMARK 927      BINDING AFFINITY PREDICTED BY RF-SCORE:    0.00 PKD
ROOT
HETATM    1  C   UNL     1      -9.251   5.643  74.558  1.00  0.00    -0.129 C  
HETATM    2  O   UNL     1      -8.986   6.192  73.272  1.00  0.00    -0.130 OA 
ENDROOT
BRANCH   2   3
HETATM    3  C   UNL     1      -8.762   5.163  72.313  1.00  0.00    -0.125 C  
BRANCH   3   4
HETATM    4  C   UNL     1     -10.075   4.786  71.630  1.00  0.00    -0.194 C  
BRANCH   4   5
HETATM    5  O   UNL     1     -10.012   5.298  70.303  1.00  0.00    -0.201 OA 
BRANCH   5   6
HETATM    6  C   UNL     1     -10.296   6.605  70.050  1.00  0.00    -0.199 A  
HETATM    7  C   UNL     1     -11.205   7.345  70.816  1.00  0.00    -0.293 A  
HETATM    8  C   UNL     1     -11.505   8.670  70.539  1.00  0.00    -0.188 A  
HETATM    9  C   UNL     1     -10.855   9.318  69.481  1.00  0.00    -0.211 A  
HETATM   10  C   UNL     1      -9.908   8.580  68.718  1.00  0.00    -0.180 A  
HETATM   11  C   UNL     1     -11.216  10.672  69.288  1.00  0.00    -0.273 A  
HETATM   12  N   UNL     1     -12.150  11.264  70.056  1.00  0.00    -0.333 NA 
HETATM   13  C   UNL     1      -9.640   7.230  68.980  1.00  0.00    -0.147 A  
HETATM   14  N   UNL     1     -12.413   9.265  71.313  1.00  0.00    -0.318 NA 
HETATM   15  C   UNL     1     -12.700  10.535  71.029  1.00  0.00    -0.408 A  
BRANCH  11  16
HETATM   16  N   UNL     1     -10.537  11.446  68.311  1.00  0.00    -0.185 NA 
HETATM   17  H   UNL     1     -10.590  11.083  67.359  1.00  0.00     0.000 HD 
BRANCH  16  18
HETATM   18  C   UNL     1      -9.798  12.645  68.454  1.00  0.00    -0.200 A  
HETATM   19  C   UNL     1      -8.441  12.576  68.816  1.00  0.00     0.153 A  
HETATM   20  C   UNL     1      -8.314  14.986  69.011  1.00  0.00    -0.194 A  
HETATM   21  C   UNL     1      -7.705  13.736  69.096  1.00  0.00     0.145 A  
HETATM   22  C   UNL     1     -10.387  13.916  68.389  1.00  0.00    -0.249 A  
HETATM   23  C   UNL     1      -9.654  15.077  68.650  1.00  0.00    -0.219 A  
BRANCH  21  24
HETATM   24  C   UNL     1      -6.336  13.653  69.506  1.00  0.00    -0.114 C  
HETATM   25  C   UNL     1      -5.205  13.562  69.899  1.00  0.00    -0.086 C  
ENDBRANCH  21  24
ENDBRANCH  16  18
ENDBRANCH  11  16
BRANCH  13  26
HETATM   26  O   UNL     1      -8.728   6.688  68.102  1.00  0.00    -0.119 OA 
BRANCH  26  27
HETATM   27  C   UNL     1      -9.157   6.458  66.760  1.00  0.00    -0.140 C  
BRANCH  27  28
HETATM   28  C   UNL     1      -8.028   6.724  65.771  1.00  0.00    -0.112 C  
BRANCH  28  29
HETATM   29  O   UNL     1      -8.436   7.799  64.920  1.00  0.00    -0.112 OA 
HETATM   30  C   UNL     1      -7.958   7.643  63.594  1.00  0.00    -0.089 C  
ENDBRANCH  28  29
ENDBRANCH  27  28
ENDBRANCH  26  27
ENDBRANCH  13  26
ENDBRANCH   5   6
ENDBRANCH   4   5
ENDBRANCH   3   4
ENDBRANCH   2   3
TORSDOF 11
ENDMDL
MODEL      238
REMARK 921   NORMALIZED FREE ENERGY PREDICTED BY IDOCK:   -2.93 KCAL/MOL
REMARK 922        TOTAL FREE ENERGY PREDICTED BY IDOCK:   -5.96 KCAL/MOL
REMARK 923 INTER-LIGAND FREE ENERGY PREDICTED BY IDOCK:   -5.49 KCAL/MOL
REMARK 924 INTRA-LIGAND FREE ENERGY PREDICTED BY IDOCK:   -0.47 KCAL/MOL
REMARK 927      BINDING AFFINITY PREDICTED BY RF-SCORE:    0.00 PKD
ROOT
HETATM    1  C   UNL     1     -12.527  13.898  63.358  1.00  0.00     0.251 C  
HETATM    2  O   UNL     1     -12.457  12.752  64.198  1.00  0.00    -0.545 OA 
ENDROOT
BRANCH   2   3
HETATM    3  C   UNL     1     -11.511  11.810  63.701  1.00  0.00    -0.431 C  
BRANCH   3   4
HETATM    4  C   UNL     1     -10.096  12.370  63.822  1.00  0.00    -0.308 C  
BRANCH   4   5
HETATM    5  O   UNL     1     -10.056  13.136  65.021  1.00  0.00    -0.284 OA 
BRANCH   5   6
HETATM    6  C   UNL     1     -10.167  12.531  66.235  1.00  0.00    -0.248 A  
HETATM    7  C   UNL     1     -11.146  12.884  67.171  1.00  0.00    -0.309 A  
HETATM    8  C   UNL     1     -11.239  12.277  68.415  1.00  0.00    -0.266 A  
HETATM    9  C   UNL     1     -10.353  11.244  68.746  1.00  0.00    -0.223 A  
HETATM   10  C   UNL     1      -9.376  10.861  67.787  1.00  0.00    -0.162 A  
HETATM   11  C   UNL     1     -10.539  10.678  70.028  1.00  0.00    -0.094 A  
HETATM   12  N   UNL     1     -11.482  11.142  70.869  1.00  0.00     0.152 NA 
HETATM   13  C   UNL     1      -9.263  11.506  66.548  1.00  0.00    -0.194 A  
HETATM   14  N   UNL     1     -12.189  12.719  69.239  1.00  0.00    -0.146 NA 
HETATM   15  C   UNL     1     -12.260  12.135  70.435  1.00  0.00    -0.294 A  
BRANCH  11  16
HETATM   16  N   UNL     1      -9.761   9.555  70.418  1.00  0.00    -0.259 NA 
HETATM   17  H   UNL     1      -8.798   9.766  70.675  1.00  0.00     0.000 HD 
BRANCH  16  18
HETATM   18  C   UNL     1     -10.120   8.188  70.505  1.00  0.00    -0.192 A  
HETATM   19  C   UNL     1      -9.889   7.347  69.402  1.00  0.00    -0.168 A  
HETATM   20  C   UNL     1     -11.033   5.513  70.493  1.00  0.00    -0.196 A  
HETATM   21  C   UNL     1     -10.344   6.021  69.393  1.00  0.00    -0.298 A  
HETATM   22  C   UNL     1     -10.826   7.653  71.591  1.00  0.00    -0.260 A  
HETATM   23  C   UNL     1     -11.268   6.327  71.595  1.00  0.00    -0.337 A  
BRANCH  21  24
HETATM   24  C   UNL     1     -10.142   5.185  68.248  1.00  0.00    -0.199 C  
HETATM   25  C   UNL     1      -9.980   4.439  67.322  1.00  0.00    -0.164 C  
ENDBRANCH  21  24
ENDBRANCH  16  18
ENDBRANCH  11  16
BRANCH  13  26
HETATM   26  O   UNL     1      -8.227  11.016  65.785  1.00  0.00    -0.147 OA 
BRANCH  26  27
HETATM   27  C   UNL     1      -6.897  11.243  66.250  1.00  0.00    -0.001 C  
BRANCH  27  28
HETATM   28  C   UNL     1      -6.069   9.963  66.188  1.00  0.00    -0.067 C  
BRANCH  28  29
HETATM   29  O   UNL     1      -5.460   9.899  64.895  1.00  0.00    -0.060 OA 
HETATM   30  C   UNL     1      -5.130   8.571  64.524  1.00  0.00    -0.039 C  
ENDBRANCH  28  29
ENDBRANCH  27  28
ENDBRANCH  26  27
ENDBRANCH  13  26
ENDBRANCH   5   6
ENDBRANCH   4   5
ENDBRANCH   3   4
ENDBRANCH   2   3
TORSDOF 11
ENDMDL
MODEL      239
REMARK 921   NORMALIZED FREE ENERGY PREDICTED BY IDOCK:   -2.90 KCAL/MOL
REMARK 922        TOTAL FREE ENERGY PREDICTED BY IDOCK:   -5.90 KCAL/MOL
REMARK 923 INTER-LIGAND FREE ENERGY PREDICTED BY IDOCK:   -4.81 KCAL/MOL
REMARK 924 INTRA-LIGAND FREE ENERGY PREDICTED BY IDOCK:   -1.09 KCAL/MOL
REMARK 927      BINDING AFFINITY PREDICTED BY RF-SCORE:    0.00 PKD
ROOT
HETATM    1  C   UNL     1     -10.124   3.660  64.179  1.00  0.00    -0.212 C  
HETATM    2  O   UNL     1      -9.876   3.722  65.579  1.00  0.00    -0.172 OA 
ENDROOT
BRANCH   2   3
HETATM    3  C   UNL     1      -8.805   2.858  65.948  1.00  0.00    -0.141 C  
BRANCH   3   4
HETATM    4  C   UNL     1      -7.603   3.677  66.411  1.00  0.00    -0.084 C  
BRANCH   4   5
HETATM    5  O   UNL     1      -8.048   4.489  67.491  1.00  0.00    -0.099 OA 
BRANCH   5   6
HETATM    6  C   UNL     1      -7.957   5.846  67.423  1.00  0.00    -0.102 A  
HETATM    7  C   UNL     1      -7.385   6.513  66.333  1.00  0.00    -0.074 A  
HETATM    8  C   UNL     1      -7.277   7.894  66.279  1.00  0.00    -0.074 A  
HETATM    9  C   UNL     1      -7.789   8.667  67.329  1.00  0.00    -0.097 A  
HETATM   10  C   UNL     1      -8.398   7.996  68.425  1.00  0.00    -0.127 A  
HETATM   11  C   UNL     1      -7.646  10.065  67.175  1.00  0.00    -0.092 A  
HETATM   12  N   UNL     1      -7.024  10.592  66.104  1.00  0.00    -0.125 NA 
HETATM   13  C   UNL     1      -8.468   6.598  68.490  1.00  0.00    -0.122 A  
HETATM   14  N   UNL     1      -6.682   8.418  65.208  1.00  0.00    -0.056 NA 
HETATM   15  C   UNL     1      -6.575   9.746  65.175  1.00  0.00    -0.100 A  
BRANCH  11  16
HETATM   16  N   UNL     1      -8.226  10.939  68.133  1.00  0.00    -0.116 NA 
HETATM   17  H   UNL     1      -7.705  11.031  69.004  1.00  0.00     0.000 HD 
BRANCH  16  18
HETATM   18  C   UNL     1      -9.417  11.702  68.062  1.00  0.00    -0.185 A  
HETATM   19  C   UNL     1      -9.345  13.099  68.201  1.00  0.00    -0.217 A  
HETATM   20  C   UNL     1     -11.760  13.278  68.191  1.00  0.00    -0.397 A  
HETATM   21  C   UNL     1     -10.507  13.881  68.268  1.00  0.00    -0.252 A  
HETATM   22  C   UNL     1     -10.692  11.122  68.000  1.00  0.00    -0.254 A  
HETATM   23  C   UNL     1     -11.853  11.897  68.049  1.00  0.00    -0.323 A  
BRANCH  21  24
HETATM   24  C   UNL     1     -10.425  15.299  68.453  1.00  0.00    -0.236 C  
HETATM   25  C   UNL     1     -10.401  16.493  68.573  1.00  0.00    -0.289 C  
ENDBRANCH  21  24
ENDBRANCH  16  18
ENDBRANCH  11  16
BRANCH  13  26
HETATM   26  O   UNL     1      -9.054   6.147  69.651  1.00  0.00    -0.135 OA 
BRANCH  26  27
HETATM   27  C   UNL     1      -8.562   6.667  70.886  1.00  0.00    -0.134 C  
BRANCH  27  28
HETATM   28  C   UNL     1      -9.404   6.177  72.060  1.00  0.00    -0.149 C  
BRANCH  28  29
HETATM   29  O   UNL     1      -9.167   7.056  73.164  1.00  0.00    -0.130 OA 
HETATM   30  C   UNL     1     -10.159   6.931  74.170  1.00  0.00    -0.316 C  
ENDBRANCH  28  29
ENDBRANCH  27  28
ENDBRANCH  26  27
ENDBRANCH  13  26
ENDBRANCH   5   6
ENDBRANCH   4   5
ENDBRANCH   3   4
ENDBRANCH   2   3
TORSDOF 11
ENDMDL
MODEL      240
REMARK 921   NORMALIZED FREE ENERGY PREDICTED BY IDOCK:   -2.80 KCAL/MOL
REMARK 922        TOTAL FREE ENERGY PREDICTED BY IDOCK:   -5.74 KCAL/MOL
REMARK 923 INTER-LIGAND FREE ENERGY PREDICTED BY IDOCK:   -4.60 KCAL/MOL
REMARK 924 INTRA-LIGAND FREE ENERGY PREDICTED BY IDOCK:   -1.15 KCAL/MOL
REMARK 927      BINDING AFFINITY PREDICTED BY RF-SCORE:    0.00 PKD
ROOT
HETATM    1  C   UNL     1      -6.899  10.319  65.104  1.00  0.00    -0.120 C  
HETATM    2  O   UNL     1      -6.051  11.040  65.990  1.00  0.00    -0.136 OA 
ENDROOT
BRANCH   2   3
HETATM    3  C   UNL     1      -6.741  11.392  67.186  1.00  0.00    -0.121 C  
BRANCH   3   4
HETATM    4  C   UNL     1      -5.787  11.347  68.377  1.00  0.00    -0.045 C  
BRANCH   4   5
HETATM    5  O   UNL     1      -6.378  10.490  69.347  1.00  0.00    -0.046 OA 
BRANCH   5   6
HETATM    6  C   UNL     1      -6.783   9.235  69.010  1.00  0.00    -0.051 A  
HETATM    7  C   UNL     1      -5.971   8.342  68.301  1.00  0.00    -0.045 A  
HETATM    8  C   UNL     1      -6.398   7.072  67.943  1.00  0.00    -0.043 A  
HETATM    9  C   UNL     1      -7.673   6.639  68.329  1.00  0.00    -0.105 A  
HETATM   10  C   UNL     1      -8.491   7.532  69.075  1.00  0.00    -0.133 A  
HETATM   11  C   UNL     1      -8.011   5.325  67.931  1.00  0.00    -0.095 A  
HETATM   12  N   UNL     1      -7.165   4.576  67.199  1.00  0.00    -0.072 NA 
HETATM   13  C   UNL     1      -8.066   8.827  69.399  1.00  0.00    -0.106 A  
HETATM   14  N   UNL     1      -5.553   6.320  67.238  1.00  0.00    -0.009 NA 
HETATM   15  C   UNL     1      -5.981   5.107  66.890  1.00  0.00    -0.026 A  
BRANCH  11  16
HETATM   16  N   UNL     1      -9.237   4.755  68.363  1.00  0.00    -0.118 NA 
HETATM   17  H   UNL     1     -10.051   5.005  67.802  1.00  0.00     0.000 HD 
BRANCH  16  18
HETATM   18  C   UNL     1      -9.503   3.892  69.454  1.00  0.00    -0.190 A  
HETATM   19  C   UNL     1      -9.864   4.446  70.695  1.00  0.00    -0.280 A  
HETATM   20  C   UNL     1      -9.803   2.266  71.747  1.00  0.00    -0.222 A  
HETATM   21  C   UNL     1     -10.010   3.641  71.834  1.00  0.00    -0.223 A  
HETATM   22  C   UNL     1      -9.290   2.507  69.401  1.00  0.00    -0.171 A  
HETATM   23  C   UNL     1      -9.450   1.697  70.528  1.00  0.00    -0.162 A  
BRANCH  21  24
HETATM   24  C   UNL     1     -10.335   4.220  73.102  1.00  0.00    -0.237 C  
HETATM   25  C   UNL     1     -10.555   4.725  74.169  1.00  0.00    -0.351 C  
ENDBRANCH  21  24
ENDBRANCH  16  18
ENDBRANCH  11  16
BRANCH  13  26
HETATM   26  O   UNL     1      -9.022   9.545  70.084  1.00  0.00    -0.203 OA 
BRANCH  26  27
HETATM   27  C   UNL     1     -10.309   8.950  70.243  1.00  0.00    -0.206 C  
BRANCH  27  28
HETATM   28  C   UNL     1     -11.405  10.010  70.255  1.00  0.00    -0.308 C  
BRANCH  28  29
HETATM   29  O   UNL     1     -12.469   9.530  71.082  1.00  0.00    -0.311 OA 
HETATM   30  C   UNL     1     -13.066  10.569  71.842  1.00  0.00    -0.462 C  
ENDBRANCH  28  29
ENDBRANCH  27  28
ENDBRANCH  26  27
ENDBRANCH  13  26
ENDBRANCH   5   6
ENDBRANCH   4   5
ENDBRANCH   3   4
ENDBRANCH   2   3
TORSDOF 11
ENDMDL
MODEL      241
REMARK 921   NORMALIZED FREE ENERGY PREDICTED BY IDOCK:   -2.80 KCAL/MOL
REMARK 922        TOTAL FREE ENERGY PREDICTED BY IDOCK:   -5.73 KCAL/MOL
REMARK 923 INTER-LIGAND FREE ENERGY PREDICTED BY IDOCK:   -6.54 KCAL/MOL
REMARK 924 INTRA-LIGAND FREE ENERGY PREDICTED BY IDOCK:    0.81 KCAL/MOL
REMARK 927      BINDING AFFINITY PREDICTED BY RF-SCORE:    0.00 PKD
ROOT
HETATM    1  C   UNL     1      -5.161  18.583  64.188  1.00  0.00    -0.062 C  
HETATM    2  O   UNL     1      -5.735  19.885  64.183  1.00  0.00    -0.218 OA 
ENDROOT
BRANCH   2   3
HETATM    3  C   UNL     1      -6.298  20.201  65.453  1.00  0.00    -0.248 C  
BRANCH   3   4
HETATM    4  C   UNL     1      -7.818  20.068  65.404  1.00  0.00     0.184 C  
BRANCH   4   5
HETATM    5  O   UNL     1      -8.224  19.508  66.647  1.00  0.00    -0.279 OA 
BRANCH   5   6
HETATM    6  C   UNL     1      -8.005  18.192  66.920  1.00  0.00    -0.232 A  
HETATM    7  C   UNL     1      -6.916  17.747  67.680  1.00  0.00    -0.190 A  
HETATM    8  C   UNL     1      -6.688  16.404  67.936  1.00  0.00    -0.135 A  
HETATM    9  C   UNL     1      -7.593  15.447  67.457  1.00  0.00    -0.207 A  
HETATM   10  C   UNL     1      -8.716  15.896  66.711  1.00  0.00    -0.303 A  
HETATM   11  C   UNL     1      -7.283  14.107  67.784  1.00  0.00    -0.176 A  
HETATM   12  N   UNL     1      -6.171  13.793  68.475  1.00  0.00    -0.085 NA 
HETATM   13  C   UNL     1      -8.918  17.253  66.423  1.00  0.00    -0.252 A  
HETATM   14  N   UNL     1      -5.600  16.093  68.641  1.00  0.00    -0.103 NA 
HETATM   15  C   UNL     1      -5.387  14.798  68.870  1.00  0.00    -0.088 A  
BRANCH  11  16
HETATM   16  N   UNL     1      -8.191  13.073  67.436  1.00  0.00    -0.177 NA 
HETATM   17  H   UNL     1      -7.882  12.462  66.681  1.00  0.00     0.000 HD 
BRANCH  16  18
HETATM   18  C   UNL     1      -9.462  12.759  67.978  1.00  0.00    -0.213 A  
HETATM   19  C   UNL     1     -10.162  13.744  68.697  1.00  0.00    -0.209 A  
HETATM   20  C   UNL     1     -11.881  12.150  69.309  1.00  0.00    -0.370 A  
HETATM   21  C   UNL     1     -11.360  13.442  69.361  1.00  0.00    -0.286 A  
HETATM   22  C   UNL     1     -10.003  11.466  67.954  1.00  0.00    -0.190 A  
HETATM   23  C   UNL     1     -11.206  11.164  68.599  1.00  0.00    -0.314 A  
BRANCH  21  24
HETATM   24  C   UNL     1     -12.044  14.440  70.127  1.00  0.00    -0.397 C  
HETATM   25  C   UNL     1     -12.610  15.313  70.726  1.00  0.00    -0.474 C  
ENDBRANCH  21  24
ENDBRANCH  16  18
ENDBRANCH  11  16
BRANCH  13  26
HETATM   26  O   UNL     1     -10.038  17.472  65.651  1.00  0.00    -0.574 OA 
BRANCH  26  27
HETATM   27  C   UNL     1     -11.016  16.434  65.593  1.00  0.00    -0.077 C  
BRANCH  27  28
HETATM   28  C   UNL     1     -10.572  15.316  64.655  1.00  0.00    -0.121 C  
BRANCH  28  29
HETATM   29  O   UNL     1     -10.859  14.069  65.294  1.00  0.00    -0.313 OA 
HETATM   30  C   UNL     1     -11.927  14.177  66.221  1.00  0.00    -0.429 C  
ENDBRANCH  28  29
ENDBRANCH  27  28
ENDBRANCH  26  27
ENDBRANCH  13  26
ENDBRANCH   5   6
ENDBRANCH   4   5
ENDBRANCH   3   4
ENDBRANCH   2   3
TORSDOF 11
ENDMDL
MODEL      242
REMARK 921   NORMALIZED FREE ENERGY PREDICTED BY IDOCK:   -2.76 KCAL/MOL
REMARK 922        TOTAL FREE ENERGY PREDICTED BY IDOCK:   -5.67 KCAL/MOL
REMARK 923 INTER-LIGAND FREE ENERGY PREDICTED BY IDOCK:   -4.75 KCAL/MOL
REMARK 924 INTRA-LIGAND FREE ENERGY PREDICTED BY IDOCK:   -0.92 KCAL/MOL
REMARK 927      BINDING AFFINITY PREDICTED BY RF-SCORE:    0.00 PKD
ROOT
HETATM    1  C   UNL     1      -5.963  10.397  64.890  1.00  0.00    -0.122 C  
HETATM    2  O   UNL     1      -5.549  11.334  65.877  1.00  0.00    -0.167 OA 
ENDROOT
BRANCH   2   3
HETATM    3  C   UNL     1      -6.635  11.699  66.724  1.00  0.00    -0.094 C  
BRANCH   3   4
HETATM    4  C   UNL     1      -6.109  12.272  68.038  1.00  0.00    -0.070 C  
BRANCH   4   5
HETATM    5  O   UNL     1      -6.936  11.756  69.074  1.00  0.00    -0.100 OA 
BRANCH   5   6
HETATM    6  C   UNL     1      -7.259  10.434  69.111  1.00  0.00    -0.089 A  
HETATM    7  C   UNL     1      -6.314   9.418  68.925  1.00  0.00    -0.043 A  
HETATM    8  C   UNL     1      -6.654   8.074  68.943  1.00  0.00    -0.049 A  
HETATM    9  C   UNL     1      -7.981   7.701  69.193  1.00  0.00    -0.120 A  
HETATM   10  C   UNL     1      -8.939   8.729  69.412  1.00  0.00    -0.145 A  
HETATM   11  C   UNL     1      -8.225   6.309  69.207  1.00  0.00    -0.114 A  
HETATM   12  N   UNL     1      -7.242   5.423  68.957  1.00  0.00    -0.061 NA 
HETATM   13  C   UNL     1      -8.595  10.086  69.353  1.00  0.00    -0.175 A  
HETATM   14  N   UNL     1      -5.678   7.195  68.719  1.00  0.00    -0.018 NA 
HETATM   15  C   UNL     1      -6.021   5.907  68.727  1.00  0.00    -0.020 A  
BRANCH  11  16
HETATM   16  N   UNL     1      -9.514   5.827  69.556  1.00  0.00    -0.133 NA 
HETATM   17  H   UNL     1     -10.127   5.624  68.767  1.00  0.00     0.000 HD 
BRANCH  16  18
HETATM   18  C   UNL     1     -10.079   5.583  70.832  1.00  0.00    -0.213 A  
HETATM   19  C   UNL     1      -9.952   4.306  71.406  1.00  0.00    -0.238 A  
HETATM   20  C   UNL     1     -11.388   4.934  73.252  1.00  0.00    -0.408 A  
HETATM   21  C   UNL     1     -10.604   3.982  72.604  1.00  0.00    -0.186 A  
HETATM   22  C   UNL     1     -10.884   6.517  71.500  1.00  0.00    -0.288 A  
HETATM   23  C   UNL     1     -11.522   6.205  72.703  1.00  0.00    -0.277 A  
BRANCH  21  24
HETATM   24  C   UNL     1     -10.504   2.665  73.158  1.00  0.00    -0.249 C  
HETATM   25  C   UNL     1     -10.456   1.543  73.583  1.00  0.00    -0.169 C  
ENDBRANCH  21  24
ENDBRANCH  16  18
ENDBRANCH  11  16
BRANCH  13  26
HETATM   26  O   UNL     1      -9.675  10.918  69.549  1.00  0.00    -0.077 OA 
BRANCH  26  27
HETATM   27  C   UNL     1     -10.974  10.328  69.549  1.00  0.00    -0.258 C  
BRANCH  27  28
HETATM   28  C   UNL     1     -11.904  11.052  68.582  1.00  0.00    -0.247 C  
BRANCH  28  29
HETATM   29  O   UNL     1     -11.313  12.317  68.270  1.00  0.00    -0.243 OA 
HETATM   30  C   UNL     1     -11.811  12.856  67.057  1.00  0.00    -0.374 C  
ENDBRANCH  28  29
ENDBRANCH  27  28
ENDBRANCH  26  27
ENDBRANCH  13  26
ENDBRANCH   5   6
ENDBRANCH   4   5
ENDBRANCH   3   4
ENDBRANCH   2   3
TORSDOF 11
ENDMDL
MODEL      243
REMARK 921   NORMALIZED FREE ENERGY PREDICTED BY IDOCK:   -2.74 KCAL/MOL
REMARK 922        TOTAL FREE ENERGY PREDICTED BY IDOCK:   -5.65 KCAL/MOL
REMARK 923 INTER-LIGAND FREE ENERGY PREDICTED BY IDOCK:   -5.52 KCAL/MOL
REMARK 924 INTRA-LIGAND FREE ENERGY PREDICTED BY IDOCK:   -0.13 KCAL/MOL
REMARK 927      BINDING AFFINITY PREDICTED BY RF-SCORE:    0.00 PKD
ROOT
HETATM    1  C   UNL     1      -8.157   6.341  67.024  1.00  0.00    -0.109 C  
HETATM    2  O   UNL     1      -7.696   7.334  66.115  1.00  0.00    -0.095 OA 
ENDROOT
BRANCH   2   3
HETATM    3  C   UNL     1      -8.421   8.550  66.274  1.00  0.00    -0.124 C  
BRANCH   3   4
HETATM    4  C   UNL     1      -9.586   8.346  67.239  1.00  0.00    -0.165 C  
BRANCH   4   5
HETATM    5  O   UNL     1      -9.418   9.286  68.295  1.00  0.00    -0.138 OA 
BRANCH   5   6
HETATM    6  C   UNL     1      -8.842  10.496  68.060  1.00  0.00    -0.131 A  
HETATM    7  C   UNL     1      -7.533  10.801  68.452  1.00  0.00    -0.095 A  
HETATM    8  C   UNL     1      -6.959  12.043  68.228  1.00  0.00    -0.075 A  
HETATM    9  C   UNL     1      -7.690  13.029  67.552  1.00  0.00    -0.168 A  
HETATM   10  C   UNL     1      -9.010  12.715  67.125  1.00  0.00    -0.205 A  
HETATM   11  C   UNL     1      -7.015  14.255  67.358  1.00  0.00    -0.051 A  
HETATM   12  N   UNL     1      -5.770  14.452  67.832  1.00  0.00    -0.227 NA 
HETATM   13  C   UNL     1      -9.596  11.470  67.390  1.00  0.00    -0.168 A  
HETATM   14  N   UNL     1      -5.718  12.232  68.677  1.00  0.00    -0.053 NA 
HETATM   15  C   UNL     1      -5.184  13.435  68.465  1.00  0.00    -0.078 A  
BRANCH  11  16
HETATM   16  N   UNL     1      -7.629  15.280  66.592  1.00  0.00    -0.254 NA 
HETATM   17  H   UNL     1      -8.000  14.983  65.690  1.00  0.00     0.000 HD 
BRANCH  16  18
HETATM   18  C   UNL     1      -7.807  16.654  66.889  1.00  0.00    -0.226 A  
HETATM   19  C   UNL     1      -7.154  17.616  66.100  1.00  0.00    -0.347 A  
HETATM   20  C   UNL     1      -7.899  19.398  67.562  1.00  0.00    -0.292 A  
HETATM   21  C   UNL     1      -7.196  18.977  66.434  1.00  0.00    -0.254 A  
HETATM   22  C   UNL     1      -8.496  17.105  68.023  1.00  0.00    -0.219 A  
HETATM   23  C   UNL     1      -8.556  18.462  68.353  1.00  0.00    -0.345 A  
BRANCH  21  24
HETATM   24  C   UNL     1      -6.491  19.946  65.649  1.00  0.00    -0.269 C  
HETATM   25  C   UNL     1      -5.855  20.725  64.994  1.00  0.00    -0.272 C  
ENDBRANCH  21  24
ENDBRANCH  16  18
ENDBRANCH  11  16
BRANCH  13  26
HETATM   26  O   UNL     1     -10.892  11.383  66.934  1.00  0.00    -0.258 OA 
BRANCH  26  27
HETATM   27  C   UNL     1     -11.937  11.760  67.831  1.00  0.00    -0.098 C  
BRANCH  27  28
HETATM   28  C   UNL     1     -11.643  11.275  69.247  1.00  0.00    -0.322 C  
BRANCH  28  29
HETATM   29  O   UNL     1     -12.887  11.206  69.951  1.00  0.00    -0.094 OA 
HETATM   30  C   UNL     1     -12.722  11.397  71.347  1.00  0.00    -0.384 C  
ENDBRANCH  28  29
ENDBRANCH  27  28
ENDBRANCH  26  27
ENDBRANCH  13  26
ENDBRANCH   5   6
ENDBRANCH   4   5
ENDBRANCH   3   4
ENDBRANCH   2   3
TORSDOF 11
ENDMDL
MODEL      244
REMARK 921   NORMALIZED FREE ENERGY PREDICTED BY IDOCK:   -2.42 KCAL/MOL
REMARK 922        TOTAL FREE ENERGY PREDICTED BY IDOCK:   -5.12 KCAL/MOL
REMARK 923 INTER-LIGAND FREE ENERGY PREDICTED BY IDOCK:   -5.07 KCAL/MOL
REMARK 924 INTRA-LIGAND FREE ENERGY PREDICTED BY IDOCK:   -0.04 KCAL/MOL
REMARK 927      BINDING AFFINITY PREDICTED BY RF-SCORE:    0.00 PKD
ROOT
HETATM    1  C   UNL     1      -5.856  14.239  73.363  1.00  0.00     0.122 C  
HETATM    2  O   UNL     1      -6.236  14.951  72.192  1.00  0.00     0.596 OA 
ENDROOT
BRANCH   2   3
HETATM    3  C   UNL     1      -6.371  14.071  71.079  1.00  0.00     0.138 C  
BRANCH   3   4
HETATM    4  C   UNL     1      -5.126  14.140  70.199  1.00  0.00    -0.090 C  
BRANCH   4   5
HETATM    5  O   UNL     1      -5.309  13.195  69.151  1.00  0.00    -0.069 OA 
BRANCH   5   6
HETATM    6  C   UNL     1      -6.386  12.363  69.147  1.00  0.00    -0.095 A  
HETATM    7  C   UNL     1      -6.425  11.169  69.878  1.00  0.00    -0.142 A  
HETATM    8  C   UNL     1      -7.518  10.316  69.852  1.00  0.00    -0.158 A  
HETATM    9  C   UNL     1      -8.648  10.667  69.102  1.00  0.00    -0.136 A  
HETATM   10  C   UNL     1      -8.626  11.892  68.381  1.00  0.00    -0.152 A  
HETATM   11  C   UNL     1      -9.716   9.741  69.152  1.00  0.00    -0.184 A  
HETATM   12  N   UNL     1      -9.616   8.593  69.848  1.00  0.00    -0.170 NA 
HETATM   13  C   UNL     1      -7.502  12.729  68.381  1.00  0.00    -0.124 A  
HETATM   14  N   UNL     1      -7.429   9.190  70.560  1.00  0.00    -0.100 NA 
HETATM   15  C   UNL     1      -8.483   8.375  70.517  1.00  0.00    -0.132 A  
BRANCH  11  16
HETATM   16  N   UNL     1     -10.944  10.054  68.513  1.00  0.00    -0.352 NA 
HETATM   17  H   UNL     1     -11.538   9.252  68.302  1.00  0.00     0.000 HD 
BRANCH  16  18
HETATM   18  C   UNL     1     -11.472  11.309  68.123  1.00  0.00    -0.306 A  
HETATM   19  C   UNL     1     -11.609  11.600  66.754  1.00  0.00    -0.220 A  
HETATM   20  C   UNL     1     -12.275  13.875  67.250  1.00  0.00    -0.324 A  
HETATM   21  C   UNL     1     -12.004  12.874  66.320  1.00  0.00    -0.472 A  
HETATM   22  C   UNL     1     -11.740  12.340  69.035  1.00  0.00    -0.376 A  
HETATM   23  C   UNL     1     -12.150  13.606  68.609  1.00  0.00    -0.325 A  
BRANCH  21  24
HETATM   24  C   UNL     1     -12.099  13.174  64.923  1.00  0.00    -0.448 C  
HETATM   25  C   UNL     1     -12.122  13.432  63.751  1.00  0.00    -0.516 C  
ENDBRANCH  21  24
ENDBRANCH  16  18
ENDBRANCH  11  16
BRANCH  13  26
HETATM   26  O   UNL     1      -7.667  13.842  67.587  1.00  0.00    -0.150 OA 
BRANCH  26  27
HETATM   27  C   UNL     1      -8.607  14.827  68.014  1.00  0.00    -0.166 C  
BRANCH  27  28
HETATM   28  C   UNL     1      -8.068  16.235  67.782  1.00  0.00    -0.149 C  
BRANCH  28  29
HETATM   29  O   UNL     1      -8.911  17.148  68.490  1.00  0.00    -0.251 OA 
HETATM   30  C   UNL     1     -10.277  16.996  68.140  1.00  0.00    -0.322 C  
ENDBRANCH  28  29
ENDBRANCH  27  28
ENDBRANCH  26  27
ENDBRANCH  13  26
ENDBRANCH   5   6
ENDBRANCH   4   5
ENDBRANCH   3   4
ENDBRANCH   2   3
TORSDOF 11
ENDMDL
MODEL      245
REMARK 921   NORMALIZED FREE ENERGY PREDICTED BY IDOCK:   -2.40 KCAL/MOL
REMARK 922        TOTAL FREE ENERGY PREDICTED BY IDOCK:   -5.09 KCAL/MOL
REMARK 923 INTER-LIGAND FREE ENERGY PREDICTED BY IDOCK:   -4.11 KCAL/MOL
REMARK 924 INTRA-LIGAND FREE ENERGY PREDICTED BY IDOCK:   -0.98 KCAL/MOL
REMARK 927      BINDING AFFINITY PREDICTED BY RF-SCORE:    0.00 PKD
ROOT
HETATM    1  C   UNL     1     -11.034  13.170  64.523  1.00  0.00    -0.372 C  
HETATM    2  O   UNL     1     -10.213  12.604  65.538  1.00  0.00    -0.275 OA 
ENDROOT
BRANCH   2   3
HETATM    3  C   UNL     1      -9.578  11.414  65.079  1.00  0.00    -0.221 C  
BRANCH   3   4
HETATM    4  C   UNL     1     -10.331  10.187  65.587  1.00  0.00    -0.140 C  
BRANCH   4   5
HETATM    5  O   UNL     1      -9.356   9.292  66.110  1.00  0.00    -0.176 OA 
BRANCH   5   6
HETATM    6  C   UNL     1      -9.615   8.560  67.228  1.00  0.00    -0.171 A  
HETATM    7  C   UNL     1     -10.156   9.121  68.391  1.00  0.00    -0.220 A  
HETATM    8  C   UNL     1     -10.399   8.373  69.534  1.00  0.00    -0.219 A  
HETATM    9  C   UNL     1     -10.132   6.998  69.528  1.00  0.00    -0.179 A  
HETATM   10  C   UNL     1      -9.610   6.418  68.339  1.00  0.00    -0.125 A  
HETATM   11  C   UNL     1     -10.427   6.320  70.733  1.00  0.00    -0.222 A  
HETATM   12  N   UNL     1     -10.894   6.979  71.811  1.00  0.00    -0.221 NA 
HETATM   13  C   UNL     1      -9.332   7.188  67.201  1.00  0.00    -0.140 A  
HETATM   14  N   UNL     1     -10.883   9.019  70.594  1.00  0.00    -0.229 NA 
HETATM   15  C   UNL     1     -11.100   8.291  71.689  1.00  0.00    -0.265 A  
BRANCH  11  16
HETATM   16  N   UNL     1     -10.292   4.908  70.794  1.00  0.00    -0.199 NA 
HETATM   17  H   UNL     1     -10.337   4.431  69.895  1.00  0.00     0.000 HD 
BRANCH  16  18
HETATM   18  C   UNL     1     -10.104   4.061  71.914  1.00  0.00    -0.144 A  
HETATM   19  C   UNL     1      -8.799   3.815  72.376  1.00  0.00    -0.120 A  
HETATM   20  C   UNL     1      -9.615   2.190  73.975  1.00  0.00    -0.105 A  
HETATM   21  C   UNL     1      -8.555   2.884  73.396  1.00  0.00    -0.076 A  
HETATM   22  C   UNL     1     -11.149   3.339  72.507  1.00  0.00     0.377 A  
HETATM   23  C   UNL     1     -10.914   2.422  73.536  1.00  0.00    -0.299 A  
BRANCH  21  24
HETATM   24  C   UNL     1      -7.219   2.608  73.830  1.00  0.00    -0.037 C  
HETATM   25  C   UNL     1      -6.099   2.426  74.223  1.00  0.00    -0.004 C  
ENDBRANCH  21  24
ENDBRANCH  16  18
ENDBRANCH  11  16
BRANCH  13  26
HETATM   26  O   UNL     1      -8.790   6.445  66.175  1.00  0.00    -0.145 OA 
BRANCH  26  27
HETATM   27  C   UNL     1      -7.476   5.922  66.359  1.00  0.00    -0.083 C  
BRANCH  27  28
HETATM   28  C   UNL     1      -6.424   7.014  66.196  1.00  0.00    -0.051 C  
BRANCH  28  29
HETATM   29  O   UNL     1      -5.369   6.487  65.385  1.00  0.00    -0.020 OA 
HETATM   30  C   UNL     1      -5.308   7.112  64.113  1.00  0.00    -0.029 C  
ENDBRANCH  28  29
ENDBRANCH  27  28
ENDBRANCH  26  27
ENDBRANCH  13  26
ENDBRANCH   5   6
ENDBRANCH   4   5
ENDBRANCH   3   4
ENDBRANCH   2   3
TORSDOF 11
ENDMDL
MODEL      246
REMARK 921   NORMALIZED FREE ENERGY PREDICTED BY IDOCK:   -2.35 KCAL/MOL
REMARK 922        TOTAL FREE ENERGY PREDICTED BY IDOCK:   -4.99 KCAL/MOL
REMARK 923 INTER-LIGAND FREE ENERGY PREDICTED BY IDOCK:   -5.36 KCAL/MOL
REMARK 924 INTRA-LIGAND FREE ENERGY PREDICTED BY IDOCK:    0.37 KCAL/MOL
REMARK 927      BINDING AFFINITY PREDICTED BY RF-SCORE:    0.00 PKD
ROOT
HETATM    1  C   UNL     1      -7.879  15.395  69.106  1.00  0.00    -0.212 C  
HETATM    2  O   UNL     1      -9.008  15.142  68.276  1.00  0.00    -0.167 OA 
ENDROOT
BRANCH   2   3
HETATM    3  C   UNL     1      -9.310  13.751  68.233  1.00  0.00    -0.209 C  
BRANCH   3   4
HETATM    4  C   UNL     1     -10.771  13.517  68.608  1.00  0.00    -0.253 C  
BRANCH   4   5
HETATM    5  O   UNL     1     -11.431  13.061  67.432  1.00  0.00    -0.294 OA 
BRANCH   5   6
HETATM    6  C   UNL     1     -10.864  12.107  66.644  1.00  0.00    -0.268 A  
HETATM    7  C   UNL     1     -10.658  12.284  65.270  1.00  0.00    -0.322 A  
HETATM    8  C   UNL     1     -10.098  11.300  64.470  1.00  0.00    -0.295 A  
HETATM    9  C   UNL     1      -9.683  10.093  65.049  1.00  0.00    -0.384 A  
HETATM   10  C   UNL     1      -9.863   9.920  66.448  1.00  0.00    -0.288 A  
HETATM   11  C   UNL     1      -9.110   9.160  64.154  1.00  0.00     0.112 A  
HETATM   12  N   UNL     1      -9.016   9.420  62.836  1.00  0.00    -0.221 NA 
HETATM   13  C   UNL     1     -10.465  10.905  67.244  1.00  0.00    -0.232 A  
HETATM   14  N   UNL     1      -9.982  11.565  63.169  1.00  0.00    -0.383 NA 
HETATM   15  C   UNL     1      -9.453  10.606  62.409  1.00  0.00    -0.202 A  
BRANCH  11  16
HETATM   16  N   UNL     1      -8.562   7.951  64.658  1.00  0.00    -0.381 NA 
HETATM   17  H   UNL     1      -8.929   7.100  64.232  1.00  0.00     0.000 HD 
BRANCH  16  18
HETATM   18  C   UNL     1      -7.585   7.746  65.662  1.00  0.00    -0.085 A  
HETATM   19  C   UNL     1      -7.876   6.889  66.738  1.00  0.00    -0.107 A  
HETATM   20  C   UNL     1      -5.799   7.475  67.836  1.00  0.00    -0.035 A  
HETATM   21  C   UNL     1      -6.992   6.756  67.818  1.00  0.00    -0.083 A  
HETATM   22  C   UNL     1      -6.382   8.465  65.713  1.00  0.00    -0.052 A  
HETATM   23  C   UNL     1      -5.490   8.324  66.779  1.00  0.00    -0.033 A  
BRANCH  21  24
HETATM   24  C   UNL     1      -7.317   5.914  68.930  1.00  0.00    -0.084 C  
HETATM   25  C   UNL     1      -7.576   5.164  69.831  1.00  0.00    -0.064 C  
ENDBRANCH  21  24
ENDBRANCH  16  18
ENDBRANCH  11  16
BRANCH  13  26
HETATM   26  O   UNL     1     -10.586  10.524  68.562  1.00  0.00    -0.182 OA 
BRANCH  26  27
HETATM   27  C   UNL     1     -11.855  10.702  69.189  1.00  0.00    -0.215 C  
BRANCH  27  28
HETATM   28  C   UNL     1     -12.093   9.639  70.256  1.00  0.00     0.023 C  
BRANCH  28  29
HETATM   29  O   UNL     1     -10.816   9.212  70.739  1.00  0.00    -0.229 OA 
HETATM   30  C   UNL     1     -10.406   7.986  70.156  1.00  0.00    -0.215 C  
ENDBRANCH  28  29
ENDBRANCH  27  28
ENDBRANCH  26  27
ENDBRANCH  13  26
ENDBRANCH   5   6
ENDBRANCH   4   5
ENDBRANCH   3   4
ENDBRANCH   2   3
TORSDOF 11
ENDMDL
MODEL      247
REMARK 921   NORMALIZED FREE ENERGY PREDICTED BY IDOCK:   -2.29 KCAL/MOL
REMARK 922        TOTAL FREE ENERGY PREDICTED BY IDOCK:   -4.89 KCAL/MOL
REMARK 923 INTER-LIGAND FREE ENERGY PREDICTED BY IDOCK:   -3.90 KCAL/MOL
REMARK 924 INTRA-LIGAND FREE ENERGY PREDICTED BY IDOCK:   -1.00 KCAL/MOL
REMARK 927      BINDING AFFINITY PREDICTED BY RF-SCORE:    0.00 PKD
ROOT
HETATM    1  C   UNL     1     -12.157  13.825  64.140  1.00  0.00    -0.433 C  
HETATM    2  O   UNL     1     -11.863  13.901  65.531  1.00  0.00    -0.335 OA 
ENDROOT
BRANCH   2   3
HETATM    3  C   UNL     1     -11.878  12.608  66.128  1.00  0.00    -0.418 C  
BRANCH   3   4
HETATM    4  C   UNL     1     -10.584  12.370  66.902  1.00  0.00    -0.229 C  
BRANCH   4   5
HETATM    5  O   UNL     1     -10.248  10.997  66.734  1.00  0.00    -0.212 OA 
BRANCH   5   6
HETATM    6  C   UNL     1     -10.095  10.184  67.814  1.00  0.00    -0.180 A  
HETATM    7  C   UNL     1     -11.176   9.734  68.584  1.00  0.00    -0.068 A  
HETATM    8  C   UNL     1     -11.010   8.922  69.695  1.00  0.00    -0.123 A  
HETATM    9  C   UNL     1      -9.724   8.495  70.052  1.00  0.00    -0.172 A  
HETATM   10  C   UNL     1      -8.627   8.925  69.257  1.00  0.00    -0.133 A  
HETATM   11  C   UNL     1      -9.660   7.658  71.190  1.00  0.00    -0.158 A  
HETATM   12  N   UNL     1     -10.767   7.338  71.887  1.00  0.00    -0.214 NA 
HETATM   13  C   UNL     1      -8.799   9.778  68.158  1.00  0.00    -0.119 A  
HETATM   14  N   UNL     1     -12.107   8.585  70.373  1.00  0.00     0.138 NA 
HETATM   15  C   UNL     1     -11.932   7.813  71.445  1.00  0.00    -0.306 A  
BRANCH  11  16
HETATM   16  N   UNL     1      -8.418   7.087  71.571  1.00  0.00    -0.116 NA 
HETATM   17  H   UNL     1      -8.198   7.154  72.564  1.00  0.00     0.000 HD 
BRANCH  16  18
HETATM   18  C   UNL     1      -7.436   6.439  70.782  1.00  0.00    -0.087 A  
HETATM   19  C   UNL     1      -7.763   5.234  70.135  1.00  0.00    -0.072 A  
HETATM   20  C   UNL     1      -5.473   4.946  69.401  1.00  0.00    -0.008 A  
HETATM   21  C   UNL     1      -6.789   4.491  69.452  1.00  0.00    -0.046 A  
HETATM   22  C   UNL     1      -6.102   6.865  70.724  1.00  0.00    -0.032 A  
HETATM   23  C   UNL     1      -5.131   6.137  70.030  1.00  0.00    -0.012 A  
BRANCH  21  24
HETATM   24  C   UNL     1      -7.122   3.243  68.833  1.00  0.00    -0.049 C  
HETATM   25  C   UNL     1      -7.357   2.174  68.341  1.00  0.00    -0.047 C  
ENDBRANCH  21  24
ENDBRANCH  16  18
ENDBRANCH  11  16
BRANCH  13  26
HETATM   26  O   UNL     1      -7.608  10.110  67.551  1.00  0.00    -0.090 OA 
BRANCH  26  27
HETATM   27  C   UNL     1      -6.530  10.525  68.389  1.00  0.00    -0.055 C  
BRANCH  27  28
HETATM   28  C   UNL     1      -6.011  11.897  67.974  1.00  0.00    -0.055 C  
BRANCH  28  29
HETATM   29  O   UNL     1      -7.142  12.746  67.760  1.00  0.00    -0.102 OA 
HETATM   30  C   UNL     1      -6.807  14.121  67.862  1.00  0.00    -0.165 C  
ENDBRANCH  28  29
ENDBRANCH  27  28
ENDBRANCH  26  27
ENDBRANCH  13  26
ENDBRANCH   5   6
ENDBRANCH   4   5
ENDBRANCH   3   4
ENDBRANCH   2   3
TORSDOF 11
ENDMDL
MODEL      248
REMARK 921   NORMALIZED FREE ENERGY PREDICTED BY IDOCK:   -2.15 KCAL/MOL
REMARK 922        TOTAL FREE ENERGY PREDICTED BY IDOCK:   -4.67 KCAL/MOL
REMARK 923 INTER-LIGAND FREE ENERGY PREDICTED BY IDOCK:   -4.26 KCAL/MOL
REMARK 924 INTRA-LIGAND FREE ENERGY PREDICTED BY IDOCK:   -0.41 KCAL/MOL
REMARK 927      BINDING AFFINITY PREDICTED BY RF-SCORE:    0.00 PKD
ROOT
HETATM    1  C   UNL     1     -10.183   4.301  62.563  1.00  0.00    -0.089 C  
HETATM    2  O   UNL     1     -10.589   3.466  63.641  1.00  0.00    -0.232 OA 
ENDROOT
BRANCH   2   3
HETATM    3  C   UNL     1     -10.491   4.153  64.886  1.00  0.00    -0.173 C  
BRANCH   3   4
HETATM    4  C   UNL     1      -9.139   3.875  65.536  1.00  0.00    -0.143 C  
BRANCH   4   5
HETATM    5  O   UNL     1      -9.376   2.975  66.613  1.00  0.00    -0.154 OA 
BRANCH   5   6
HETATM    6  C   UNL     1      -8.836   3.205  67.841  1.00  0.00    -0.132 A  
HETATM    7  C   UNL     1      -8.081   2.248  68.529  1.00  0.00    -0.069 A  
HETATM    8  C   UNL     1      -7.552   2.482  69.789  1.00  0.00    -0.043 A  
HETATM    9  C   UNL     1      -7.739   3.733  70.394  1.00  0.00    -0.047 A  
HETATM   10  C   UNL     1      -8.479   4.719  69.687  1.00  0.00    -0.093 A  
HETATM   11  C   UNL     1      -7.148   3.881  71.670  1.00  0.00    -0.038 A  
HETATM   12  N   UNL     1      -6.490   2.864  72.259  1.00  0.00    -0.014 NA 
HETATM   13  C   UNL     1      -9.044   4.460  68.430  1.00  0.00    -0.124 A  
HETATM   14  N   UNL     1      -6.879   1.485  70.364  1.00  0.00    -0.032 NA 
HETATM   15  C   UNL     1      -6.386   1.721  71.580  1.00  0.00    -0.018 A  
BRANCH  11  16
HETATM   16  N   UNL     1      -7.190   5.142  72.319  1.00  0.00    -0.087 NA 
HETATM   17  H   UNL     1      -6.279   5.551  72.528  1.00  0.00     0.000 HD 
BRANCH  16  18
HETATM   18  C   UNL     1      -8.303   5.920  72.722  1.00  0.00    -0.118 A  
HETATM   19  C   UNL     1      -8.848   6.854  71.823  1.00  0.00    -0.131 A  
HETATM   20  C   UNL     1     -10.355   7.691  73.523  1.00  0.00    -0.306 A  
HETATM   21  C   UNL     1      -9.863   7.735  72.221  1.00  0.00    -0.248 A  
HETATM   22  C   UNL     1      -8.809   5.907  74.029  1.00  0.00    -0.123 A  
HETATM   23  C   UNL     1      -9.833   6.771  74.426  1.00  0.00    -0.318 A  
BRANCH  21  24
HETATM   24  C   UNL     1     -10.382   8.712  71.311  1.00  0.00    -0.308 C  
HETATM   25  C   UNL     1     -10.865   9.530  70.578  1.00  0.00    -0.352 C  
ENDBRANCH  21  24
ENDBRANCH  16  18
ENDBRANCH  11  16
BRANCH  13  26
HETATM   26  O   UNL     1      -9.759   5.529  67.937  1.00  0.00    -0.120 OA 
BRANCH  26  27
HETATM   27  C   UNL     1      -9.145   6.816  67.988  1.00  0.00    -0.119 C  
BRANCH  27  28
HETATM   28  C   UNL     1      -9.269   7.535  66.649  1.00  0.00    -0.162 C  
BRANCH  28  29
HETATM   29  O   UNL     1     -10.545   8.181  66.617  1.00  0.00    -0.272 OA 
HETATM   30  C   UNL     1     -10.441   9.582  66.815  1.00  0.00    -0.193 C  
ENDBRANCH  28  29
ENDBRANCH  27  28
ENDBRANCH  26  27
ENDBRANCH  13  26
ENDBRANCH   5   6
ENDBRANCH   4   5
ENDBRANCH   3   4
ENDBRANCH   2   3
TORSDOF 11
ENDMDL
MODEL      249
REMARK 921   NORMALIZED FREE ENERGY PREDICTED BY IDOCK:   -1.99 KCAL/MOL
REMARK 922        TOTAL FREE ENERGY PREDICTED BY IDOCK:   -4.41 KCAL/MOL
REMARK 923 INTER-LIGAND FREE ENERGY PREDICTED BY IDOCK:   -3.75 KCAL/MOL
REMARK 924 INTRA-LIGAND FREE ENERGY PREDICTED BY IDOCK:   -0.66 KCAL/MOL
REMARK 927      BINDING AFFINITY PREDICTED BY RF-SCORE:    0.00 PKD
ROOT
HETATM    1  C   UNL     1     -10.151   3.808  70.894  1.00  0.00     0.113 C  
HETATM    2  O   UNL     1      -9.805   4.148  72.232  1.00  0.00    -0.150 OA 
ENDROOT
BRANCH   2   3
HETATM    3  C   UNL     1      -8.783   5.140  72.260  1.00  0.00    -0.125 C  
BRANCH   3   4
HETATM    4  C   UNL     1      -9.201   6.350  71.428  1.00  0.00    -0.149 C  
BRANCH   4   5
HETATM    5  O   UNL     1      -8.116   6.646  70.556  1.00  0.00    -0.113 OA 
BRANCH   5   6
HETATM    6  C   UNL     1      -7.739   7.934  70.330  1.00  0.00    -0.088 A  
HETATM    7  C   UNL     1      -6.756   8.580  71.089  1.00  0.00    -0.061 A  
HETATM    8  C   UNL     1      -6.392   9.900  70.866  1.00  0.00    -0.056 A  
HETATM    9  C   UNL     1      -6.994  10.614  69.822  1.00  0.00    -0.145 A  
HETATM   10  C   UNL     1      -7.972   9.954  69.029  1.00  0.00    -0.101 A  
HETATM   11  C   UNL     1      -6.546  11.946  69.665  1.00  0.00    -0.062 A  
HETATM   12  N   UNL     1      -5.631  12.480  70.496  1.00  0.00    -0.162 NA 
HETATM   13  C   UNL     1      -8.363   8.632  69.286  1.00  0.00    -0.118 A  
HETATM   14  N   UNL     1      -5.469  10.422  71.673  1.00  0.00    -0.283 NA 
HETATM   15  C   UNL     1      -5.138  11.695  71.455  1.00  0.00    -0.062 A  
BRANCH  11  16
HETATM   16  N   UNL     1      -7.016  12.719  68.571  1.00  0.00    -0.088 NA 
HETATM   17  H   UNL     1      -6.292  13.060  67.940  1.00  0.00     0.000 HD 
BRANCH  16  18
HETATM   18  C   UNL     1      -8.338  13.090  68.223  1.00  0.00    -0.158 A  
HETATM   19  C   UNL     1      -8.850  12.708  66.971  1.00  0.00    -0.212 A  
HETATM   20  C   UNL     1     -10.866  13.999  67.341  1.00  0.00    -0.288 A  
HETATM   21  C   UNL     1     -10.102  13.161  66.531  1.00  0.00    -0.280 A  
HETATM   22  C   UNL     1      -9.124  13.943  69.011  1.00  0.00     0.212 A  
HETATM   23  C   UNL     1     -10.380  14.384  68.586  1.00  0.00    -0.245 A  
BRANCH  21  24
HETATM   24  C   UNL     1     -10.596  12.803  65.235  1.00  0.00    -0.312 C  
HETATM   25  C   UNL     1     -11.063  12.512  64.168  1.00  0.00    -0.426 C  
ENDBRANCH  21  24
ENDBRANCH  16  18
ENDBRANCH  11  16
BRANCH  13  26
HETATM   26  O   UNL     1      -9.353   8.194  68.435  1.00  0.00    -0.136 OA 
BRANCH  26  27
HETATM   27  C   UNL     1     -10.667   8.716  68.624  1.00  0.00    -0.051 C  
BRANCH  27  28
HETATM   28  C   UNL     1     -11.009   8.815  70.107  1.00  0.00    -0.223 C  
BRANCH  28  29
HETATM   29  O   UNL     1     -12.434   8.772  70.232  1.00  0.00     0.371 OA 
HETATM   30  C   UNL     1     -12.910   9.657  71.232  1.00  0.00    -0.350 C  
ENDBRANCH  28  29
ENDBRANCH  27  28
ENDBRANCH  26  27
ENDBRANCH  13  26
ENDBRANCH   5   6
ENDBRANCH   4   5
ENDBRANCH   3   4
ENDBRANCH   2   3
TORSDOF 11
ENDMDL
MODEL      250
REMARK 921   NORMALIZED FREE ENERGY PREDICTED BY IDOCK:   -1.98 KCAL/MOL
REMARK 922        TOTAL FREE ENERGY PREDICTED BY IDOCK:   -4.39 KCAL/MOL
REMARK 923 INTER-LIGAND FREE ENERGY PREDICTED BY IDOCK:   -3.17 KCAL/MOL
REMARK 924 INTRA-LIGAND FREE ENERGY PREDICTED BY IDOCK:   -1.22 KCAL/MOL
REMARK 927      BINDING AFFINITY PREDICTED BY RF-SCORE:    0.00 PKD
ROOT
HETATM    1  C   UNL     1      -8.527   4.977  72.458  1.00  0.00    -0.120 C  
HETATM    2  O   UNL     1      -7.610   5.362  73.476  1.00  0.00    -0.094 OA 
ENDROOT
BRANCH   2   3
HETATM    3  C   UNL     1      -6.302   5.551  72.943  1.00  0.00    -0.060 C  
BRANCH   3   4
HETATM    4  C   UNL     1      -6.016   7.040  72.766  1.00  0.00    -0.041 C  
BRANCH   4   5
HETATM    5  O   UNL     1      -5.839   7.263  71.371  1.00  0.00    -0.036 OA 
BRANCH   5   6
HETATM    6  C   UNL     1      -6.011   8.505  70.841  1.00  0.00    -0.034 A  
HETATM    7  C   UNL     1      -5.546   9.668  71.468  1.00  0.00    -0.067 A  
HETATM    8  C   UNL     1      -5.743  10.931  70.931  1.00  0.00    -0.062 A  
HETATM    9  C   UNL     1      -6.395  11.063  69.698  1.00  0.00    -0.106 A  
HETATM   10  C   UNL     1      -6.843   9.883  69.043  1.00  0.00    -0.054 A  
HETATM   11  C   UNL     1      -6.533  12.389  69.227  1.00  0.00    -0.107 A  
HETATM   12  N   UNL     1      -6.094  13.438  69.948  1.00  0.00    -0.130 NA 
HETATM   13  C   UNL     1      -6.675   8.613  69.611  1.00  0.00    -0.039 A  
HETATM   14  N   UNL     1      -5.288  11.969  71.633  1.00  0.00    -0.367 NA 
HETATM   15  C   UNL     1      -5.494  13.178  71.111  1.00  0.00    -0.184 A  
BRANCH  11  16
HETATM   16  N   UNL     1      -7.085  12.621  67.940  1.00  0.00    -0.099 NA 
HETATM   17  H   UNL     1      -6.418  12.579  67.170  1.00  0.00     0.000 HD 
BRANCH  16  18
HETATM   18  C   UNL     1      -8.420  12.902  67.561  1.00  0.00    -0.186 A  
HETATM   19  C   UNL     1      -9.435  12.845  68.533  1.00  0.00    -0.098 A  
HETATM   20  C   UNL     1     -11.140  13.197  66.849  1.00  0.00    -0.308 A  
HETATM   21  C   UNL     1     -10.784  12.988  68.180  1.00  0.00    -0.258 A  
HETATM   22  C   UNL     1      -8.809  13.101  66.229  1.00  0.00     0.195 A  
HETATM   23  C   UNL     1     -10.151  13.261  65.874  1.00  0.00    -0.296 A  
BRANCH  21  24
HETATM   24  C   UNL     1     -11.814  12.885  69.170  1.00  0.00    -0.353 C  
HETATM   25  C   UNL     1     -12.703  12.761  69.967  1.00  0.00     0.246 C  
ENDBRANCH  21  24
ENDBRANCH  16  18
ENDBRANCH  11  16
BRANCH  13  26
HETATM   26  O   UNL     1      -7.217   7.609  68.840  1.00  0.00    -0.077 OA 
BRANCH  26  27
HETATM   27  C   UNL     1      -8.025   7.991  67.727  1.00  0.00    -0.127 C  
BRANCH  27  28
HETATM   28  C   UNL     1      -9.480   7.589  67.943  1.00  0.00    -0.141 C  
BRANCH  28  29
HETATM   29  O   UNL     1     -10.111   7.527  66.661  1.00  0.00    -0.235 OA 
HETATM   30  C   UNL     1     -10.359   6.192  66.251  1.00  0.00     0.070 C  
ENDBRANCH  28  29
ENDBRANCH  27  28
ENDBRANCH  26  27
ENDBRANCH  13  26
ENDBRANCH   5   6
ENDBRANCH   4   5
ENDBRANCH   3   4
ENDBRANCH   2   3
TORSDOF 11
ENDMDL
MODEL      251
REMARK 921   NORMALIZED FREE ENERGY PREDICTED BY IDOCK:   -1.93 KCAL/MOL
REMARK 922        TOTAL FREE ENERGY PREDICTED BY IDOCK:   -4.30 KCAL/MOL
REMARK 923 INTER-LIGAND FREE ENERGY PREDICTED BY IDOCK:   -3.62 KCAL/MOL
REMARK 924 INTRA-LIGAND FREE ENERGY PREDICTED BY IDOCK:   -0.68 KCAL/MOL
REMARK 927      BINDING AFFINITY PREDICTED BY RF-SCORE:    0.00 PKD
ROOT
HETATM    1  C   UNL     1      -8.158   8.154  72.846  1.00  0.00    -0.167 C  
HETATM    2  O   UNL     1      -8.851   8.014  71.611  1.00  0.00    -0.123 OA 
ENDROOT
BRANCH   2   3
HETATM    3  C   UNL     1      -9.277   9.281  71.117  1.00  0.00    -0.155 C  
BRANCH   3   4
HETATM    4  C   UNL     1      -8.696   9.525  69.727  1.00  0.00    -0.194 C  
BRANCH   4   5
HETATM    5  O   UNL     1      -9.618  10.360  69.035  1.00  0.00    -0.184 OA 
BRANCH   5   6
HETATM    6  C   UNL     1      -9.208  11.529  68.471  1.00  0.00    -0.167 A  
HETATM    7  C   UNL     1      -7.861  11.900  68.391  1.00  0.00    -0.141 A  
HETATM    8  C   UNL     1      -7.452  13.102  67.833  1.00  0.00    -0.136 A  
HETATM    9  C   UNL     1      -8.408  13.971  67.292  1.00  0.00    -0.209 A  
HETATM   10  C   UNL     1      -9.775  13.586  67.344  1.00  0.00    -0.229 A  
HETATM   11  C   UNL     1      -7.892  15.163  66.732  1.00  0.00     0.055 A  
HETATM   12  N   UNL     1      -6.574  15.439  66.765  1.00  0.00     0.069 NA 
HETATM   13  C   UNL     1     -10.184  12.387  67.944  1.00  0.00    -0.213 A  
HETATM   14  N   UNL     1      -6.146  13.366  67.843  1.00  0.00    -0.132 NA 
HETATM   15  C   UNL     1      -5.768  14.530  67.314  1.00  0.00     0.590 A  
BRANCH  11  16
HETATM   16  N   UNL     1      -8.767  16.060  66.065  1.00  0.00    -0.308 NA 
HETATM   17  H   UNL     1      -9.442  15.620  65.440  1.00  0.00     0.000 HD 
BRANCH  16  18
HETATM   18  C   UNL     1      -8.846  17.472  66.134  1.00  0.00    -0.125 A  
HETATM   19  C   UNL     1      -7.761  18.243  65.680  1.00  0.00     0.158 A  
HETATM   20  C   UNL     1      -8.810  20.279  66.468  1.00  0.00    -0.303 A  
HETATM   21  C   UNL     1      -7.741  19.635  65.848  1.00  0.00    -0.307 A  
HETATM   22  C   UNL     1      -9.901  18.146  66.764  1.00  0.00    -0.337 A  
HETATM   23  C   UNL     1      -9.894  19.535  66.919  1.00  0.00    -0.476 A  
BRANCH  21  24
HETATM   24  C   UNL     1      -6.612  20.407  65.422  1.00  0.00    -0.302 C  
HETATM   25  C   UNL     1      -5.633  21.012  65.082  1.00  0.00    -0.259 C  
ENDBRANCH  21  24
ENDBRANCH  16  18
ENDBRANCH  11  16
BRANCH  13  26
HETATM   26  O   UNL     1     -11.551  12.222  67.930  1.00  0.00    -0.312 OA 
BRANCH  26  27
HETATM   27  C   UNL     1     -12.250  12.384  69.164  1.00  0.00    -0.009 C  
BRANCH  27  28
HETATM   28  C   UNL     1     -12.752  13.815  69.324  1.00  0.00     0.536 C  
BRANCH  28  29
HETATM   29  O   UNL     1     -13.341  13.928  70.624  1.00  0.00    -0.105 OA 
HETATM   30  C   UNL     1     -12.465  13.485  71.648  1.00  0.00    -0.132 C  
ENDBRANCH  28  29
ENDBRANCH  27  28
ENDBRANCH  26  27
ENDBRANCH  13  26
ENDBRANCH   5   6
ENDBRANCH   4   5
ENDBRANCH   3   4
ENDBRANCH   2   3
TORSDOF 11
ENDMDL
MODEL      252
REMARK 921   NORMALIZED FREE ENERGY PREDICTED BY IDOCK:   -1.64 KCAL/MOL
REMARK 922        TOTAL FREE ENERGY PREDICTED BY IDOCK:   -3.84 KCAL/MOL
REMARK 923 INTER-LIGAND FREE ENERGY PREDICTED BY IDOCK:   -4.82 KCAL/MOL
REMARK 924 INTRA-LIGAND FREE ENERGY PREDICTED BY IDOCK:    0.98 KCAL/MOL
REMARK 927      BINDING AFFINITY PREDICTED BY RF-SCORE:    0.00 PKD
ROOT
HETATM    1  C   UNL     1     -10.297   6.518  73.717  1.00  0.00    -0.326 C  
HETATM    2  O   UNL     1      -9.686   6.897  72.489  1.00  0.00    -0.153 OA 
ENDROOT
BRANCH   2   3
HETATM    3  C   UNL     1      -8.699   5.949  72.094  1.00  0.00    -0.136 C  
BRANCH   3   4
HETATM    4  C   UNL     1      -9.244   5.052  70.986  1.00  0.00    -0.147 C  
BRANCH   4   5
HETATM    5  O   UNL     1      -8.787   5.594  69.753  1.00  0.00    -0.121 OA 
BRANCH   5   6
HETATM    6  C   UNL     1      -8.933   6.920  69.482  1.00  0.00    -0.143 A  
HETATM    7  C   UNL     1      -9.983   7.688  69.999  1.00  0.00    -0.190 A  
HETATM    8  C   UNL     1     -10.137   9.034  69.702  1.00  0.00    -0.197 A  
HETATM    9  C   UNL     1      -9.193   9.672  68.886  1.00  0.00    -0.147 A  
HETATM   10  C   UNL     1      -8.108   8.904  68.382  1.00  0.00    -0.109 A  
HETATM   11  C   UNL     1      -9.428  11.047  68.654  1.00  0.00    -0.195 A  
HETATM   12  N   UNL     1     -10.509  11.669  69.161  1.00  0.00    -0.126 NA 
HETATM   13  C   UNL     1      -7.982   7.535  68.655  1.00  0.00    -0.123 A  
HETATM   14  N   UNL     1     -11.194   9.657  70.222  1.00  0.00    -0.258 NA 
HETATM   15  C   UNL     1     -11.336  10.947  69.919  1.00  0.00    -0.305 A  
BRANCH  11  16
HETATM   16  N   UNL     1      -8.474  11.808  67.928  1.00  0.00    -0.147 NA 
HETATM   17  H   UNL     1      -7.798  11.260  67.397  1.00  0.00     0.000 HD 
BRANCH  16  18
HETATM   18  C   UNL     1      -8.318  13.212  67.828  1.00  0.00    -0.171 A  
HETATM   19  C   UNL     1      -9.157  13.935  66.961  1.00  0.00    -0.259 A  
HETATM   20  C   UNL     1      -7.914  15.972  67.371  1.00  0.00    -0.184 A  
HETATM   21  C   UNL     1      -8.955  15.303  66.731  1.00  0.00    -0.291 A  
HETATM   22  C   UNL     1      -7.272  13.910  68.448  1.00  0.00    -0.110 A  
HETATM   23  C   UNL     1      -7.077  15.277  68.236  1.00  0.00    -0.117 A  
BRANCH  21  24
HETATM   24  C   UNL     1      -9.787  16.021  65.813  1.00  0.00    -0.357 C  
HETATM   25  C   UNL     1     -10.460  16.596  65.001  1.00  0.00     0.002 C  
ENDBRANCH  21  24
ENDBRANCH  16  18
ENDBRANCH  11  16
BRANCH  13  26
HETATM   26  O   UNL     1      -6.890   6.967  68.038  1.00  0.00    -0.068 OA 
BRANCH  26  27
HETATM   27  C   UNL     1      -6.998   5.607  67.621  1.00  0.00    -0.066 C  
BRANCH  27  28
HETATM   28  C   UNL     1      -7.700   5.502  66.271  1.00  0.00    -0.099 C  
BRANCH  28  29
HETATM   29  O   UNL     1      -8.959   4.857  66.482  1.00  0.00    -0.111 OA 
HETATM   30  C   UNL     1      -9.356   4.079  65.364  1.00  0.00    -0.162 C  
ENDBRANCH  28  29
ENDBRANCH  27  28
ENDBRANCH  26  27
ENDBRANCH  13  26
ENDBRANCH   5   6
ENDBRANCH   4   5
ENDBRANCH   3   4
ENDBRANCH   2   3
TORSDOF 11
ENDMDL
MODEL      253
REMARK 921   NORMALIZED FREE ENERGY PREDICTED BY IDOCK:   -1.54 KCAL/MOL
REMARK 922        TOTAL FREE ENERGY PREDICTED BY IDOCK:   -3.66 KCAL/MOL
REMARK 923 INTER-LIGAND FREE ENERGY PREDICTED BY IDOCK:   -2.42 KCAL/MOL
REMARK 924 INTRA-LIGAND FREE ENERGY PREDICTED BY IDOCK:   -1.24 KCAL/MOL
REMARK 927      BINDING AFFINITY PREDICTED BY RF-SCORE:    0.00 PKD
ROOT
HETATM    1  C   UNL     1      -6.207  11.291  71.035  1.00  0.00     0.603 C  
HETATM    2  O   UNL     1      -6.606  10.161  70.267  1.00  0.00    -0.107 OA 
ENDROOT
BRANCH   2   3
HETATM    3  C   UNL     1      -7.340   9.235  71.063  1.00  0.00    -0.069 C  
BRANCH   3   4
HETATM    4  C   UNL     1      -8.837   9.403  70.821  1.00  0.00    -0.171 C  
BRANCH   4   5
HETATM    5  O   UNL     1      -9.442   8.141  71.078  1.00  0.00    -0.150 OA 
BRANCH   5   6
HETATM    6  C   UNL     1      -9.502   7.190  70.105  1.00  0.00    -0.161 A  
HETATM    7  C   UNL     1     -10.239   7.358  68.926  1.00  0.00    -0.200 A  
HETATM    8  C   UNL     1     -10.312   6.377  67.949  1.00  0.00    -0.190 A  
HETATM    9  C   UNL     1      -9.598   5.183  68.116  1.00  0.00    -0.173 A  
HETATM   10  C   UNL     1      -8.825   5.019  69.298  1.00  0.00    -0.115 A  
HETATM   11  C   UNL     1      -9.724   4.252  67.059  1.00  0.00    -0.206 A  
HETATM   12  N   UNL     1     -10.511   4.502  65.995  1.00  0.00    -0.258 NA 
HETATM   13  C   UNL     1      -8.787   6.000  70.299  1.00  0.00    -0.144 A  
HETATM   14  N   UNL     1     -11.072   6.632  66.884  1.00  0.00    -0.364 NA 
HETATM   15  C   UNL     1     -11.143   5.676  65.959  1.00  0.00     0.504 A  
BRANCH  11  16
HETATM   16  N   UNL     1      -8.957   3.057  67.083  1.00  0.00    -0.145 NA 
HETATM   17  H   UNL     1      -9.395   2.273  67.565  1.00  0.00     0.000 HD 
BRANCH  16  18
HETATM   18  C   UNL     1      -7.677   2.788  66.539  1.00  0.00    -0.076 A  
HETATM   19  C   UNL     1      -7.302   3.404  65.332  1.00  0.00    -0.075 A  
HETATM   20  C   UNL     1      -5.252   2.117  65.251  1.00  0.00    -0.005 A  
HETATM   21  C   UNL     1      -6.101   3.069  64.691  1.00  0.00    -0.022 A  
HETATM   22  C   UNL     1      -6.809   1.826  67.073  1.00  0.00    -0.039 A  
HETATM   23  C   UNL     1      -5.603   1.500  66.447  1.00  0.00    -0.013 A  
BRANCH  21  24
HETATM   24  C   UNL     1      -5.747   3.669  63.440  1.00  0.00    -0.013 C  
HETATM   25  C   UNL     1      -5.404   4.192  62.415  1.00  0.00    -0.009 C  
ENDBRANCH  21  24
ENDBRANCH  16  18
ENDBRANCH  11  16
BRANCH  13  26
HETATM   26  O   UNL     1      -8.018   5.629  71.379  1.00  0.00    -0.108 OA 
BRANCH  26  27
HETATM   27  C   UNL     1      -8.606   4.755  72.342  1.00  0.00    -0.119 C  
BRANCH  27  28
HETATM   28  C   UNL     1      -9.334   5.544  73.425  1.00  0.00    -0.138 C  
BRANCH  28  29
HETATM   29  O   UNL     1     -10.735   5.488  73.140  1.00  0.00    -0.228 OA 
HETATM   30  C   UNL     1     -11.307   4.243  73.509  1.00  0.00    -0.226 C  
ENDBRANCH  28  29
ENDBRANCH  27  28
ENDBRANCH  26  27
ENDBRANCH  13  26
ENDBRANCH   5   6
ENDBRANCH   4   5
ENDBRANCH   3   4
ENDBRANCH   2   3
TORSDOF 11
ENDMDL
MODEL      254
REMARK 921   NORMALIZED FREE ENERGY PREDICTED BY IDOCK:   -1.49 KCAL/MOL
REMARK 922        TOTAL FREE ENERGY PREDICTED BY IDOCK:   -3.59 KCAL/MOL
REMARK 923 INTER-LIGAND FREE ENERGY PREDICTED BY IDOCK:   -5.11 KCAL/MOL
REMARK 924 INTRA-LIGAND FREE ENERGY PREDICTED BY IDOCK:    1.53 KCAL/MOL
REMARK 927      BINDING AFFINITY PREDICTED BY RF-SCORE:    0.00 PKD
ROOT
HETATM    1  C   UNL     1      -8.280  17.985  68.153  1.00  0.00    -0.271 C  
HETATM    2  O   UNL     1      -9.518  18.682  68.244  1.00  0.00    -0.309 OA 
ENDROOT
BRANCH   2   3
HETATM    3  C   UNL     1     -10.545  17.994  67.536  1.00  0.00    -0.388 C  
BRANCH   3   4
HETATM    4  C   UNL     1      -9.944  17.183  66.391  1.00  0.00    -0.306 C  
BRANCH   4   5
HETATM    5  O   UNL     1     -10.815  16.080  66.164  1.00  0.00    -0.281 OA 
BRANCH   5   6
HETATM    6  C   UNL     1     -10.486  14.835  66.605  1.00  0.00    -0.286 A  
HETATM    7  C   UNL     1     -11.445  13.876  66.953  1.00  0.00    -0.370 A  
HETATM    8  C   UNL     1     -11.102  12.617  67.421  1.00  0.00    -0.273 A  
HETATM    9  C   UNL     1      -9.750  12.262  67.519  1.00  0.00    -0.190 A  
HETATM   10  C   UNL     1      -8.772  13.222  67.139  1.00  0.00    -0.215 A  
HETATM   11  C   UNL     1      -9.502  10.952  67.991  1.00  0.00    -0.163 A  
HETATM   12  N   UNL     1     -10.510  10.135  68.351  1.00  0.00    -0.196 NA 
HETATM   13  C   UNL     1      -9.126  14.506  66.704  1.00  0.00    -0.251 A  
HETATM   14  N   UNL     1     -12.099  11.798  67.755  1.00  0.00    -0.560 NA 
HETATM   15  C   UNL     1     -11.755  10.595  68.214  1.00  0.00    -0.057 A  
BRANCH  11  16
HETATM   16  N   UNL     1      -8.171  10.460  68.026  1.00  0.00    -0.113 NA 
HETATM   17  H   UNL     1      -7.565  10.799  67.279  1.00  0.00     0.000 HD 
BRANCH  16  18
HETATM   18  C   UNL     1      -7.555   9.571  68.940  1.00  0.00    -0.075 A  
HETATM   19  C   UNL     1      -7.332   8.238  68.555  1.00  0.00    -0.093 A  
HETATM   20  C   UNL     1      -6.568   7.667  70.782  1.00  0.00    -0.038 A  
HETATM   21  C   UNL     1      -6.846   7.291  69.469  1.00  0.00    -0.050 A  
HETATM   22  C   UNL     1      -7.279   9.917  70.270  1.00  0.00    -0.160 A  
HETATM   23  C   UNL     1      -6.778   8.982  71.181  1.00  0.00    -0.090 A  
BRANCH  21  24
HETATM   24  C   UNL     1      -6.662   5.925  69.080  1.00  0.00    -0.060 C  
HETATM   25  C   UNL     1      -6.453   4.790  68.751  1.00  0.00    -0.037 C  
ENDBRANCH  21  24
ENDBRANCH  16  18
ENDBRANCH  11  16
BRANCH  13  26
HETATM   26  O   UNL     1      -8.032  15.296  66.428  1.00  0.00     0.034 OA 
BRANCH  26  27
HETATM   27  C   UNL     1      -7.309  15.835  67.533  1.00  0.00    -0.178 C  
BRANCH  27  28
HETATM   28  C   UNL     1      -5.809  15.836  67.258  1.00  0.00     0.071 C  
BRANCH  28  29
HETATM   29  O   UNL     1      -5.171  15.102  68.308  1.00  0.00    -0.099 OA 
HETATM   30  C   UNL     1      -5.311  13.701  68.142  1.00  0.00    -0.109 C  
ENDBRANCH  28  29
ENDBRANCH  27  28
ENDBRANCH  26  27
ENDBRANCH  13  26
ENDBRANCH   5   6
ENDBRANCH   4   5
ENDBRANCH   3   4
ENDBRANCH   2   3
TORSDOF 11
ENDMDL
MODEL      255
REMARK 921   NORMALIZED FREE ENERGY PREDICTED BY IDOCK:   -1.48 KCAL/MOL
REMARK 922        TOTAL FREE ENERGY PREDICTED BY IDOCK:   -3.57 KCAL/MOL
REMARK 923 INTER-LIGAND FREE ENERGY PREDICTED BY IDOCK:   -3.77 KCAL/MOL
REMARK 924 INTRA-LIGAND FREE ENERGY PREDICTED BY IDOCK:    0.20 KCAL/MOL
REMARK 927      BINDING AFFINITY PREDICTED BY RF-SCORE:    0.00 PKD
ROOT
HETATM    1  C   UNL     1     -11.973   9.830  69.565  1.00  0.00     0.368 C  
HETATM    2  O   UNL     1     -10.940  10.449  68.807  1.00  0.00    -0.218 OA 
ENDROOT
BRANCH   2   3
HETATM    3  C   UNL     1     -11.395  11.667  68.222  1.00  0.00    -0.285 C  
BRANCH   3   4
HETATM    4  C   UNL     1     -11.076  11.685  66.729  1.00  0.00    -0.309 C  
BRANCH   4   5
HETATM    5  O   UNL     1     -11.610  12.897  66.208  1.00  0.00    -0.333 OA 
BRANCH   5   6
HETATM    6  C   UNL     1     -10.965  14.080  66.405  1.00  0.00    -0.308 A  
HETATM    7  C   UNL     1     -11.590  15.199  66.967  1.00  0.00    -0.179 A  
HETATM    8  C   UNL     1     -10.933  16.407  67.145  1.00  0.00    -0.082 A  
HETATM    9  C   UNL     1      -9.582  16.516  66.789  1.00  0.00    -0.268 A  
HETATM   10  C   UNL     1      -8.934  15.374  66.245  1.00  0.00    -0.341 A  
HETATM   11  C   UNL     1      -8.996  17.782  67.023  1.00  0.00    -0.252 A  
HETATM   12  N   UNL     1      -9.716  18.806  67.519  1.00  0.00    -0.300 NA 
HETATM   13  C   UNL     1      -9.617  14.168  66.032  1.00  0.00    -0.225 A  
HETATM   14  N   UNL     1     -11.638  17.416  67.657  1.00  0.00     0.650 NA 
HETATM   15  C   UNL     1     -10.997  18.574  67.812  1.00  0.00    -0.107 A  
BRANCH  11  16
HETATM   16  N   UNL     1      -7.607  17.964  66.795  1.00  0.00    -0.205 NA 
HETATM   17  H   UNL     1      -7.188  17.309  66.136  1.00  0.00     0.000 HD 
BRANCH  16  18
HETATM   18  C   UNL     1      -6.714  18.916  67.344  1.00  0.00    -0.199 A  
HETATM   19  C   UNL     1      -6.609  19.034  68.741  1.00  0.00    -0.301 A  
HETATM   20  C   UNL     1      -5.153  20.957  68.523  1.00  0.00    -0.321 A  
HETATM   21  C   UNL     1      -5.838  20.048  69.327  1.00  0.00    -0.319 A  
HETATM   22  C   UNL     1      -6.023  19.852  66.561  1.00  0.00    -0.178 A  
HETATM   23  C   UNL     1      -5.239  20.854  67.139  1.00  0.00    -0.238 A  
BRANCH  21  24
HETATM   24  C   UNL     1      -5.773  20.187  70.751  1.00  0.00    -0.346 C  
HETATM   25  C   UNL     1      -5.667  20.279  71.943  1.00  0.00    -0.311 C  
ENDBRANCH  21  24
ENDBRANCH  16  18
ENDBRANCH  11  16
BRANCH  13  26
HETATM   26  O   UNL     1      -8.823  13.201  65.456  1.00  0.00     0.742 OA 
BRANCH  26  27
HETATM   27  C   UNL     1      -8.127  12.310  66.328  1.00  0.00     0.431 C  
BRANCH  27  28
HETATM   28  C   UNL     1      -7.282  13.081  67.337  1.00  0.00    -0.116 C  
BRANCH  28  29
HETATM   29  O   UNL     1      -7.441  12.450  68.612  1.00  0.00    -0.111 OA 
HETATM   30  C   UNL     1      -6.279  12.569  69.416  1.00  0.00    -0.113 C  
ENDBRANCH  28  29
ENDBRANCH  27  28
ENDBRANCH  26  27
ENDBRANCH  13  26
ENDBRANCH   5   6
ENDBRANCH   4   5
ENDBRANCH   3   4
ENDBRANCH   2   3
TORSDOF 11
ENDMDL
MODEL      256
REMARK 921   NORMALIZED FREE ENERGY PREDICTED BY IDOCK:   -1.47 KCAL/MOL
REMARK 922        TOTAL FREE ENERGY PREDICTED BY IDOCK:   -3.55 KCAL/MOL
REMARK 923 INTER-LIGAND FREE ENERGY PREDICTED BY IDOCK:   -2.34 KCAL/MOL
REMARK 924 INTRA-LIGAND FREE ENERGY PREDICTED BY IDOCK:   -1.21 KCAL/MOL
REMARK 927      BINDING AFFINITY PREDICTED BY RF-SCORE:    0.00 PKD
ROOT
HETATM    1  C   UNL     1      -8.331  19.544  65.236  1.00  0.00     1.057 C  
HETATM    2  O   UNL     1      -6.999  19.885  65.601  1.00  0.00    -0.279 OA 
ENDROOT
BRANCH   2   3
HETATM    3  C   UNL     1      -6.651  19.318  66.861  1.00  0.00    -0.194 C  
BRANCH   3   4
HETATM    4  C   UNL     1      -6.704  17.794  66.785  1.00  0.00    -0.190 C  
BRANCH   4   5
HETATM    5  O   UNL     1      -7.231  17.337  68.025  1.00  0.00    -0.181 OA 
BRANCH   5   6
HETATM    6  C   UNL     1      -7.207  16.013  68.343  1.00  0.00    -0.126 A  
HETATM    7  C   UNL     1      -6.203  15.442  69.133  1.00  0.00    -0.110 A  
HETATM    8  C   UNL     1      -6.173  14.089  69.436  1.00  0.00    -0.108 A  
HETATM    9  C   UNL     1      -7.201  13.257  68.972  1.00  0.00    -0.007 A  
HETATM   10  C   UNL     1      -8.239  13.837  68.194  1.00  0.00    -0.160 A  
HETATM   11  C   UNL     1      -7.091  11.898  69.347  1.00  0.00     0.055 A  
HETATM   12  N   UNL     1      -6.044  11.451  70.065  1.00  0.00    -0.133 NA 
HETATM   13  C   UNL     1      -8.240  15.198  67.860  1.00  0.00    -0.146 A  
HETATM   14  N   UNL     1      -5.150  13.650  70.168  1.00  0.00    -0.091 NA 
HETATM   15  C   UNL     1      -5.129  12.345  70.441  1.00  0.00    -0.103 A  
BRANCH  11  16
HETATM   16  N   UNL     1      -8.135  10.994  69.017  1.00  0.00    -0.262 NA 
HETATM   17  H   UNL     1      -8.951  11.036  69.626  1.00  0.00     0.000 HD 
BRANCH  16  18
HETATM   18  C   UNL     1      -8.216  10.043  67.970  1.00  0.00    -0.116 A  
HETATM   19  C   UNL     1      -8.120  10.480  66.637  1.00  0.00    -0.127 A  
HETATM   20  C   UNL     1      -8.621   8.257  65.816  1.00  0.00    -0.182 A  
HETATM   21  C   UNL     1      -8.324   9.596  65.568  1.00  0.00    -0.143 A  
HETATM   22  C   UNL     1      -8.527   8.694  68.188  1.00  0.00    -0.131 A  
HETATM   23  C   UNL     1      -8.715   7.804  67.127  1.00  0.00    -0.125 A  
BRANCH  21  24
HETATM   24  C   UNL     1      -8.267  10.060  64.214  1.00  0.00    -0.166 C  
HETATM   25  C   UNL     1      -8.268  10.421  63.069  1.00  0.00    -0.160 C  
ENDBRANCH  21  24
ENDBRANCH  16  18
ENDBRANCH  11  16
BRANCH  13  26
HETATM   26  O   UNL     1      -9.307  15.550  67.064  1.00  0.00    -0.211 OA 
BRANCH  26  27
HETATM   27  C   UNL     1     -10.605  15.109  67.462  1.00  0.00    -0.269 C  
BRANCH  27  28
HETATM   28  C   UNL     1     -11.657  15.499  66.430  1.00  0.00     0.201 C  
BRANCH  28  29
HETATM   29  O   UNL     1     -10.996  15.657  65.170  1.00  0.00    -0.384 OA 
HETATM   30  C   UNL     1     -11.366  16.862  64.520  1.00  0.00     0.450 C  
ENDBRANCH  28  29
ENDBRANCH  27  28
ENDBRANCH  26  27
ENDBRANCH  13  26
ENDBRANCH   5   6
ENDBRANCH   4   5
ENDBRANCH   3   4
ENDBRANCH   2   3
TORSDOF 11
ENDMDL
MODEL      257
REMARK 921   NORMALIZED FREE ENERGY PREDICTED BY IDOCK:   -1.29 KCAL/MOL
REMARK 922        TOTAL FREE ENERGY PREDICTED BY IDOCK:   -3.26 KCAL/MOL
REMARK 923 INTER-LIGAND FREE ENERGY PREDICTED BY IDOCK:   -6.41 KCAL/MOL
REMARK 924 INTRA-LIGAND FREE ENERGY PREDICTED BY IDOCK:    3.15 KCAL/MOL
REMARK 927      BINDING AFFINITY PREDICTED BY RF-SCORE:    0.00 PKD
ROOT
HETATM    1  C   UNL     1     -11.796  14.979  63.589  1.00  0.00     0.738 C  
HETATM    2  O   UNL     1     -12.791  14.337  64.377  1.00  0.00    -0.619 OA 
ENDROOT
BRANCH   2   3
HETATM    3  C   UNL     1     -12.394  13.014  64.725  1.00  0.00    -0.436 C  
BRANCH   3   4
HETATM    4  C   UNL     1     -10.874  12.933  64.840  1.00  0.00    -0.308 C  
BRANCH   4   5
HETATM    5  O   UNL     1     -10.399  14.268  64.975  1.00  0.00    -0.397 OA 
BRANCH   5   6
HETATM    6  C   UNL     1     -10.428  14.895  66.183  1.00  0.00    -0.306 A  
HETATM    7  C   UNL     1     -10.274  16.280  66.321  1.00  0.00    -0.339 A  
HETATM    8  C   UNL     1     -10.284  16.910  67.557  1.00  0.00    -0.295 A  
HETATM    9  C   UNL     1     -10.493  16.151  68.716  1.00  0.00    -0.264 A  
HETATM   10  C   UNL     1     -10.679  14.748  68.578  1.00  0.00    -0.247 A  
HETATM   11  C   UNL     1     -10.503  16.885  69.924  1.00  0.00     0.019 A  
HETATM   12  N   UNL     1     -10.285  18.214  69.938  1.00  0.00     0.558 NA 
HETATM   13  C   UNL     1     -10.629  14.114  67.329  1.00  0.00    -0.277 A  
HETATM   14  N   UNL     1     -10.093  18.229  67.571  1.00  0.00    -0.333 NA 
HETATM   15  C   UNL     1     -10.094  18.819  68.766  1.00  0.00    -0.354 A  
BRANCH  11  16
HETATM   16  N   UNL     1     -10.811  16.225  71.143  1.00  0.00     0.222 NA 
HETATM   17  H   UNL     1     -10.146  16.382  71.899  1.00  0.00     0.000 HD 
BRANCH  16  18
HETATM   18  C   UNL     1     -11.902  15.382  71.468  1.00  0.00    -0.387 A  
HETATM   19  C   UNL     1     -11.762  13.991  71.318  1.00  0.00     0.138 A  
HETATM   20  C   UNL     1     -14.100  13.646  71.849  1.00  0.00    -0.336 A  
HETATM   21  C   UNL     1     -12.853  13.129  71.503  1.00  0.00    -0.401 A  
HETATM   22  C   UNL     1     -13.171  15.874  71.805  1.00  0.00    -0.318 A  
HETATM   23  C   UNL     1     -14.257  15.018  72.008  1.00  0.00    -0.649 A  
BRANCH  21  24
HETATM   24  C   UNL     1     -12.712  11.718  71.305  1.00  0.00    -0.420 C  
HETATM   25  C   UNL     1     -12.641  10.527  71.169  1.00  0.00    -0.520 C  
ENDBRANCH  21  24
ENDBRANCH  16  18
ENDBRANCH  11  16
BRANCH  13  26
HETATM   26  O   UNL     1     -10.788  12.749  67.418  1.00  0.00    -0.233 OA 
BRANCH  26  27
HETATM   27  C   UNL     1     -10.034  12.058  68.413  1.00  0.00    -0.208 C  
BRANCH  27  28
HETATM   28  C   UNL     1     -10.174  10.548  68.255  1.00  0.00    -0.163 C  
BRANCH  28  29
HETATM   29  O   UNL     1      -9.082   9.933  68.945  1.00  0.00    -0.142 OA 
HETATM   30  C   UNL     1      -7.927  10.757  68.961  1.00  0.00    -0.137 C  
ENDBRANCH  28  29
ENDBRANCH  27  28
ENDBRANCH  26  27
ENDBRANCH  13  26
ENDBRANCH   5   6
ENDBRANCH   4   5
ENDBRANCH   3   4
ENDBRANCH   2   3
TORSDOF 11
ENDMDL
MODEL      258
REMARK 921   NORMALIZED FREE ENERGY PREDICTED BY IDOCK:   -1.14 KCAL/MOL
REMARK 922        TOTAL FREE ENERGY PREDICTED BY IDOCK:   -3.01 KCAL/MOL
REMARK 923 INTER-LIGAND FREE ENERGY PREDICTED BY IDOCK:   -3.49 KCAL/MOL
REMARK 924 INTRA-LIGAND FREE ENERGY PREDICTED BY IDOCK:    0.48 KCAL/MOL
REMARK 927      BINDING AFFINITY PREDICTED BY RF-SCORE:    0.00 PKD
ROOT
HETATM    1  C   UNL     1     -10.276   6.464  73.688  1.00  0.00    -0.269 C  
HETATM    2  O   UNL     1      -9.497   6.736  72.528  1.00  0.00    -0.141 OA 
ENDROOT
BRANCH   2   3
HETATM    3  C   UNL     1      -8.365   5.874  72.459  1.00  0.00    -0.116 C  
BRANCH   3   4
HETATM    4  C   UNL     1      -8.597   4.782  71.418  1.00  0.00    -0.116 C  
BRANCH   4   5
HETATM    5  O   UNL     1      -8.154   5.301  70.169  1.00  0.00    -0.084 OA 
BRANCH   5   6
HETATM    6  C   UNL     1      -8.593   6.510  69.725  1.00  0.00    -0.136 A  
HETATM    7  C   UNL     1      -9.886   6.986  69.976  1.00  0.00    -0.181 A  
HETATM    8  C   UNL     1     -10.333   8.210  69.503  1.00  0.00    -0.222 A  
HETATM    9  C   UNL     1      -9.459   9.030  68.777  1.00  0.00    -0.148 A  
HETATM   10  C   UNL     1      -8.136   8.565  68.544  1.00  0.00    -0.122 A  
HETATM   11  C   UNL     1     -10.002  10.264  68.352  1.00  0.00    -0.157 A  
HETATM   12  N   UNL     1     -11.284  10.590  68.605  1.00  0.00    -0.268 NA 
HETATM   13  C   UNL     1      -7.704   7.309  68.992  1.00  0.00    -0.112 A  
HETATM   14  N   UNL     1     -11.594   8.545  69.773  1.00  0.00     0.255 NA 
HETATM   15  C   UNL     1     -12.014   9.719  69.303  1.00  0.00     0.545 A  
BRANCH  11  16
HETATM   16  N   UNL     1      -9.167  11.210  67.702  1.00  0.00    -0.149 NA 
HETATM   17  H   UNL     1      -8.297  10.833  67.327  1.00  0.00     0.000 HD 
BRANCH  16  18
HETATM   18  C   UNL     1      -9.358  12.598  67.493  1.00  0.00    -0.188 A  
HETATM   19  C   UNL     1     -10.220  13.025  66.467  1.00  0.00    -0.270 A  
HETATM   20  C   UNL     1      -9.603  15.337  66.837  1.00  0.00    -0.245 A  
HETATM   21  C   UNL     1     -10.339  14.383  66.139  1.00  0.00    -0.305 A  
HETATM   22  C   UNL     1      -8.620  13.580  68.169  1.00  0.00    -0.173 A  
HETATM   23  C   UNL     1      -8.748  14.936  67.859  1.00  0.00    -0.164 A  
BRANCH  21  24
HETATM   24  C   UNL     1     -11.187  14.804  65.064  1.00  0.00    -0.399 C  
HETATM   25  C   UNL     1     -11.860  15.135  64.127  1.00  0.00    -0.164 C  
ENDBRANCH  21  24
ENDBRANCH  16  18
ENDBRANCH  11  16
BRANCH  13  26
HETATM   26  O   UNL     1      -6.406   7.030  68.626  1.00  0.00    -0.032 OA 
BRANCH  26  27
HETATM   27  C   UNL     1      -5.360   7.699  69.331  1.00  0.00    -0.019 C  
BRANCH  27  28
HETATM   28  C   UNL     1      -5.308   7.249  70.788  1.00  0.00    -0.024 C  
BRANCH  28  29
HETATM   29  O   UNL     1      -5.877   8.291  71.587  1.00  0.00    -0.035 OA 
HETATM   30  C   UNL     1      -5.290   8.357  72.876  1.00  0.00    -0.048 C  
ENDBRANCH  28  29
ENDBRANCH  27  28
ENDBRANCH  26  27
ENDBRANCH  13  26
ENDBRANCH   5   6
ENDBRANCH   4   5
ENDBRANCH   3   4
ENDBRANCH   2   3
TORSDOF 11
ENDMDL
MODEL      259
REMARK 921   NORMALIZED FREE ENERGY PREDICTED BY IDOCK:   -0.58 KCAL/MOL
REMARK 922        TOTAL FREE ENERGY PREDICTED BY IDOCK:   -2.09 KCAL/MOL
REMARK 923 INTER-LIGAND FREE ENERGY PREDICTED BY IDOCK:   -1.65 KCAL/MOL
REMARK 924 INTRA-LIGAND FREE ENERGY PREDICTED BY IDOCK:   -0.44 KCAL/MOL
REMARK 927      BINDING AFFINITY PREDICTED BY RF-SCORE:    0.00 PKD
ROOT
HETATM    1  C   UNL     1      -5.187  11.537  70.821  1.00  0.00    -0.130 C  
HETATM    2  O   UNL     1      -5.709  10.289  70.381  1.00  0.00    -0.060 OA 
ENDROOT
BRANCH   2   3
HETATM    3  C   UNL     1      -6.429   9.639  71.424  1.00  0.00     0.115 C  
BRANCH   3   4
HETATM    4  C   UNL     1      -7.917   9.966  71.320  1.00  0.00     1.300 C  
BRANCH   4   5
HETATM    5  O   UNL     1      -8.625   8.781  71.666  1.00  0.00    -0.193 OA 
BRANCH   5   6
HETATM    6  C   UNL     1      -8.758   7.766  70.769  1.00  0.00    -0.134 A  
HETATM    7  C   UNL     1      -9.588   7.851  69.645  1.00  0.00    -0.164 A  
HETATM    8  C   UNL     1      -9.735   6.805  68.747  1.00  0.00    -0.132 A  
HETATM    9  C   UNL     1      -9.002   5.626  68.937  1.00  0.00    -0.115 A  
HETATM   10  C   UNL     1      -8.135   5.545  70.060  1.00  0.00    -0.090 A  
HETATM   11  C   UNL     1      -9.207   4.624  67.960  1.00  0.00    -0.127 A  
HETATM   12  N   UNL     1     -10.078   4.800  66.949  1.00  0.00    -0.216 NA 
HETATM   13  C   UNL     1      -8.023   6.592  70.985  1.00  0.00    -0.107 A  
HETATM   14  N   UNL     1     -10.579   6.986  67.732  1.00  0.00    -0.220 NA 
HETATM   15  C   UNL     1     -10.719   5.968  66.883  1.00  0.00    -0.334 A  
BRANCH  11  16
HETATM   16  N   UNL     1      -8.433   3.435  68.003  1.00  0.00    -0.087 NA 
HETATM   17  H   UNL     1      -8.502   2.906  68.872  1.00  0.00     0.000 HD 
BRANCH  16  18
HETATM   18  C   UNL     1      -7.581   2.869  67.024  1.00  0.00    -0.070 A  
HETATM   19  C   UNL     1      -8.081   2.642  65.729  1.00  0.00    -0.084 A  
HETATM   20  C   UNL     1      -6.038   1.513  65.081  1.00  0.00    -0.017 A  
HETATM   21  C   UNL     1      -7.317   1.967  64.766  1.00  0.00    -0.057 A  
HETATM   22  C   UNL     1      -6.296   2.391  67.315  1.00  0.00    -0.031 A  
HETATM   23  C   UNL     1      -5.524   1.732  66.355  1.00  0.00    -0.013 A  
BRANCH  21  24
HETATM   24  C   UNL     1      -7.851   1.702  63.463  1.00  0.00    -0.060 C  
HETATM   25  C   UNL     1      -8.346   1.504  62.388  1.00  0.00    -0.060 C  
ENDBRANCH  21  24
ENDBRANCH  16  18
ENDBRANCH  11  16
BRANCH  13  26
HETATM   26  O   UNL     1      -7.167   6.297  72.022  1.00  0.00    -0.087 OA 
BRANCH  26  27
HETATM   27  C   UNL     1      -7.730   5.732  73.206  1.00  0.00    -0.099 C  
BRANCH  27  28
HETATM   28  C   UNL     1      -6.850   6.014  74.419  1.00  0.00    -0.076 C  
BRANCH  28  29
HETATM   29  O   UNL     1      -6.400   7.369  74.328  1.00  0.00    -0.076 OA 
HETATM   30  C   UNL     1      -7.459   8.297  74.498  1.00  0.00    -0.224 C  
ENDBRANCH  28  29
ENDBRANCH  27  28
ENDBRANCH  26  27
ENDBRANCH  13  26
ENDBRANCH   5   6
ENDBRANCH   4   5
ENDBRANCH   3   4
ENDBRANCH   2   3
TORSDOF 11
ENDMDL
MODEL      260
REMARK 921   NORMALIZED FREE ENERGY PREDICTED BY IDOCK:   -0.52 KCAL/MOL
REMARK 922        TOTAL FREE ENERGY PREDICTED BY IDOCK:   -2.00 KCAL/MOL
REMARK 923 INTER-LIGAND FREE ENERGY PREDICTED BY IDOCK:   -1.57 KCAL/MOL
REMARK 924 INTRA-LIGAND FREE ENERGY PREDICTED BY IDOCK:   -0.43 KCAL/MOL
REMARK 927      BINDING AFFINITY PREDICTED BY RF-SCORE:    0.00 PKD
ROOT
HETATM    1  C   UNL     1      -5.908  13.720  73.469  1.00  0.00     0.342 C  
HETATM    2  O   UNL     1      -6.554  14.614  72.570  1.00  0.00     0.819 OA 
ENDROOT
BRANCH   2   3
HETATM    3  C   UNL     1      -6.533  14.105  71.239  1.00  0.00     0.514 C  
BRANCH   3   4
HETATM    4  C   UNL     1      -5.490  14.848  70.408  1.00  0.00    -0.132 C  
BRANCH   4   5
HETATM    5  O   UNL     1      -5.236  14.051  69.257  1.00  0.00    -0.082 OA 
BRANCH   5   6
HETATM    6  C   UNL     1      -5.801  12.820  69.127  1.00  0.00    -0.081 A  
HETATM    7  C   UNL     1      -5.286  11.679  69.754  1.00  0.00    -0.069 A  
HETATM    8  C   UNL     1      -5.855  10.424  69.601  1.00  0.00    -0.045 A  
HETATM    9  C   UNL     1      -7.011  10.282  68.822  1.00  0.00    -0.067 A  
HETATM   10  C   UNL     1      -7.556  11.442  68.206  1.00  0.00    -0.113 A  
HETATM   11  C   UNL     1      -7.525   8.968  68.739  1.00  0.00    -0.076 A  
HETATM   12  N   UNL     1      -6.908   7.934  69.343  1.00  0.00    -0.046 NA 
HETATM   13  C   UNL     1      -6.952  12.700  68.335  1.00  0.00    -0.094 A  
HETATM   14  N   UNL     1      -5.259   9.404  70.217  1.00  0.00    -0.027 NA 
HETATM   15  C   UNL     1      -5.810   8.202  70.051  1.00  0.00    -0.022 A  
BRANCH  11  16
HETATM   16  N   UNL     1      -8.751   8.736  68.062  1.00  0.00    -0.140 NA 
HETATM   17  H   UNL     1      -9.362   9.549  67.984  1.00  0.00     0.000 HD 
BRANCH  16  18
HETATM   18  C   UNL     1      -9.256   7.549  67.477  1.00  0.00    -0.128 A  
HETATM   19  C   UNL     1      -8.458   6.843  66.560  1.00  0.00    -0.125 A  
HETATM   20  C   UNL     1     -10.275   5.317  66.072  1.00  0.00    -0.167 A  
HETATM   21  C   UNL     1      -8.963   5.738  65.860  1.00  0.00    -0.158 A  
HETATM   22  C   UNL     1     -10.575   7.110  67.661  1.00  0.00    -0.318 A  
HETATM   23  C   UNL     1     -11.079   5.999  66.979  1.00  0.00    -0.263 A  
BRANCH  21  24
HETATM   24  C   UNL     1      -8.157   5.052  64.896  1.00  0.00    -0.112 C  
HETATM   25  C   UNL     1      -7.437   4.483  64.122  1.00  0.00    -0.070 C  
ENDBRANCH  21  24
ENDBRANCH  16  18
ENDBRANCH  11  16
BRANCH  13  26
HETATM   26  O   UNL     1      -7.609  13.681  67.626  1.00  0.00    -0.149 OA 
BRANCH  26  27
HETATM   27  C   UNL     1      -8.568  13.267  66.655  1.00  0.00     0.072 C  
BRANCH  27  28
HETATM   28  C   UNL     1      -9.587  14.369  66.386  1.00  0.00    -0.299 C  
BRANCH  28  29
HETATM   29  O   UNL     1     -10.892  13.795  66.496  1.00  0.00    -0.286 OA 
HETATM   30  C   UNL     1     -10.942  12.762  67.467  1.00  0.00    -0.249 C  
ENDBRANCH  28  29
ENDBRANCH  27  28
ENDBRANCH  26  27
ENDBRANCH  13  26
ENDBRANCH   5   6
ENDBRANCH   4   5
ENDBRANCH   3   4
ENDBRANCH   2   3
TORSDOF 11
ENDMDL
MODEL      261
REMARK 921   NORMALIZED FREE ENERGY PREDICTED BY IDOCK:   -0.05 KCAL/MOL
REMARK 922        TOTAL FREE ENERGY PREDICTED BY IDOCK:   -1.23 KCAL/MOL
REMARK 923 INTER-LIGAND FREE ENERGY PREDICTED BY IDOCK:   -4.53 KCAL/MOL
REMARK 924 INTRA-LIGAND FREE ENERGY PREDICTED BY IDOCK:    3.30 KCAL/MOL
REMARK 927      BINDING AFFINITY PREDICTED BY RF-SCORE:    0.00 PKD
ROOT
HETATM    1  C   UNL     1      -8.775   8.703  65.860  1.00  0.00    -0.172 C  
HETATM    2  O   UNL     1      -9.964   9.142  66.508  1.00  0.00    -0.248 OA 
ENDROOT
BRANCH   2   3
HETATM    3  C   UNL     1      -9.820  10.474  66.993  1.00  0.00    -0.183 C  
BRANCH   3   4
HETATM    4  C   UNL     1     -10.358  10.575  68.418  1.00  0.00    -0.176 C  
BRANCH   4   5
HETATM    5  O   UNL     1     -11.098   9.386  68.666  1.00  0.00    -0.089 OA 
BRANCH   5   6
HETATM    6  C   UNL     1     -10.482   8.172  68.662  1.00  0.00    -0.165 A  
HETATM    7  C   UNL     1     -10.611   7.260  67.608  1.00  0.00    -0.316 A  
HETATM    8  C   UNL     1      -9.996   6.017  67.621  1.00  0.00    -0.135 A  
HETATM    9  C   UNL     1      -9.183   5.661  68.704  1.00  0.00    -0.134 A  
HETATM   10  C   UNL     1      -9.025   6.595  69.764  1.00  0.00    -0.143 A  
HETATM   11  C   UNL     1      -8.588   4.381  68.618  1.00  0.00    -0.092 A  
HETATM   12  N   UNL     1      -8.832   3.564  67.575  1.00  0.00    -0.115 NA 
HETATM   13  C   UNL     1      -9.680   7.834  69.762  1.00  0.00    -0.176 A  
HETATM   14  N   UNL     1     -10.218   5.216  66.579  1.00  0.00    -0.236 NA 
HETATM   15  C   UNL     1      -9.631   4.020  66.609  1.00  0.00    -0.209 A  
BRANCH  11  16
HETATM   16  N   UNL     1      -7.664   3.969  69.613  1.00  0.00    -0.053 NA 
HETATM   17  H   UNL     1      -6.720   3.781  69.275  1.00  0.00     0.000 HD 
BRANCH  16  18
HETATM   18  C   UNL     1      -7.851   3.779  71.004  1.00  0.00    -0.062 A  
HETATM   19  C   UNL     1      -9.024   3.152  71.459  1.00  0.00    -0.151 A  
HETATM   20  C   UNL     1      -8.427   3.588  73.765  1.00  0.00    -0.082 A  
HETATM   21  C   UNL     1      -9.313   3.060  72.828  1.00  0.00    -0.135 A  
HETATM   22  C   UNL     1      -6.985   4.312  71.970  1.00  0.00    -0.046 A  
HETATM   23  C   UNL     1      -7.258   4.207  73.336  1.00  0.00    -0.070 A  
BRANCH  21  24
HETATM   24  C   UNL     1     -10.531   2.458  73.280  1.00  0.00    -0.228 C  
HETATM   25  C   UNL     1     -11.525   1.905  73.665  1.00  0.00    -0.317 C  
ENDBRANCH  21  24
ENDBRANCH  16  18
ENDBRANCH  11  16
BRANCH  13  26
HETATM   26  O   UNL     1      -9.431   8.571  70.898  1.00  0.00    -0.160 OA 
BRANCH  26  27
HETATM   27  C   UNL     1     -10.368   8.473  71.970  1.00  0.00    -0.338 C  
BRANCH  27  28
HETATM   28  C   UNL     1     -11.443   7.435  71.664  1.00  0.00    -0.263 C  
BRANCH  28  29
HETATM   29  O   UNL     1     -10.950   6.159  72.083  1.00  0.00    -0.237 OA 
HETATM   30  C   UNL     1     -11.481   5.766  73.338  1.00  0.00     0.200 C  
ENDBRANCH  28  29
ENDBRANCH  27  28
ENDBRANCH  26  27
ENDBRANCH  13  26
ENDBRANCH   5   6
ENDBRANCH   4   5
ENDBRANCH   3   4
ENDBRANCH   2   3
TORSDOF 11
ENDMDL
MODEL      262
REMARK 921   NORMALIZED FREE ENERGY PREDICTED BY IDOCK:   -0.03 KCAL/MOL
REMARK 922        TOTAL FREE ENERGY PREDICTED BY IDOCK:   -1.18 KCAL/MOL
REMARK 923 INTER-LIGAND FREE ENERGY PREDICTED BY IDOCK:   -1.03 KCAL/MOL
REMARK 924 INTRA-LIGAND FREE ENERGY PREDICTED BY IDOCK:   -0.15 KCAL/MOL
REMARK 927      BINDING AFFINITY PREDICTED BY RF-SCORE:    0.00 PKD
ROOT
HETATM    1  C   UNL     1      -5.909  13.614  74.244  1.00  0.00     0.176 C  
HETATM    2  O   UNL     1      -6.539  14.516  73.342  1.00  0.00     0.700 OA 
ENDROOT
BRANCH   2   3
HETATM    3  C   UNL     1      -6.496  14.018  72.008  1.00  0.00     1.468 C  
BRANCH   3   4
HETATM    4  C   UNL     1      -5.435  14.763  71.201  1.00  0.00    -0.122 C  
BRANCH   4   5
HETATM    5  O   UNL     1      -5.168  13.977  70.045  1.00  0.00    -0.089 OA 
BRANCH   5   6
HETATM    6  C   UNL     1      -5.744  12.754  69.890  1.00  0.00    -0.125 A  
HETATM    7  C   UNL     1      -5.254  11.601  70.515  1.00  0.00    -0.117 A  
HETATM    8  C   UNL     1      -5.834  10.354  70.336  1.00  0.00    -0.094 A  
HETATM    9  C   UNL     1      -6.975  10.233  69.533  1.00  0.00    -0.096 A  
HETATM   10  C   UNL     1      -7.495  11.406  68.919  1.00  0.00    -0.113 A  
HETATM   11  C   UNL     1      -7.502   8.925  69.425  1.00  0.00    -0.077 A  
HETATM   12  N   UNL     1      -6.908   7.879  70.029  1.00  0.00    -0.044 NA 
HETATM   13  C   UNL     1      -6.880  12.656  69.074  1.00  0.00    -0.083 A  
HETATM   14  N   UNL     1      -5.261   9.321  70.952  1.00  0.00    -0.028 NA 
HETATM   15  C   UNL     1      -5.821   8.126  70.762  1.00  0.00    -0.033 A  
BRANCH  11  16
HETATM   16  N   UNL     1      -8.717   8.715  68.721  1.00  0.00    -0.134 NA 
HETATM   17  H   UNL     1      -8.808   7.800  68.280  1.00  0.00     0.000 HD 
BRANCH  16  18
HETATM   18  C   UNL     1      -9.822   9.581  68.537  1.00  0.00    -0.158 A  
HETATM   19  C   UNL     1     -10.418  10.180  69.661  1.00  0.00    -0.282 A  
HETATM   20  C   UNL     1     -12.183  11.117  68.293  1.00  0.00     0.229 A  
HETATM   21  C   UNL     1     -11.591  10.939  69.542  1.00  0.00    -0.384 A  
HETATM   22  C   UNL     1     -10.447   9.768  67.296  1.00  0.00    -0.324 A  
HETATM   23  C   UNL     1     -11.606  10.537  67.168  1.00  0.00     0.546 A  
BRANCH  21  24
HETATM   24  C   UNL     1     -12.215  11.509  70.698  1.00  0.00    -0.473 C  
HETATM   25  C   UNL     1     -12.686  11.998  71.688  1.00  0.00    -0.326 C  
ENDBRANCH  21  24
ENDBRANCH  16  18
ENDBRANCH  11  16
BRANCH  13  26
HETATM   26  O   UNL     1      -7.512  13.652  68.364  1.00  0.00    -0.107 OA 
BRANCH  26  27
HETATM   27  C   UNL     1      -8.457  13.258  67.369  1.00  0.00    -0.206 C  
BRANCH  27  28
HETATM   28  C   UNL     1      -9.458  14.375  67.092  1.00  0.00    -0.222 C  
BRANCH  28  29
HETATM   29  O   UNL     1      -9.725  15.039  68.331  1.00  0.00    -0.205 OA 
HETATM   30  C   UNL     1     -10.999  15.663  68.339  1.00  0.00    -0.308 C  
ENDBRANCH  28  29
ENDBRANCH  27  28
ENDBRANCH  26  27
ENDBRANCH  13  26
ENDBRANCH   5   6
ENDBRANCH   4   5
ENDBRANCH   3   4
ENDBRANCH   2   3
TORSDOF 11
ENDMDL
MODEL      263
REMARK 921   NORMALIZED FREE ENERGY PREDICTED BY IDOCK:    0.64 KCAL/MOL
REMARK 922        TOTAL FREE ENERGY PREDICTED BY IDOCK:   -0.09 KCAL/MOL
REMARK 923 INTER-LIGAND FREE ENERGY PREDICTED BY IDOCK:    0.25 KCAL/MOL
REMARK 924 INTRA-LIGAND FREE ENERGY PREDICTED BY IDOCK:   -0.34 KCAL/MOL
REMARK 927      BINDING AFFINITY PREDICTED BY RF-SCORE:    0.00 PKD
ROOT
HETATM    1  C   UNL     1      -8.902  19.676  65.022  1.00  0.00     2.011 C  
HETATM    2  O   UNL     1      -7.750  20.152  64.336  1.00  0.00     0.496 OA 
ENDROOT
BRANCH   2   3
HETATM    3  C   UNL     1      -6.555  19.746  64.998  1.00  0.00    -0.250 C  
BRANCH   3   4
HETATM    4  C   UNL     1      -6.544  18.231  65.182  1.00  0.00     0.129 C  
BRANCH   4   5
HETATM    5  O   UNL     1      -6.472  17.986  66.582  1.00  0.00    -0.172 OA 
BRANCH   5   6
HETATM    6  C   UNL     1      -7.230  17.012  67.156  1.00  0.00    -0.172 A  
HETATM    7  C   UNL     1      -7.495  15.789  66.527  1.00  0.00     0.185 A  
HETATM    8  C   UNL     1      -8.285  14.809  67.109  1.00  0.00    -0.211 A  
HETATM    9  C   UNL     1      -8.814  15.020  68.389  1.00  0.00    -0.178 A  
HETATM   10  C   UNL     1      -8.523  16.248  69.045  1.00  0.00    -0.244 A  
HETATM   11  C   UNL     1      -9.592  13.958  68.904  1.00  0.00     0.028 A  
HETATM   12  N   UNL     1      -9.826  12.847  68.180  1.00  0.00    -0.223 NA 
HETATM   13  C   UNL     1      -7.756  17.249  68.433  1.00  0.00    -0.247 A  
HETATM   14  N   UNL     1      -8.498  13.699  66.404  1.00  0.00     0.338 NA 
HETATM   15  C   UNL     1      -9.269  12.771  66.970  1.00  0.00    -0.221 A  
BRANCH  11  16
HETATM   16  N   UNL     1     -10.084  14.029  70.233  1.00  0.00     0.760 NA 
HETATM   17  H   UNL     1      -9.397  13.831  70.960  1.00  0.00     0.000 HD 
BRANCH  16  18
HETATM   18  C   UNL     1     -11.384  14.335  70.705  1.00  0.00     0.095 A  
HETATM   19  C   UNL     1     -11.527  15.163  71.833  1.00  0.00    -0.457 A  
HETATM   20  C   UNL     1     -13.920  14.791  71.869  1.00  0.00    -0.577 A  
HETATM   21  C   UNL     1     -12.784  15.387  72.413  1.00  0.00    -0.467 A  
HETATM   22  C   UNL     1     -12.543  13.740  70.188  1.00  0.00    -0.253 A  
HETATM   23  C   UNL     1     -13.800  13.973  70.751  1.00  0.00     0.373 A  
BRANCH  21  24
HETATM   24  C   UNL     1     -12.914  16.197  73.587  1.00  0.00    -0.619 C  
HETATM   25  C   UNL     1     -13.033  16.920  74.538  1.00  0.00     0.746 C  
ENDBRANCH  21  24
ENDBRANCH  16  18
ENDBRANCH  11  16
BRANCH  13  26
HETATM   26  O   UNL     1      -7.629  18.375  69.215  1.00  0.00    -0.132 OA 
BRANCH  26  27
HETATM   27  C   UNL     1      -6.700  19.373  68.794  1.00  0.00    -0.303 C  
BRANCH  27  28
HETATM   28  C   UNL     1      -5.620  19.595  69.847  1.00  0.00    -0.244 C  
BRANCH  28  29
HETATM   29  O   UNL     1      -5.769  18.582  70.847  1.00  0.00    -0.153 OA 
HETATM   30  C   UNL     1      -5.442  19.057  72.143  1.00  0.00     0.211 C  
ENDBRANCH  28  29
ENDBRANCH  27  28
ENDBRANCH  26  27
ENDBRANCH  13  26
ENDBRANCH   5   6
ENDBRANCH   4   5
ENDBRANCH   3   4
ENDBRANCH   2   3
TORSDOF 11
ENDMDL
MODEL      264
REMARK 921   NORMALIZED FREE ENERGY PREDICTED BY IDOCK:    0.73 KCAL/MOL
REMARK 922        TOTAL FREE ENERGY PREDICTED BY IDOCK:    0.06 KCAL/MOL
REMARK 923 INTER-LIGAND FREE ENERGY PREDICTED BY IDOCK:   -3.92 KCAL/MOL
REMARK 924 INTRA-LIGAND FREE ENERGY PREDICTED BY IDOCK:    3.98 KCAL/MOL
REMARK 927      BINDING AFFINITY PREDICTED BY RF-SCORE:    0.00 PKD
ROOT
HETATM    1  C   UNL     1      -9.753  16.772  65.363  1.00  0.00     0.371 C  
HETATM    2  O   UNL     1      -9.399  15.485  64.868  1.00  0.00     0.277 OA 
ENDROOT
BRANCH   2   3
HETATM    3  C   UNL     1     -10.445  14.545  65.094  1.00  0.00    -0.416 C  
BRANCH   3   4
HETATM    4  C   UNL     1     -11.109  14.809  66.443  1.00  0.00    -0.340 C  
BRANCH   4   5
HETATM    5  O   UNL     1     -11.987  13.716  66.692  1.00  0.00    -0.378 OA 
BRANCH   5   6
HETATM    6  C   UNL     1     -11.621  12.711  67.534  1.00  0.00    -0.359 A  
HETATM    7  C   UNL     1     -12.486  12.178  68.498  1.00  0.00     0.708 A  
HETATM    8  C   UNL     1     -12.100  11.168  69.366  1.00  0.00    -0.326 A  
HETATM    9  C   UNL     1     -10.813  10.624  69.262  1.00  0.00    -0.282 A  
HETATM   10  C   UNL     1      -9.941  11.141  68.265  1.00  0.00    -0.196 A  
HETATM   11  C   UNL     1     -10.519   9.589  70.180  1.00  0.00    -0.255 A  
HETATM   12  N   UNL     1     -11.416   9.197  71.105  1.00  0.00    -0.293 NA 
HETATM   13  C   UNL     1     -10.326  12.189  67.417  1.00  0.00    -0.205 A  
HETATM   14  N   UNL     1     -12.994  10.763  70.267  1.00  0.00    -0.181 NA 
HETATM   15  C   UNL     1     -12.606   9.800  71.103  1.00  0.00    -0.345 A  
BRANCH  11  16
HETATM   16  N   UNL     1      -9.281   8.901  70.087  1.00  0.00    -0.169 NA 
HETATM   17  H   UNL     1      -9.355   7.903  69.892  1.00  0.00     0.000 HD 
BRANCH  16  18
HETATM   18  C   UNL     1      -7.958   9.388  70.223  1.00  0.00    -0.161 A  
HETATM   19  C   UNL     1      -7.516  10.417  69.372  1.00  0.00    -0.135 A  
HETATM   20  C   UNL     1      -5.265  10.246  70.249  1.00  0.00    -0.042 A  
HETATM   21  C   UNL     1      -6.179  10.841  69.382  1.00  0.00    -0.059 A  
HETATM   22  C   UNL     1      -7.013   8.801  71.075  1.00  0.00    -0.077 A  
HETATM   23  C   UNL     1      -5.683   9.230  71.102  1.00  0.00    -0.060 A  
BRANCH  21  24
HETATM   24  C   UNL     1      -5.728  11.859  68.482  1.00  0.00    -0.049 C  
HETATM   25  C   UNL     1      -5.302  12.683  67.720  1.00  0.00    -0.112 C  
ENDBRANCH  21  24
ENDBRANCH  16  18
ENDBRANCH  11  16
BRANCH  13  26
HETATM   26  O   UNL     1      -9.323  12.571  66.555  1.00  0.00    -0.234 OA 
BRANCH  26  27
HETATM   27  C   UNL     1      -8.105  13.049  67.125  1.00  0.00    -0.107 C  
BRANCH  27  28
HETATM   28  C   UNL     1      -8.126  14.567  67.269  1.00  0.00    -0.196 C  
BRANCH  28  29
HETATM   29  O   UNL     1      -7.504  14.897  68.514  1.00  0.00    -0.107 OA 
HETATM   30  C   UNL     1      -7.465  16.297  68.739  1.00  0.00    -0.195 C  
ENDBRANCH  28  29
ENDBRANCH  27  28
ENDBRANCH  26  27
ENDBRANCH  13  26
ENDBRANCH   5   6
ENDBRANCH   4   5
ENDBRANCH   3   4
ENDBRANCH   2   3
TORSDOF 11
ENDMDL
MODEL      265
REMARK 921   NORMALIZED FREE ENERGY PREDICTED BY IDOCK:    1.49 KCAL/MOL
REMARK 922        TOTAL FREE ENERGY PREDICTED BY IDOCK:    1.31 KCAL/MOL
REMARK 923 INTER-LIGAND FREE ENERGY PREDICTED BY IDOCK:    1.33 KCAL/MOL
REMARK 924 INTRA-LIGAND FREE ENERGY PREDICTED BY IDOCK:   -0.02 KCAL/MOL
REMARK 927      BINDING AFFINITY PREDICTED BY RF-SCORE:    0.00 PKD
ROOT
HETATM    1  C   UNL     1      -5.604  17.777  63.832  1.00  0.00     2.032 C  
HETATM    2  O   UNL     1      -5.261  19.146  64.016  1.00  0.00    -0.194 OA 
ENDROOT
BRANCH   2   3
HETATM    3  C   UNL     1      -5.149  19.464  65.400  1.00  0.00    -0.151 C  
BRANCH   3   4
HETATM    4  C   UNL     1      -6.282  20.397  65.819  1.00  0.00    -0.218 C  
BRANCH   4   5
HETATM    5  O   UNL     1      -6.872  19.834  66.985  1.00  0.00    -0.201 OA 
BRANCH   5   6
HETATM    6  C   UNL     1      -7.152  18.503  67.047  1.00  0.00    -0.197 A  
HETATM    7  C   UNL     1      -6.209  17.548  67.447  1.00  0.00    -0.158 A  
HETATM    8  C   UNL     1      -6.494  16.192  67.487  1.00  0.00    -0.172 A  
HETATM    9  C   UNL     1      -7.781  15.748  67.155  1.00  0.00    -0.255 A  
HETATM   10  C   UNL     1      -8.751  16.716  66.777  1.00  0.00    -0.256 A  
HETATM   11  C   UNL     1      -7.979  14.351  67.243  1.00  0.00    -0.180 A  
HETATM   12  N   UNL     1      -6.975  13.521  67.586  1.00  0.00    -0.161 NA 
HETATM   13  C   UNL     1      -8.443  18.081  66.701  1.00  0.00    -0.262 A  
HETATM   14  N   UNL     1      -5.509  15.372  67.850  1.00  0.00    -0.139 NA 
HETATM   15  C   UNL     1      -5.794  14.070  67.874  1.00  0.00    -0.122 A  
BRANCH  11  16
HETATM   16  N   UNL     1      -9.275  13.812  67.029  1.00  0.00    -0.242 NA 
HETATM   17  H   UNL     1     -10.021  14.257  67.563  1.00  0.00     0.000 HD 
BRANCH  16  18
HETATM   18  C   UNL     1      -9.690  12.751  66.188  1.00  0.00    -0.246 A  
HETATM   19  C   UNL     1      -9.169  11.463  66.401  1.00  0.00    -0.209 A  
HETATM   20  C   UNL     1     -10.263  10.632  64.407  1.00  0.00    -0.400 A  
HETATM   21  C   UNL     1      -9.449  10.412  65.516  1.00  0.00    -0.267 A  
HETATM   22  C   UNL     1     -10.495  12.945  65.057  1.00  0.00    -0.337 A  
HETATM   23  C   UNL     1     -10.793  11.898  64.181  1.00  0.00    -0.412 A  
BRANCH  21  24
HETATM   24  C   UNL     1      -8.879   9.114  65.717  1.00  0.00    -0.210 C  
HETATM   25  C   UNL     1      -8.413   8.030  65.940  1.00  0.00    -0.154 C  
ENDBRANCH  21  24
ENDBRANCH  16  18
ENDBRANCH  11  16
BRANCH  13  26
HETATM   26  O   UNL     1      -9.506  18.844  66.272  1.00  0.00    -0.334 OA 
BRANCH  26  27
HETATM   27  C   UNL     1      -9.755  20.075  66.952  1.00  0.00    -0.425 C  
BRANCH  27  28
HETATM   28  C   UNL     1     -10.219  19.825  68.383  1.00  0.00    -0.449 C  
BRANCH  28  29
HETATM   29  O   UNL     1     -11.548  20.339  68.507  1.00  0.00     1.675 OA 
HETATM   30  C   UNL     1     -12.433  19.770  67.556  1.00  0.00     3.971 C  
ENDBRANCH  28  29
ENDBRANCH  27  28
ENDBRANCH  26  27
ENDBRANCH  13  26
ENDBRANCH   5   6
ENDBRANCH   4   5
ENDBRANCH   3   4
ENDBRANCH   2   3
TORSDOF 11
ENDMDL
MODEL      266
REMARK 921   NORMALIZED FREE ENERGY PREDICTED BY IDOCK:    1.55 KCAL/MOL
REMARK 922        TOTAL FREE ENERGY PREDICTED BY IDOCK:    1.40 KCAL/MOL
REMARK 923 INTER-LIGAND FREE ENERGY PREDICTED BY IDOCK:    1.48 KCAL/MOL
REMARK 924 INTRA-LIGAND FREE ENERGY PREDICTED BY IDOCK:   -0.08 KCAL/MOL
REMARK 927      BINDING AFFINITY PREDICTED BY RF-SCORE:    0.00 PKD
ROOT
HETATM    1  C   UNL     1      -7.612   8.035  73.680  1.00  0.00    -0.162 C  
HETATM    2  O   UNL     1      -7.534   7.716  72.296  1.00  0.00    -0.071 OA 
ENDROOT
BRANCH   2   3
HETATM    3  C   UNL     1      -8.280   8.645  71.514  1.00  0.00    -0.159 C  
BRANCH   3   4
HETATM    4  C   UNL     1      -7.335   9.566  70.746  1.00  0.00    -0.084 C  
BRANCH   4   5
HETATM    5  O   UNL     1      -7.974   9.878  69.513  1.00  0.00    -0.116 OA 
BRANCH   5   6
HETATM    6  C   UNL     1      -7.934  11.143  69.012  1.00  0.00    -0.086 A  
HETATM    7  C   UNL     1      -9.019  12.024  69.091  1.00  0.00     0.525 A  
HETATM    8  C   UNL     1      -8.978  13.304  68.560  1.00  0.00    -0.058 A  
HETATM    9  C   UNL     1      -7.801  13.761  67.952  1.00  0.00    -0.159 A  
HETATM   10  C   UNL     1      -6.687  12.880  67.895  1.00  0.00    -0.123 A  
HETATM   11  C   UNL     1      -7.853  15.084  67.455  1.00  0.00    -0.182 A  
HETATM   12  N   UNL     1      -8.977  15.820  67.539  1.00  0.00    -0.192 NA 
HETATM   13  C   UNL     1      -6.749  11.574  68.399  1.00  0.00    -0.066 A  
HETATM   14  N   UNL     1     -10.083  14.043  68.663  1.00  0.00    -0.231 NA 
HETATM   15  C   UNL     1     -10.033  15.267  68.138  1.00  0.00    -0.221 A  
BRANCH  11  16
HETATM   16  N   UNL     1      -6.681  15.676  66.916  1.00  0.00    -0.211 NA 
HETATM   17  H   UNL     1      -5.819  15.158  67.085  1.00  0.00     0.000 HD 
BRANCH  16  18
HETATM   18  C   UNL     1      -6.525  16.876  66.180  1.00  0.00     0.274 A  
HETATM   19  C   UNL     1      -7.500  17.883  66.297  1.00  0.00    -0.321 A  
HETATM   20  C   UNL     1      -6.432  19.191  64.560  1.00  0.00     0.172 A  
HETATM   21  C   UNL     1      -7.456  19.030  65.491  1.00  0.00     0.066 A  
HETATM   22  C   UNL     1      -5.514  17.060  65.227  1.00  0.00     1.922 A  
HETATM   23  C   UNL     1      -5.456  18.209  64.433  1.00  0.00     0.235 A  
BRANCH  21  24
HETATM   24  C   UNL     1      -8.477  20.030  65.586  1.00  0.00     0.151 C  
HETATM   25  C   UNL     1      -9.371  20.829  65.651  1.00  0.00     0.774 C  
ENDBRANCH  21  24
ENDBRANCH  16  18
ENDBRANCH  11  16
BRANCH  13  26
HETATM   26  O   UNL     1      -5.581  10.872  68.206  1.00  0.00    -0.043 OA 
BRANCH  26  27
HETATM   27  C   UNL     1      -5.578   9.854  67.205  1.00  0.00    -0.046 C  
BRANCH  27  28
HETATM   28  C   UNL     1      -5.526   8.466  67.835  1.00  0.00    -0.035 C  
BRANCH  28  29
HETATM   29  O   UNL     1      -5.538   7.505  66.776  1.00  0.00    -0.026 OA 
HETATM   30  C   UNL     1      -6.705   7.604  65.977  1.00  0.00    -0.046 C  
ENDBRANCH  28  29
ENDBRANCH  27  28
ENDBRANCH  26  27
ENDBRANCH  13  26
ENDBRANCH   5   6
ENDBRANCH   4   5
ENDBRANCH   3   4
ENDBRANCH   2   3
TORSDOF 11
ENDMDL
MODEL      267
REMARK 921   NORMALIZED FREE ENERGY PREDICTED BY IDOCK:    2.17 KCAL/MOL
REMARK 922        TOTAL FREE ENERGY PREDICTED BY IDOCK:    2.43 KCAL/MOL
REMARK 923 INTER-LIGAND FREE ENERGY PREDICTED BY IDOCK:   -3.15 KCAL/MOL
REMARK 924 INTRA-LIGAND FREE ENERGY PREDICTED BY IDOCK:    5.57 KCAL/MOL
REMARK 927      BINDING AFFINITY PREDICTED BY RF-SCORE:    0.00 PKD
ROOT
HETATM    1  C   UNL     1      -8.293   9.209  64.225  1.00  0.00    -0.173 C  
HETATM    2  O   UNL     1      -7.810   9.103  65.560  1.00  0.00    -0.093 OA 
ENDROOT
BRANCH   2   3
HETATM    3  C   UNL     1      -8.852   9.340  66.502  1.00  0.00    -0.133 C  
BRANCH   3   4
HETATM    4  C   UNL     1      -8.491   8.725  67.851  1.00  0.00    -0.126 C  
BRANCH   4   5
HETATM    5  O   UNL     1      -7.279   9.338  68.274  1.00  0.00    -0.076 OA 
BRANCH   5   6
HETATM    6  C   UNL     1      -7.234  10.670  68.551  1.00  0.00    -0.086 A  
HETATM    7  C   UNL     1      -6.215  11.252  69.315  1.00  0.00    -0.073 A  
HETATM    8  C   UNL     1      -6.188  12.606  69.611  1.00  0.00    -0.122 A  
HETATM    9  C   UNL     1      -7.190  13.444  69.103  1.00  0.00     0.041 A  
HETATM   10  C   UNL     1      -8.211  12.863  68.302  1.00  0.00    -0.153 A  
HETATM   11  C   UNL     1      -7.067  14.810  69.446  1.00  0.00    -0.170 A  
HETATM   12  N   UNL     1      -6.069  15.246  70.238  1.00  0.00    -0.138 NA 
HETATM   13  C   UNL     1      -8.253  11.486  68.040  1.00  0.00    -0.143 A  
HETATM   14  N   UNL     1      -5.188  13.044  70.376  1.00  0.00    -0.103 NA 
HETATM   15  C   UNL     1      -5.181  14.346  70.662  1.00  0.00    -0.117 A  
BRANCH  11  16
HETATM   16  N   UNL     1      -7.971  15.755  68.894  1.00  0.00    -0.181 NA 
HETATM   17  H   UNL     1      -8.893  15.387  68.663  1.00  0.00     0.000 HD 
BRANCH  16  18
HETATM   18  C   UNL     1      -7.788  17.132  68.616  1.00  0.00    -0.265 A  
HETATM   19  C   UNL     1      -8.446  17.702  67.512  1.00  0.00    -0.220 A  
HETATM   20  C   UNL     1      -7.285  19.802  67.837  1.00  0.00    -0.313 A  
HETATM   21  C   UNL     1      -8.195  19.025  67.122  1.00  0.00    -0.286 A  
HETATM   22  C   UNL     1      -6.870  17.934  69.308  1.00  0.00    -0.183 A  
HETATM   23  C   UNL     1      -6.628  19.259  68.935  1.00  0.00    -0.331 A  
BRANCH  21  24
HETATM   24  C   UNL     1      -8.837  19.583  65.970  1.00  0.00    -0.227 C  
HETATM   25  C   UNL     1      -9.395  20.000  64.992  1.00  0.00     1.606 C  
ENDBRANCH  21  24
ENDBRANCH  16  18
ENDBRANCH  11  16
BRANCH  13  26
HETATM   26  O   UNL     1      -9.345  11.121  67.285  1.00  0.00    -0.159 OA 
BRANCH  26  27
HETATM   27  C   UNL     1     -10.635  11.507  67.756  1.00  0.00    -0.192 C  
BRANCH  27  28
HETATM   28  C   UNL     1     -10.535  12.671  68.736  1.00  0.00    -0.143 C  
BRANCH  28  29
HETATM   29  O   UNL     1     -11.646  13.541  68.498  1.00  0.00    -0.287 OA 
HETATM   30  C   UNL     1     -11.234  14.863  68.189  1.00  0.00    -0.299 C  
ENDBRANCH  28  29
ENDBRANCH  27  28
ENDBRANCH  26  27
ENDBRANCH  13  26
ENDBRANCH   5   6
ENDBRANCH   4   5
ENDBRANCH   3   4
ENDBRANCH   2   3
TORSDOF 11
ENDMDL
MODEL      268
REMARK 921   NORMALIZED FREE ENERGY PREDICTED BY IDOCK:    2.56 KCAL/MOL
REMARK 922        TOTAL FREE ENERGY PREDICTED BY IDOCK:    3.07 KCAL/MOL
REMARK 923 INTER-LIGAND FREE ENERGY PREDICTED BY IDOCK:    3.42 KCAL/MOL
REMARK 924 INTRA-LIGAND FREE ENERGY PREDICTED BY IDOCK:   -0.35 KCAL/MOL
REMARK 927      BINDING AFFINITY PREDICTED BY RF-SCORE:    0.00 PKD
ROOT
HETATM    1  C   UNL     1      -6.185  13.677  73.514  1.00  0.00     1.302 C  
HETATM    2  O   UNL     1      -7.085  14.528  72.814  1.00  0.00     1.856 OA 
ENDROOT
BRANCH   2   3
HETATM    3  C   UNL     1      -7.172  14.161  71.440  1.00  0.00     2.752 C  
BRANCH   3   4
HETATM    4  C   UNL     1      -6.436  15.180  70.575  1.00  0.00     0.082 C  
BRANCH   4   5
HETATM    5  O   UNL     1      -6.169  14.548  69.328  1.00  0.00    -0.101 OA 
BRANCH   5   6
HETATM    6  C   UNL     1      -6.518  13.249  69.121  1.00  0.00    -0.106 A  
HETATM    7  C   UNL     1      -5.711  12.175  69.513  1.00  0.00    -0.087 A  
HETATM    8  C   UNL     1      -6.064  10.854  69.280  1.00  0.00    -0.047 A  
HETATM    9  C   UNL     1      -7.288  10.567  68.663  1.00  0.00    -0.091 A  
HETATM   10  C   UNL     1      -8.126  11.653  68.289  1.00  0.00    -0.150 A  
HETATM   11  C   UNL     1      -7.565   9.192  68.483  1.00  0.00    -0.085 A  
HETATM   12  N   UNL     1      -6.682   8.245  68.852  1.00  0.00    -0.052 NA 
HETATM   13  C   UNL     1      -7.744  12.986  68.493  1.00  0.00    -0.111 A  
HETATM   14  N   UNL     1      -5.201   9.915  69.666  1.00  0.00    -0.034 NA 
HETATM   15  C   UNL     1      -5.548   8.651  69.425  1.00  0.00    -0.034 A  
BRANCH  11  16
HETATM   16  N   UNL     1      -8.825   8.793  67.965  1.00  0.00    -0.140 NA 
HETATM   17  H   UNL     1      -9.525   9.533  67.913  1.00  0.00     0.000 HD 
BRANCH  16  18
HETATM   18  C   UNL     1      -9.259   7.525  67.507  1.00  0.00    -0.128 A  
HETATM   19  C   UNL     1      -9.438   6.485  68.437  1.00  0.00    -0.120 A  
HETATM   20  C   UNL     1      -9.873   4.899  66.659  1.00  0.00    -0.223 A  
HETATM   21  C   UNL     1      -9.739   5.182  68.017  1.00  0.00    -0.188 A  
HETATM   22  C   UNL     1      -9.388   7.208  66.148  1.00  0.00    -0.097 A  
HETATM   23  C   UNL     1      -9.705   5.914  65.724  1.00  0.00     0.151 A  
BRANCH  21  24
HETATM   24  C   UNL     1      -9.877   4.120  68.968  1.00  0.00    -0.106 C  
HETATM   25  C   UNL     1     -10.028   3.262  69.795  1.00  0.00     0.391 C  
ENDBRANCH  21  24
ENDBRANCH  16  18
ENDBRANCH  11  16
BRANCH  13  26
HETATM   26  O   UNL     1      -8.674  13.885  68.020  1.00  0.00    -0.164 OA 
BRANCH  26  27
HETATM   27  C   UNL     1     -10.042  13.662  68.360  1.00  0.00    -0.241 C  
BRANCH  27  28
HETATM   28  C   UNL     1     -10.616  14.849  69.127  1.00  0.00    -0.246 C  
BRANCH  28  29
HETATM   29  O   UNL     1     -11.523  14.338  70.108  1.00  0.00    -0.254 OA 
HETATM   30  C   UNL     1     -12.035  13.064  69.751  1.00  0.00    -0.308 C  
ENDBRANCH  28  29
ENDBRANCH  27  28
ENDBRANCH  26  27
ENDBRANCH  13  26
ENDBRANCH   5   6
ENDBRANCH   4   5
ENDBRANCH   3   4
ENDBRANCH   2   3
TORSDOF 11
ENDMDL
MODEL      269
REMARK 921   NORMALIZED FREE ENERGY PREDICTED BY IDOCK:    2.84 KCAL/MOL
REMARK 922        TOTAL FREE ENERGY PREDICTED BY IDOCK:    3.53 KCAL/MOL
REMARK 923 INTER-LIGAND FREE ENERGY PREDICTED BY IDOCK:    0.85 KCAL/MOL
REMARK 924 INTRA-LIGAND FREE ENERGY PREDICTED BY IDOCK:    2.68 KCAL/MOL
REMARK 927      BINDING AFFINITY PREDICTED BY RF-SCORE:    0.00 PKD
ROOT
HETATM    1  C   UNL     1      -9.398  12.114  69.210  1.00  0.00     0.778 C  
HETATM    2  O   UNL     1     -10.429  11.200  69.566  1.00  0.00    -0.164 OA 
ENDROOT
BRANCH   2   3
HETATM    3  C   UNL     1     -10.546  10.158  68.602  1.00  0.00    -0.210 C  
BRANCH   3   4
HETATM    4  C   UNL     1     -11.979   9.635  68.562  1.00  0.00     1.505 C  
BRANCH   4   5
HETATM    5  O   UNL     1     -12.792  10.693  68.068  1.00  0.00     2.113 OA 
BRANCH   5   6
HETATM    6  C   UNL     1     -12.568  11.979  68.457  1.00  0.00     1.196 A  
HETATM    7  C   UNL     1     -12.883  12.449  69.737  1.00  0.00     0.713 A  
HETATM    8  C   UNL     1     -12.672  13.765  70.119  1.00  0.00    -0.091 A  
HETATM    9  C   UNL     1     -12.087  14.660  69.214  1.00  0.00    -0.307 A  
HETATM   10  C   UNL     1     -11.738  14.180  67.922  1.00  0.00    -0.402 A  
HETATM   11  C   UNL     1     -11.897  15.974  69.701  1.00  0.00    -0.229 A  
HETATM   12  N   UNL     1     -12.294  16.326  70.939  1.00  0.00     0.007 NA 
HETATM   13  C   UNL     1     -11.991  12.859  67.531  1.00  0.00    -0.296 A  
HETATM   14  N   UNL     1     -13.042  14.109  71.352  1.00  0.00    -0.343 NA 
HETATM   15  C   UNL     1     -12.844  15.380  71.702  1.00  0.00    -0.419 A  
BRANCH  11  16
HETATM   16  N   UNL     1     -11.217  16.927  68.900  1.00  0.00    -0.210 NA 
HETATM   17  H   UNL     1     -11.693  17.823  68.796  1.00  0.00     0.000 HD 
BRANCH  16  18
HETATM   18  C   UNL     1      -9.978  16.825  68.221  1.00  0.00    -0.273 A  
HETATM   19  C   UNL     1      -9.189  15.676  68.404  1.00  0.00    -0.191 A  
HETATM   20  C   UNL     1      -7.383  16.646  67.115  1.00  0.00    -0.220 A  
HETATM   21  C   UNL     1      -7.900  15.587  67.858  1.00  0.00    -0.142 A  
HETATM   22  C   UNL     1      -9.426  17.879  67.479  1.00  0.00    -0.258 A  
HETATM   23  C   UNL     1      -8.149  17.789  66.918  1.00  0.00    -0.251 A  
BRANCH  21  24
HETATM   24  C   UNL     1      -7.087  14.430  68.086  1.00  0.00    -0.126 C  
HETATM   25  C   UNL     1      -6.429  13.456  68.328  1.00  0.00    -0.102 C  
ENDBRANCH  21  24
ENDBRANCH  16  18
ENDBRANCH  11  16
BRANCH  13  26
HETATM   26  O   UNL     1     -11.620  12.608  66.228  1.00  0.00    -0.343 OA 
BRANCH  26  27
HETATM   27  C   UNL     1     -10.239  12.354  65.971  1.00  0.00    -0.245 C  
BRANCH  27  28
HETATM   28  C   UNL     1     -10.070  11.238  64.945  1.00  0.00    -0.281 C  
BRANCH  28  29
HETATM   29  O   UNL     1      -8.712  10.792  65.004  1.00  0.00    -0.191 OA 
HETATM   30  C   UNL     1      -8.358  10.004  63.879  1.00  0.00    -0.167 C  
ENDBRANCH  28  29
ENDBRANCH  27  28
ENDBRANCH  26  27
ENDBRANCH  13  26
ENDBRANCH   5   6
ENDBRANCH   4   5
ENDBRANCH   3   4
ENDBRANCH   2   3
TORSDOF 11
ENDMDL
MODEL      270
REMARK 921   NORMALIZED FREE ENERGY PREDICTED BY IDOCK:    3.43 KCAL/MOL
REMARK 922        TOTAL FREE ENERGY PREDICTED BY IDOCK:    4.50 KCAL/MOL
REMARK 923 INTER-LIGAND FREE ENERGY PREDICTED BY IDOCK:    1.55 KCAL/MOL
REMARK 924 INTRA-LIGAND FREE ENERGY PREDICTED BY IDOCK:    2.96 KCAL/MOL
REMARK 927      BINDING AFFINITY PREDICTED BY RF-SCORE:    0.00 PKD
ROOT
HETATM    1  C   UNL     1     -11.065   8.926  69.972  1.00  0.00    -0.170 C  
HETATM    2  O   UNL     1     -10.125   9.604  69.148  1.00  0.00    -0.173 OA 
ENDROOT
BRANCH   2   3
HETATM    3  C   UNL     1     -10.678  10.808  68.624  1.00  0.00    -0.208 C  
BRANCH   3   4
HETATM    4  C   UNL     1     -10.419  10.897  67.122  1.00  0.00    -0.237 C  
BRANCH   4   5
HETATM    5  O   UNL     1     -11.177  11.999  66.636  1.00  0.00    -0.293 OA 
BRANCH   5   6
HETATM    6  C   UNL     1     -10.907  13.265  67.056  1.00  0.00    -0.269 A  
HETATM    7  C   UNL     1     -11.903  14.232  67.240  1.00  0.00    -0.444 A  
HETATM    8  C   UNL     1     -11.618  15.526  67.648  1.00  0.00    -0.142 A  
HETATM    9  C   UNL     1     -10.293  15.884  67.928  1.00  0.00    -0.269 A  
HETATM   10  C   UNL     1      -9.281  14.898  67.771  1.00  0.00    -0.186 A  
HETATM   11  C   UNL     1     -10.106  17.220  68.352  1.00  0.00    -0.333 A  
HETATM   12  N   UNL     1     -11.139  18.079  68.437  1.00  0.00     0.208 NA 
HETATM   13  C   UNL     1      -9.573  13.604  67.321  1.00  0.00    -0.238 A  
HETATM   14  N   UNL     1     -12.643  16.371  67.756  1.00  0.00     1.999 NA 
HETATM   15  C   UNL     1     -12.353  17.615  68.138  1.00  0.00     3.718 A  
BRANCH  11  16
HETATM   16  N   UNL     1      -8.816  17.651  68.761  1.00  0.00    -0.252 NA 
HETATM   17  H   UNL     1      -8.784  18.122  69.665  1.00  0.00     0.000 HD 
BRANCH  16  18
HETATM   18  C   UNL     1      -7.567  17.527  68.105  1.00  0.00    -0.221 A  
HETATM   19  C   UNL     1      -7.401  18.099  66.832  1.00  0.00    -0.228 A  
HETATM   20  C   UNL     1      -5.200  17.114  66.617  1.00  0.00    -0.189 A  
HETATM   21  C   UNL     1      -6.229  17.892  66.091  1.00  0.00    -0.272 A  
HETATM   22  C   UNL     1      -6.520  16.739  68.603  1.00  0.00    -0.165 A  
HETATM   23  C   UNL     1      -5.342  16.543  67.877  1.00  0.00    -0.131 A  
BRANCH  21  24
HETATM   24  C   UNL     1      -6.087  18.443  64.777  1.00  0.00     0.053 C  
HETATM   25  C   UNL     1      -6.007  18.868  63.657  1.00  0.00     0.525 C  
ENDBRANCH  21  24
ENDBRANCH  16  18
ENDBRANCH  11  16
BRANCH  13  26
HETATM   26  O   UNL     1      -8.449  12.818  67.194  1.00  0.00    -0.185 OA 
BRANCH  26  27
HETATM   27  C   UNL     1      -8.303  11.722  68.097  1.00  0.00    -0.156 C  
BRANCH  27  28
HETATM   28  C   UNL     1      -6.845  11.539  68.505  1.00  0.00    -0.074 C  
BRANCH  28  29
HETATM   29  O   UNL     1      -6.067  11.427  67.309  1.00  0.00    -0.064 OA 
HETATM   30  C   UNL     1      -6.128  10.124  66.751  1.00  0.00    -0.060 C  
ENDBRANCH  28  29
ENDBRANCH  27  28
ENDBRANCH  26  27
ENDBRANCH  13  26
ENDBRANCH   5   6
ENDBRANCH   4   5
ENDBRANCH   3   4
ENDBRANCH   2   3
TORSDOF 11
ENDMDL
MODEL      271
REMARK 921   NORMALIZED FREE ENERGY PREDICTED BY IDOCK:    4.18 KCAL/MOL
REMARK 922        TOTAL FREE ENERGY PREDICTED BY IDOCK:    5.74 KCAL/MOL
REMARK 923 INTER-LIGAND FREE ENERGY PREDICTED BY IDOCK:    1.87 KCAL/MOL
REMARK 924 INTRA-LIGAND FREE ENERGY PREDICTED BY IDOCK:    3.87 KCAL/MOL
REMARK 927      BINDING AFFINITY PREDICTED BY RF-SCORE:    0.00 PKD
ROOT
HETATM    1  C   UNL     1      -8.292   9.208  64.223  1.00  0.00    -0.173 C  
HETATM    2  O   UNL     1      -7.803   9.137  65.558  1.00  0.00    -0.093 OA 
ENDROOT
BRANCH   2   3
HETATM    3  C   UNL     1      -8.842   9.391  66.498  1.00  0.00    -0.136 C  
BRANCH   3   4
HETATM    4  C   UNL     1      -8.464   8.827  67.866  1.00  0.00    -0.126 C  
BRANCH   4   5
HETATM    5  O   UNL     1      -7.253   9.465  68.255  1.00  0.00    -0.075 OA 
BRANCH   5   6
HETATM    6  C   UNL     1      -7.213  10.810  68.461  1.00  0.00    -0.088 A  
HETATM    7  C   UNL     1      -6.199  11.434  69.197  1.00  0.00    -0.064 A  
HETATM    8  C   UNL     1      -6.175  12.803  69.420  1.00  0.00    -0.112 A  
HETATM    9  C   UNL     1      -7.175  13.609  68.861  1.00  0.00    -0.083 A  
HETATM   10  C   UNL     1      -8.191  12.984  68.088  1.00  0.00    -0.157 A  
HETATM   11  C   UNL     1      -7.056  14.992  69.131  1.00  0.00    -0.149 A  
HETATM   12  N   UNL     1      -6.064  15.472  69.904  1.00  0.00    -0.152 NA 
HETATM   13  C   UNL     1      -8.229  11.596  67.900  1.00  0.00    -0.141 A  
HETATM   14  N   UNL     1      -5.180  13.282  70.166  1.00  0.00    -0.090 NA 
HETATM   15  C   UNL     1      -5.176  14.598  70.381  1.00  0.00    -0.111 A  
BRANCH  11  16
HETATM   16  N   UNL     1      -7.958  15.905  68.524  1.00  0.00    -0.144 NA 
HETATM   17  H   UNL     1      -7.748  16.140  67.555  1.00  0.00     0.000 HD 
BRANCH  16  18
HETATM   18  C   UNL     1      -9.106  16.538  69.059  1.00  0.00    -0.229 A  
HETATM   19  C   UNL     1      -9.434  17.837  68.632  1.00  0.00    -0.283 A  
HETATM   20  C   UNL     1     -11.227  17.975  70.255  1.00  0.00     2.866 A  
HETATM   21  C   UNL     1     -10.483  18.552  69.227  1.00  0.00     0.355 A  
HETATM   22  C   UNL     1      -9.864  15.988  70.102  1.00  0.00     0.297 A  
HETATM   23  C   UNL     1     -10.922  16.689  70.688  1.00  0.00     0.133 A  
BRANCH  21  24
HETATM   24  C   UNL     1     -10.782  19.891  68.817  1.00  0.00     0.246 C  
HETATM   25  C   UNL     1     -10.983  21.015  68.445  1.00  0.00     1.547 C  
ENDBRANCH  21  24
ENDBRANCH  16  18
ENDBRANCH  11  16
BRANCH  13  26
HETATM   26  O   UNL     1      -9.316  11.188  67.159  1.00  0.00    -0.163 OA 
BRANCH  26  27
HETATM   27  C   UNL     1     -10.610  11.598  67.601  1.00  0.00    -0.203 C  
BRANCH  27  28
HETATM   28  C   UNL     1     -10.731  11.487  69.118  1.00  0.00    -0.168 C  
BRANCH  28  29
HETATM   29  O   UNL     1     -12.101  11.211  69.427  1.00  0.00    -0.333 OA 
HETATM   30  C   UNL     1     -12.233  10.337  70.537  1.00  0.00    -0.301 C  
ENDBRANCH  28  29
ENDBRANCH  27  28
ENDBRANCH  26  27
ENDBRANCH  13  26
ENDBRANCH   5   6
ENDBRANCH   4   5
ENDBRANCH   3   4
ENDBRANCH   2   3
TORSDOF 11
ENDMDL
MODEL      272
REMARK 921   NORMALIZED FREE ENERGY PREDICTED BY IDOCK:    5.70 KCAL/MOL
REMARK 922        TOTAL FREE ENERGY PREDICTED BY IDOCK:    8.23 KCAL/MOL
REMARK 923 INTER-LIGAND FREE ENERGY PREDICTED BY IDOCK:    6.61 KCAL/MOL
REMARK 924 INTRA-LIGAND FREE ENERGY PREDICTED BY IDOCK:    1.62 KCAL/MOL
REMARK 927      BINDING AFFINITY PREDICTED BY RF-SCORE:    0.00 PKD
ROOT
HETATM    1  C   UNL     1      -8.657   4.525  65.767  1.00  0.00    -0.116 C  
HETATM    2  O   UNL     1      -9.196   3.899  66.926  1.00  0.00    -0.146 OA 
ENDROOT
BRANCH   2   3
HETATM    3  C   UNL     1      -8.170   3.282  67.698  1.00  0.00    -0.081 C  
BRANCH   3   4
HETATM    4  C   UNL     1      -7.335   4.343  68.410  1.00  0.00    -0.064 C  
BRANCH   4   5
HETATM    5  O   UNL     1      -8.172   4.930  69.401  1.00  0.00    -0.080 OA 
BRANCH   5   6
HETATM    6  C   UNL     1      -8.065   6.253  69.703  1.00  0.00    -0.120 A  
HETATM    7  C   UNL     1      -7.856   6.718  71.008  1.00  0.00    -0.101 A  
HETATM    8  C   UNL     1      -7.769   8.068  71.311  1.00  0.00    -0.090 A  
HETATM    9  C   UNL     1      -7.853   9.013  70.280  1.00  0.00    -0.111 A  
HETATM   10  C   UNL     1      -8.036   8.546  68.950  1.00  0.00    -0.119 A  
HETATM   11  C   UNL     1      -7.737  10.362  70.688  1.00  0.00     1.024 A  
HETATM   12  N   UNL     1      -7.595  10.692  71.985  1.00  0.00     4.557 NA 
HETATM   13  C   UNL     1      -8.162   7.181  68.657  1.00  0.00    -0.125 A  
HETATM   14  N   UNL     1      -7.604   8.396  72.592  1.00  0.00    -0.260 NA 
HETATM   15  C   UNL     1      -7.533   9.697  72.871  1.00  0.00     2.271 A  
BRANCH  11  16
HETATM   16  N   UNL     1      -7.704  11.390  69.709  1.00  0.00    -0.146 NA 
HETATM   17  H   UNL     1      -6.772  11.720  69.460  1.00  0.00     0.000 HD 
BRANCH  16  18
HETATM   18  C   UNL     1      -8.768  12.026  69.023  1.00  0.00     0.358 A  
HETATM   19  C   UNL     1      -9.605  12.910  69.726  1.00  0.00     2.142 A  
HETATM   20  C   UNL     1     -11.063  13.141  67.806  1.00  0.00    -0.287 A  
HETATM   21  C   UNL     1     -10.745  13.461  69.125  1.00  0.00    -0.097 A  
HETATM   22  C   UNL     1      -9.119  11.713  67.703  1.00  0.00    -0.174 A  
HETATM   23  C   UNL     1     -10.245  12.273  67.092  1.00  0.00    -0.224 A  
BRANCH  21  24
HETATM   24  C   UNL     1     -11.616  14.326  69.862  1.00  0.00    -0.337 C  
HETATM   25  C   UNL     1     -12.331  15.094  70.446  1.00  0.00    -0.411 C  
ENDBRANCH  21  24
ENDBRANCH  16  18
ENDBRANCH  11  16
BRANCH  13  26
HETATM   26  O   UNL     1      -8.378   6.942  67.318  1.00  0.00    -0.120 OA 
BRANCH  26  27
HETATM   27  C   UNL     1      -9.297   7.792  66.633  1.00  0.00    -0.188 C  
BRANCH  27  28
HETATM   28  C   UNL     1      -8.723   9.195  66.464  1.00  0.00    -0.128 C  
BRANCH  28  29
HETATM   29  O   UNL     1      -7.355   9.063  66.066  1.00  0.00    -0.091 OA 
HETATM   30  C   UNL     1      -7.019   9.944  65.007  1.00  0.00    -0.130 C  
ENDBRANCH  28  29
ENDBRANCH  27  28
ENDBRANCH  26  27
ENDBRANCH  13  26
ENDBRANCH   5   6
ENDBRANCH   4   5
ENDBRANCH   3   4
ENDBRANCH   2   3
TORSDOF 11
ENDMDL
MODEL      273
REMARK 921   NORMALIZED FREE ENERGY PREDICTED BY IDOCK:    5.74 KCAL/MOL
REMARK 922        TOTAL FREE ENERGY PREDICTED BY IDOCK:    8.30 KCAL/MOL
REMARK 923 INTER-LIGAND FREE ENERGY PREDICTED BY IDOCK:    7.64 KCAL/MOL
REMARK 924 INTRA-LIGAND FREE ENERGY PREDICTED BY IDOCK:    0.66 KCAL/MOL
REMARK 927      BINDING AFFINITY PREDICTED BY RF-SCORE:    0.00 PKD
ROOT
HETATM    1  C   UNL     1      -6.483  13.674  73.614  1.00  0.00     2.006 C  
HETATM    2  O   UNL     1      -7.378  14.683  73.160  1.00  0.00     3.008 OA 
ENDROOT
BRANCH   2   3
HETATM    3  C   UNL     1      -7.453  14.700  71.738  1.00  0.00     3.432 C  
BRANCH   3   4
HETATM    4  C   UNL     1      -6.720  15.921  71.187  1.00  0.00     1.941 C  
BRANCH   4   5
HETATM    5  O   UNL     1      -6.218  15.558  69.906  1.00  0.00    -0.150 OA 
BRANCH   5   6
HETATM    6  C   UNL     1      -6.506  14.341  69.367  1.00  0.00    -0.125 A  
HETATM    7  C   UNL     1      -5.971  13.147  69.864  1.00  0.00    -0.138 A  
HETATM    8  C   UNL     1      -6.252  11.913  69.297  1.00  0.00    -0.094 A  
HETATM    9  C   UNL     1      -7.133  11.838  68.210  1.00  0.00    -0.079 A  
HETATM   10  C   UNL     1      -7.703  13.045  67.721  1.00  0.00    -0.151 A  
HETATM   11  C   UNL     1      -7.369  10.536  67.713  1.00  0.00    -0.086 A  
HETATM   12  N   UNL     1      -6.750   9.462  68.239  1.00  0.00    -0.059 NA 
HETATM   13  C   UNL     1      -7.382  14.292  68.274  1.00  0.00    -0.124 A  
HETATM   14  N   UNL     1      -5.658  10.846  69.832  1.00  0.00    -0.053 NA 
HETATM   15  C   UNL     1      -5.929   9.668  69.270  1.00  0.00    -0.034 A  
BRANCH  11  16
HETATM   16  N   UNL     1      -8.326  10.342  66.683  1.00  0.00    -0.125 NA 
HETATM   17  H   UNL     1      -9.281  10.603  66.926  1.00  0.00     0.000 HD 
BRANCH  16  18
HETATM   18  C   UNL     1      -8.157   9.843  65.368  1.00  0.00    -0.137 A  
HETATM   19  C   UNL     1      -7.952   8.464  65.180  1.00  0.00    -0.136 A  
HETATM   20  C   UNL     1      -7.558   8.793  62.813  1.00  0.00    -0.112 A  
HETATM   21  C   UNL     1      -7.651   7.943  63.913  1.00  0.00    -0.121 A  
HETATM   22  C   UNL     1      -8.046  10.674  64.245  1.00  0.00     0.054 A  
HETATM   23  C   UNL     1      -7.763  10.158  62.977  1.00  0.00    -0.149 A  
BRANCH  21  24
HETATM   24  C   UNL     1      -7.400   6.544  63.738  1.00  0.00    -0.074 C  
HETATM   25  C   UNL     1      -7.210   5.376  63.539  1.00  0.00    -0.049 C  
ENDBRANCH  21  24
ENDBRANCH  16  18
ENDBRANCH  11  16
BRANCH  13  26
HETATM   26  O   UNL     1      -8.004  15.338  67.628  1.00  0.00    -0.136 OA 
BRANCH  26  27
HETATM   27  C   UNL     1      -7.236  16.084  66.685  1.00  0.00     0.011 C  
BRANCH  27  28
HETATM   28  C   UNL     1      -5.923  16.557  67.300  1.00  0.00    -0.166 C  
BRANCH  28  29
HETATM   29  O   UNL     1      -5.133  17.133  66.255  1.00  0.00    -0.307 OA 
HETATM   30  C   UNL     1      -5.735  18.296  65.709  1.00  0.00    -0.204 C  
ENDBRANCH  28  29
ENDBRANCH  27  28
ENDBRANCH  26  27
ENDBRANCH  13  26
ENDBRANCH   5   6
ENDBRANCH   4   5
ENDBRANCH   3   4
ENDBRANCH   2   3
TORSDOF 11
ENDMDL
MODEL      274
REMARK 921   NORMALIZED FREE ENERGY PREDICTED BY IDOCK:    7.43 KCAL/MOL
REMARK 922        TOTAL FREE ENERGY PREDICTED BY IDOCK:   11.07 KCAL/MOL
REMARK 923 INTER-LIGAND FREE ENERGY PREDICTED BY IDOCK:   11.91 KCAL/MOL
REMARK 924 INTRA-LIGAND FREE ENERGY PREDICTED BY IDOCK:   -0.84 KCAL/MOL
REMARK 927      BINDING AFFINITY PREDICTED BY RF-SCORE:    0.00 PKD
ROOT
HETATM    1  C   UNL     1      -5.570  11.376  71.160  1.00  0.00     0.050 C  
HETATM    2  O   UNL     1      -6.158  10.122  70.834  1.00  0.00    -0.150 OA 
ENDROOT
BRANCH   2   3
HETATM    3  C   UNL     1      -6.798   9.546  71.969  1.00  0.00     0.634 C  
BRANCH   3   4
HETATM    4  C   UNL     1      -8.270   9.947  72.002  1.00  0.00     3.071 C  
BRANCH   4   5
HETATM    5  O   UNL     1      -8.991   8.832  72.516  1.00  0.00    -0.386 OA 
BRANCH   5   6
HETATM    6  C   UNL     1      -9.384   7.821  71.694  1.00  0.00    -0.140 A  
HETATM    7  C   UNL     1     -10.495   7.921  70.848  1.00  0.00    -0.217 A  
HETATM    8  C   UNL     1     -10.901   6.880  70.028  1.00  0.00    -0.262 A  
HETATM    9  C   UNL     1     -10.161   5.690  70.005  1.00  0.00    -0.321 A  
HETATM   10  C   UNL     1      -9.015   5.594  70.841  1.00  0.00    -0.151 A  
HETATM   11  C   UNL     1     -10.646   4.694  69.126  1.00  0.00     0.653 A  
HETATM   12  N   UNL     1     -11.764   4.885  68.400  1.00  0.00     4.538 NA 
HETATM   13  C   UNL     1      -8.633   6.637  71.696  1.00  0.00    -0.123 A  
HETATM   14  N   UNL     1     -11.994   7.075  69.290  1.00  0.00     0.489 NA 
HETATM   15  C   UNL     1     -12.380   6.062  68.515  1.00  0.00     4.934 A  
BRANCH  11  16
HETATM   16  N   UNL     1      -9.908   3.494  68.952  1.00  0.00     0.069 NA 
HETATM   17  H   UNL     1      -9.911   2.865  69.754  1.00  0.00     0.000 HD 
BRANCH  16  18
HETATM   18  C   UNL     1      -9.167   3.037  67.835  1.00  0.00    -0.199 A  
HETATM   19  C   UNL     1      -8.151   3.852  67.306  1.00  0.00    -0.091 A  
HETATM   20  C   UNL     1      -7.813   2.323  65.458  1.00  0.00    -0.077 A  
HETATM   21  C   UNL     1      -7.481   3.500  66.125  1.00  0.00    -0.077 A  
HETATM   22  C   UNL     1      -9.488   1.865  67.135  1.00  0.00     0.084 A  
HETATM   23  C   UNL     1      -8.812   1.501  65.968  1.00  0.00    -0.118 A  
BRANCH  21  24
HETATM   24  C   UNL     1      -6.477   4.358  65.571  1.00  0.00    -0.040 C  
HETATM   25  C   UNL     1      -5.603   5.066  65.150  1.00  0.00    -0.014 C  
ENDBRANCH  21  24
ENDBRANCH  16  18
ENDBRANCH  11  16
BRANCH  13  26
HETATM   26  O   UNL     1      -7.525   6.327  72.452  1.00  0.00    -0.091 OA 
BRANCH  26  27
HETATM   27  C   UNL     1      -6.885   5.075  72.207  1.00  0.00    -0.062 C  
BRANCH  27  28
HETATM   28  C   UNL     1      -7.373   4.011  73.185  1.00  0.00    -0.069 C  
BRANCH  28  29
HETATM   29  O   UNL     1      -6.224   3.444  73.822  1.00  0.00    -0.017 OA 
HETATM   30  C   UNL     1      -5.337   4.438  74.309  1.00  0.00    -0.008 C  
ENDBRANCH  28  29
ENDBRANCH  27  28
ENDBRANCH  26  27
ENDBRANCH  13  26
ENDBRANCH   5   6
ENDBRANCH   4   5
ENDBRANCH   3   4
ENDBRANCH   2   3
TORSDOF 11
ENDMDL
MODEL      275
REMARK 921   NORMALIZED FREE ENERGY PREDICTED BY IDOCK:   19.09 KCAL/MOL
REMARK 922        TOTAL FREE ENERGY PREDICTED BY IDOCK:   30.24 KCAL/MOL
REMARK 923 INTER-LIGAND FREE ENERGY PREDICTED BY IDOCK:    6.40 KCAL/MOL
REMARK 924 INTRA-LIGAND FREE ENERGY PREDICTED BY IDOCK:   23.83 KCAL/MOL
REMARK 927      BINDING AFFINITY PREDICTED BY RF-SCORE:    0.00 PKD
ROOT
HETATM    1  C   UNL     1      -8.299   9.270  64.330  1.00  0.00    -0.171 C  
HETATM    2  O   UNL     1      -7.911   9.203  65.698  1.00  0.00    -0.103 OA 
ENDROOT
BRANCH   2   3
HETATM    3  C   UNL     1      -9.028   8.911  66.533  1.00  0.00    -0.155 C  
BRANCH   3   4
HETATM    4  C   UNL     1      -8.580   8.101  67.747  1.00  0.00    -0.131 C  
BRANCH   4   5
HETATM    5  O   UNL     1      -7.505   8.815  68.346  1.00  0.00    -0.088 OA 
BRANCH   5   6
HETATM    6  C   UNL     1      -7.454  10.174  68.282  1.00  0.00    -0.082 A  
HETATM    7  C   UNL     1      -6.782  10.953  69.232  1.00  0.00    -0.086 A  
HETATM    8  C   UNL     1      -6.751  12.338  69.171  1.00  0.00    -0.095 A  
HETATM    9  C   UNL     1      -7.379  12.995  68.104  1.00  0.00    -0.118 A  
HETATM   10  C   UNL     1      -8.036  12.207  67.120  1.00  0.00    -0.175 A  
HETATM   11  C   UNL     1      -7.278  14.405  68.121  1.00  0.00    -0.128 A  
HETATM   12  N   UNL     1      -6.652  15.051  69.124  1.00  0.00    -0.112 NA 
HETATM   13  C   UNL     1      -8.096  10.810  67.210  1.00  0.00    -0.117 A  
HETATM   14  N   UNL     1      -6.112  12.977  70.150  1.00  0.00    -0.131 NA 
HETATM   15  C   UNL     1      -6.100  14.309  70.084  1.00  0.00    -0.160 A  
BRANCH  11  16
HETATM   16  N   UNL     1      -7.789  15.158  67.031  1.00  0.00    -0.264 NA 
HETATM   17  H   UNL     1      -7.104  15.399  66.315  1.00  0.00     0.000 HD 
BRANCH  16  18
HETATM   18  C   UNL     1      -9.103  15.624  66.785  1.00  0.00    -0.254 A  
HETATM   19  C   UNL     1      -9.302  16.651  65.846  1.00  0.00    -0.192 A  
HETATM   20  C   UNL     1     -11.652  16.790  66.416  1.00  0.00     1.281 A  
HETATM   21  C   UNL     1     -10.565  17.233  65.665  1.00  0.00    -0.173 A  
HETATM   22  C   UNL     1     -10.212  15.207  67.534  1.00  0.00    -0.238 A  
HETATM   23  C   UNL     1     -11.477  15.771  67.346  1.00  0.00    -0.019 A  
BRANCH  21  24
HETATM   24  C   UNL     1     -10.749  18.308  64.737  1.00  0.00     2.084 C  
HETATM   25  C   UNL     1     -10.847  19.216  63.957  1.00  0.00     7.345 C  
ENDBRANCH  21  24
ENDBRANCH  16  18
ENDBRANCH  11  16
BRANCH  13  26
HETATM   26  O   UNL     1      -8.817  10.240  66.184  1.00  0.00    -0.145 OA 
BRANCH  26  27
HETATM   27  C   UNL     1      -9.778  11.057  65.517  1.00  0.00    -0.229 C  
BRANCH  27  28
HETATM   28  C   UNL     1     -10.069  12.324  66.316  1.00  0.00    -0.234 C  
BRANCH  28  29
HETATM   29  O   UNL     1     -11.378  12.776  65.957  1.00  0.00    -0.295 OA 
HETATM   30  C   UNL     1     -11.898  13.707  66.892  1.00  0.00    -0.411 C  
ENDBRANCH  28  29
ENDBRANCH  27  28
ENDBRANCH  26  27
ENDBRANCH  13  26
ENDBRANCH   5   6
ENDBRANCH   4   5
ENDBRANCH   3   4
ENDBRANCH   2   3
TORSDOF 11
ENDMDL
MODEL      276
REMARK 921   NORMALIZED FREE ENERGY PREDICTED BY IDOCK:   24.64 KCAL/MOL
REMARK 922        TOTAL FREE ENERGY PREDICTED BY IDOCK:   39.35 KCAL/MOL
REMARK 923 INTER-LIGAND FREE ENERGY PREDICTED BY IDOCK:   33.14 KCAL/MOL
REMARK 924 INTRA-LIGAND FREE ENERGY PREDICTED BY IDOCK:    6.20 KCAL/MOL
REMARK 927      BINDING AFFINITY PREDICTED BY RF-SCORE:    0.00 PKD
ROOT
HETATM    1  C   UNL     1     -10.645  12.727  69.276  1.00  0.00     0.162 C  
HETATM    2  O   UNL     1     -11.893  12.642  69.955  1.00  0.00    -0.318 OA 
ENDROOT
BRANCH   2   3
HETATM    3  C   UNL     1     -12.810  11.820  69.239  1.00  0.00     1.088 C  
BRANCH   3   4
HETATM    4  C   UNL     1     -14.173  11.829  69.926  1.00  0.00     6.782 C  
BRANCH   4   5
HETATM    5  O   UNL     1     -14.407  13.163  70.361  1.00  0.00     3.039 OA 
BRANCH   5   6
HETATM    6  C   UNL     1     -13.367  14.005  70.607  1.00  0.00     0.081 A  
HETATM    7  C   UNL     1     -12.801  14.159  71.879  1.00  0.00    -0.425 A  
HETATM    8  C   UNL     1     -11.754  15.035  72.126  1.00  0.00    -0.349 A  
HETATM    9  C   UNL     1     -11.207  15.772  71.067  1.00  0.00    -0.396 A  
HETATM   10  C   UNL     1     -11.758  15.597  69.769  1.00  0.00    -0.368 A  
HETATM   11  C   UNL     1     -10.134  16.624  71.417  1.00  0.00     3.475 A  
HETATM   12  N   UNL     1      -9.711  16.732  72.690  1.00  0.00     8.955 NA 
HETATM   13  C   UNL     1     -12.842  14.739  69.534  1.00  0.00     0.302 A  
HETATM   14  N   UNL     1     -11.319  15.125  73.382  1.00  0.00     0.191 NA 
HETATM   15  C   UNL     1     -10.320  15.979  73.608  1.00  0.00     6.671 A  
BRANCH  11  16
HETATM   16  N   UNL     1      -9.443  17.333  70.399  1.00  0.00     2.269 NA 
HETATM   17  H   UNL     1      -9.728  18.304  70.279  1.00  0.00     0.000 HD 
BRANCH  16  18
HETATM   18  C   UNL     1      -8.416  16.897  69.526  1.00  0.00     0.475 A  
HETATM   19  C   UNL     1      -7.927  15.584  69.643  1.00  0.00    -0.123 A  
HETATM   20  C   UNL     1      -6.201  16.024  68.002  1.00  0.00    -0.138 A  
HETATM   21  C   UNL     1      -6.826  15.151  68.891  1.00  0.00    -0.120 A  
HETATM   22  C   UNL     1      -7.760  17.756  68.633  1.00  0.00    -0.283 A  
HETATM   23  C   UNL     1      -6.673  17.325  67.868  1.00  0.00    -0.172 A  
BRANCH  21  24
HETATM   24  C   UNL     1      -6.308  13.826  69.049  1.00  0.00    -0.100 C  
HETATM   25  C   UNL     1      -5.923  12.694  69.164  1.00  0.00    -0.086 C  
ENDBRANCH  21  24
ENDBRANCH  16  18
ENDBRANCH  11  16
BRANCH  13  26
HETATM   26  O   UNL     1     -13.253  14.747  68.220  1.00  0.00     1.929 OA 
BRANCH  26  27
HETATM   27  C   UNL     1     -12.372  14.187  67.247  1.00  0.00    -0.147 C  
BRANCH  27  28
HETATM   28  C   UNL     1     -13.134  13.308  66.261  1.00  0.00     1.085 C  
BRANCH  28  29
HETATM   29  O   UNL     1     -12.180  12.721  65.371  1.00  0.00    -0.444 OA 
HETATM   30  C   UNL     1     -11.596  11.546  65.912  1.00  0.00     0.109 C  
ENDBRANCH  28  29
ENDBRANCH  27  28
ENDBRANCH  26  27
ENDBRANCH  13  26
ENDBRANCH   5   6
ENDBRANCH   4   5
ENDBRANCH   3   4
ENDBRANCH   2   3
TORSDOF 11
ENDMDL
MODEL      277
REMARK 921   NORMALIZED FREE ENERGY PREDICTED BY IDOCK:   26.99 KCAL/MOL
REMARK 922        TOTAL FREE ENERGY PREDICTED BY IDOCK:   43.20 KCAL/MOL
REMARK 923 INTER-LIGAND FREE ENERGY PREDICTED BY IDOCK:   42.85 KCAL/MOL
REMARK 924 INTRA-LIGAND FREE ENERGY PREDICTED BY IDOCK:    0.35 KCAL/MOL
REMARK 927      BINDING AFFINITY PREDICTED BY RF-SCORE:    0.00 PKD
ROOT
HETATM    1  C   UNL     1      -8.495  16.428  63.517  1.00  0.00    18.311 C  
HETATM    2  O   UNL     1      -9.455  17.451  63.759  1.00  0.00     8.133 OA 
ENDROOT
BRANCH   2   3
HETATM    3  C   UNL     1     -10.779  16.969  63.552  1.00  0.00     6.372 C  
BRANCH   3   4
HETATM    4  C   UNL     1     -11.231  16.138  64.750  1.00  0.00    -0.304 C  
BRANCH   4   5
HETATM    5  O   UNL     1     -10.207  15.183  65.000  1.00  0.00    -0.364 OA 
BRANCH   5   6
HETATM    6  C   UNL     1     -10.327  14.287  66.017  1.00  0.00    -0.309 A  
HETATM    7  C   UNL     1     -11.250  13.234  65.995  1.00  0.00    -0.316 A  
HETATM    8  C   UNL     1     -11.381  12.337  67.044  1.00  0.00    -0.334 A  
HETATM    9  C   UNL     1     -10.540  12.452  68.159  1.00  0.00    -0.232 A  
HETATM   10  C   UNL     1      -9.581  13.501  68.174  1.00  0.00    -0.215 A  
HETATM   11  C   UNL     1     -10.739  11.482  69.168  1.00  0.00    -0.168 A  
HETATM   12  N   UNL     1     -11.702  10.547  69.061  1.00  0.00    -0.216 NA 
HETATM   13  C   UNL     1      -9.481  14.427  67.126  1.00  0.00    -0.222 A  
HETATM   14  N   UNL     1     -12.318  11.396  66.929  1.00  0.00     0.853 NA 
HETATM   15  C   UNL     1     -12.440  10.548  67.950  1.00  0.00     2.969 A  
BRANCH  11  16
HETATM   16  N   UNL     1      -9.869  11.448  70.289  1.00  0.00     1.313 NA 
HETATM   17  H   UNL     1     -10.332  11.477  71.197  1.00  0.00     0.000 HD 
BRANCH  16  18
HETATM   18  C   UNL     1      -8.455  11.379  70.339  1.00  0.00     3.535 A  
HETATM   19  C   UNL     1      -7.825  10.126  70.244  1.00  0.00     0.052 A  
HETATM   20  C   UNL     1      -5.661  11.120  70.685  1.00  0.00    -0.125 A  
HETATM   21  C   UNL     1      -6.440   9.995  70.419  1.00  0.00    -0.125 A  
HETATM   22  C   UNL     1      -7.647  12.490  70.619  1.00  0.00     4.438 A  
HETATM   23  C   UNL     1      -6.264  12.369  70.777  1.00  0.00     0.558 A  
BRANCH  21  24
HETATM   24  C   UNL     1      -5.814   8.709  70.364  1.00  0.00    -0.027 C  
HETATM   25  C   UNL     1      -5.248   7.653  70.285  1.00  0.00    -0.023 C  
ENDBRANCH  21  24
ENDBRANCH  16  18
ENDBRANCH  11  16
BRANCH  13  26
HETATM   26  O   UNL     1      -8.522  15.389  67.355  1.00  0.00    -0.160 OA 
BRANCH  26  27
HETATM   27  C   UNL     1      -8.147  15.641  68.708  1.00  0.00    -0.169 C  
BRANCH  27  28
HETATM   28  C   UNL     1      -9.306  16.245  69.494  1.00  0.00    -0.028 C  
BRANCH  28  29
HETATM   29  O   UNL     1      -9.571  17.543  68.954  1.00  0.00    -0.279 OA 
HETATM   30  C   UNL     1     -10.895  17.654  68.456  1.00  0.00    -0.069 C  
ENDBRANCH  28  29
ENDBRANCH  27  28
ENDBRANCH  26  27
ENDBRANCH  13  26
ENDBRANCH   5   6
ENDBRANCH   4   5
ENDBRANCH   3   4
ENDBRANCH   2   3
TORSDOF 11
ENDMDL
MODEL      278
REMARK 921   NORMALIZED FREE ENERGY PREDICTED BY IDOCK:   34.94 KCAL/MOL
REMARK 922        TOTAL FREE ENERGY PREDICTED BY IDOCK:   56.27 KCAL/MOL
REMARK 923 INTER-LIGAND FREE ENERGY PREDICTED BY IDOCK:   17.16 KCAL/MOL
REMARK 924 INTRA-LIGAND FREE ENERGY PREDICTED BY IDOCK:   39.11 KCAL/MOL
REMARK 927      BINDING AFFINITY PREDICTED BY RF-SCORE:    0.00 PKD
ROOT
HETATM    1  C   UNL     1      -5.575  11.375  71.159  1.00  0.00     0.050 C  
HETATM    2  O   UNL     1      -6.203  10.136  70.851  1.00  0.00    -0.203 OA 
ENDROOT
BRANCH   2   3
HETATM    3  C   UNL     1      -6.840   9.585  72.000  1.00  0.00     0.634 C  
BRANCH   3   4
HETATM    4  C   UNL     1      -8.294  10.044  72.066  1.00  0.00     3.897 C  
BRANCH   4   5
HETATM    5  O   UNL     1      -9.045   8.961  72.604  1.00  0.00    -0.321 OA 
BRANCH   5   6
HETATM    6  C   UNL     1      -9.513   7.972  71.794  1.00  0.00    -0.169 A  
HETATM    7  C   UNL     1     -10.649   8.124  70.990  1.00  0.00    -0.242 A  
HETATM    8  C   UNL     1     -11.131   7.105  70.183  1.00  0.00    -0.272 A  
HETATM    9  C   UNL     1     -10.445   5.884  70.130  1.00  0.00    -0.329 A  
HETATM   10  C   UNL     1      -9.274   5.735  70.922  1.00  0.00    -0.174 A  
HETATM   11  C   UNL     1     -11.005   4.914  69.267  1.00  0.00     1.256 A  
HETATM   12  N   UNL     1     -12.140   5.156  68.584  1.00  0.00     5.991 NA 
HETATM   13  C   UNL     1      -8.815   6.756  71.764  1.00  0.00    -0.128 A  
HETATM   14  N   UNL     1     -12.241   7.351  69.488  1.00  0.00     0.986 NA 
HETATM   15  C   UNL     1     -12.700   6.359  68.725  1.00  0.00     6.077 A  
BRANCH  11  16
HETATM   16  N   UNL     1     -10.328   3.684  69.062  1.00  0.00     0.972 NA 
HETATM   17  H   UNL     1     -10.788   3.038  68.422  1.00  0.00     0.000 HD 
BRANCH  16  18
HETATM   18  C   UNL     1      -9.109   3.216  69.611  1.00  0.00    -0.136 A  
HETATM   19  C   UNL     1      -8.956   3.177  71.008  1.00  0.00    -0.164 A  
HETATM   20  C   UNL     1      -6.629   2.541  70.789  1.00  0.00    -0.031 A  
HETATM   21  C   UNL     1      -7.726   2.846  71.594  1.00  0.00    -0.048 A  
HETATM   22  C   UNL     1      -7.985   2.916  68.828  1.00  0.00    -0.065 A  
HETATM   23  C   UNL     1      -6.761   2.569  69.405  1.00  0.00    -0.033 A  
BRANCH  21  24
HETATM   24  C   UNL     1      -7.567   2.852  73.017  1.00  0.00    -0.050 C  
HETATM   25  C   UNL     1      -7.470   2.812  74.213  1.00  0.00    -0.043 C  
ENDBRANCH  21  24
ENDBRANCH  16  18
ENDBRANCH  11  16
BRANCH  13  26
HETATM   26  O   UNL     1      -7.694   6.395  72.477  1.00  0.00    -0.099 OA 
BRANCH  26  27
HETATM   27  C   UNL     1      -7.096   5.134  72.178  1.00  0.00    -0.083 C  
BRANCH  27  28
HETATM   28  C   UNL     1      -7.584   4.055  73.139  1.00  0.00    -0.075 C  
BRANCH  28  29
HETATM   29  O   UNL     1      -6.433   3.440  73.725  1.00  0.00    -0.027 OA 
HETATM   30  C   UNL     1      -5.923   2.387  72.923  1.00  0.00    -0.008 C  
ENDBRANCH  28  29
ENDBRANCH  27  28
ENDBRANCH  26  27
ENDBRANCH  13  26
ENDBRANCH   5   6
ENDBRANCH   4   5
ENDBRANCH   3   4
ENDBRANCH   2   3
TORSDOF 11
ENDMDL
