MODEL        1
REMARK 921   NORMALIZED FREE ENERGY PREDICTED BY IDOCK:   -8.45 KCAL/MOL
REMARK 922        TOTAL FREE ENERGY PREDICTED BY IDOCK:  -12.60 KCAL/MOL
REMARK 923 INTER-LIGAND FREE ENERGY PREDICTED BY IDOCK:  -10.91 KCAL/MOL
REMARK 924 INTRA-LIGAND FREE ENERGY PREDICTED BY IDOCK:   -1.68 KCAL/MOL
REMARK 927      BINDING AFFINITY PREDICTED BY RF-SCORE:    0.00 PKD
ROOT
HETATM    1  C   UNL     1     -10.772  10.200  70.151  1.00  0.00    -0.300 C  
HETATM    2  C   UNL     1     -10.319  10.337  68.695  1.00  0.00    -0.203 C  
HETATM    3  C   UNL     1     -10.737  11.753  68.352  1.00  0.00    -0.219 C  
HETATM    4  C   UNL     1     -10.907   9.229  67.832  1.00  0.00    -0.181 C  
HETATM    5  O   UNL     1     -13.431  11.651  71.463  1.00  0.00    -0.142 OA 
HETATM    6  C   UNL     1     -11.288  12.362  69.421  1.00  0.00    -0.220 C  
HETATM    7  C   UNL     1     -12.144   9.610  70.607  1.00  0.00    -0.269 C  
HETATM    8  N   UNL     1     -11.307  11.536  70.538  1.00  0.00     0.164 N  
HETATM    9  C   UNL     1     -11.751  13.782  69.509  1.00  0.00    -0.323 C  
HETATM   10  O   UNL     1     -11.373  14.675  68.769  1.00  0.00    -0.254 OA 
HETATM   11  O   UNL     1     -12.653  14.023  70.486  1.00  0.00    -0.335 OA 
HETATM   12  C   UNL     1     -12.474  11.038  71.045  1.00  0.00    -0.409 C  
ENDROOT
BRANCH   3  13
HETATM   13  S   UNL     1     -10.293  12.403  66.818  1.00  0.00    -0.223 SA 
BRANCH  13  14
HETATM   14  C   UNL     1     -11.804  12.262  65.787  1.00  0.00    -0.352 C  
HETATM   15  C   UNL     1     -11.548  12.095  64.294  1.00  0.00    -0.370 C  
HETATM   16  N   UNL     1     -11.235  13.441  63.846  1.00  0.00    -0.575 NA 
HETATM   17  C   UNL     1     -12.123  14.373  64.577  1.00  0.00    -0.481 C  
HETATM   18  C   UNL     1     -12.542  13.608  65.838  1.00  0.00    -0.478 C  
HETATM   19  H   UNL     1     -11.296  13.547  62.833  1.00  0.00     0.000 HD 
BRANCH  17  20
HETATM   20  C   UNL     1     -11.387  15.733  64.747  1.00  0.00    -0.314 C  
HETATM   21  O   UNL     1     -11.566  16.635  63.927  1.00  0.00    -1.204 OA 
HETATM   22  N   UNL     1     -10.643  15.869  65.911  1.00  0.00    -0.336 N  
HETATM   23  H   UNL     1     -10.650  15.078  66.554  1.00  0.00     0.000 HD 
BRANCH  22  24
HETATM   24  C   UNL     1      -9.873  16.995  66.300  1.00  0.00    -0.294 A  
HETATM   25  C   UNL     1     -10.423  18.174  66.815  1.00  0.00    -0.363 A  
HETATM   26  C   UNL     1      -9.609  19.247  67.194  1.00  0.00    -0.397 A  
HETATM   27  C   UNL     1      -8.228  19.164  67.052  1.00  0.00    -0.285 A  
HETATM   28  C   UNL     1      -7.663  18.006  66.508  1.00  0.00    -0.283 A  
HETATM   29  C   UNL     1      -6.197  17.869  66.330  1.00  0.00    -0.223 C  
HETATM   30  C   UNL     1      -8.484  16.919  66.154  1.00  0.00    -0.281 A  
HETATM   31  O   UNL     1      -5.568  19.027  66.031  1.00  0.00    -0.150 OA 
HETATM   32  O   UNL     1      -5.621  16.798  66.408  1.00  0.00    -0.337 OA 
ENDBRANCH  22  24
ENDBRANCH  17  20
ENDBRANCH  13  14
ENDBRANCH   3  13
BRANCH   7  33
HETATM   33  C   UNL     1     -12.044   8.522  71.659  1.00  0.00    -0.321 C  
HETATM   34  O   UNL     1     -13.004   8.837  72.667  1.00  0.00    -0.550 OA 
HETATM   35  H   UNL     1     -12.941   8.155  73.326  1.00  0.00     0.000 HD 
HETATM   36  C   UNL     1     -10.657   8.481  72.282  1.00  0.00    -0.408 C  
ENDBRANCH   7  33
TORSDOF 5
ENDMDL
MODEL        2
REMARK 921   NORMALIZED FREE ENERGY PREDICTED BY IDOCK:   -8.37 KCAL/MOL
REMARK 922        TOTAL FREE ENERGY PREDICTED BY IDOCK:  -12.50 KCAL/MOL
REMARK 923 INTER-LIGAND FREE ENERGY PREDICTED BY IDOCK:  -11.33 KCAL/MOL
REMARK 924 INTRA-LIGAND FREE ENERGY PREDICTED BY IDOCK:   -1.17 KCAL/MOL
REMARK 927      BINDING AFFINITY PREDICTED BY RF-SCORE:    0.00 PKD
ROOT
HETATM    1  C   UNL     1     -12.133  10.194  70.113  1.00  0.00    -0.149 C  
HETATM    2  C   UNL     1     -12.113  11.569  69.440  1.00  0.00    -0.345 C  
HETATM    3  C   UNL     1     -10.824  11.528  68.644  1.00  0.00    -0.212 C  
HETATM    4  C   UNL     1     -12.238  12.684  70.470  1.00  0.00    -0.383 C  
HETATM    5  O   UNL     1      -9.466   8.521  71.106  1.00  0.00    -0.165 OA 
HETATM    6  C   UNL     1     -10.218  10.331  68.776  1.00  0.00    -0.192 C  
HETATM    7  C   UNL     1     -11.584   9.892  71.544  1.00  0.00    -0.375 C  
HETATM    8  N   UNL     1     -10.943   9.467  69.588  1.00  0.00    -0.227 N  
HETATM    9  C   UNL     1      -8.972   9.871  68.088  1.00  0.00    -0.118 C  
HETATM   10  O   UNL     1      -8.538  10.358  67.056  1.00  0.00    -0.129 OA 
HETATM   11  O   UNL     1      -8.327   8.855  68.703  1.00  0.00    -0.121 OA 
HETATM   12  C   UNL     1     -10.495   9.094  70.823  1.00  0.00    -0.257 C  
ENDROOT
BRANCH   3  13
HETATM   13  S   UNL     1     -10.452  12.844  67.596  1.00  0.00    -0.227 SA 
BRANCH  13  14
HETATM   14  C   UNL     1     -11.432  12.534  66.077  1.00  0.00    -0.377 C  
HETATM   15  C   UNL     1     -10.611  12.395  64.800  1.00  0.00    -0.300 C  
HETATM   16  N   UNL     1     -10.292  13.767  64.446  1.00  0.00    -0.665 NA 
HETATM   17  C   UNL     1     -11.483  14.595  64.745  1.00  0.00    -0.410 C  
HETATM   18  C   UNL     1     -12.269  13.788  65.786  1.00  0.00    -0.495 C  
HETATM   19  H   UNL     1      -9.973  13.865  63.481  1.00  0.00     0.000 HD 
BRANCH  17  20
HETATM   20  C   UNL     1     -11.012  16.029  65.122  1.00  0.00    -0.348 C  
HETATM   21  O   UNL     1     -11.165  16.955  64.324  1.00  0.00    -1.204 OA 
HETATM   22  N   UNL     1     -10.540  16.183  66.418  1.00  0.00    -0.297 N  
HETATM   23  H   UNL     1     -10.551  15.352  67.010  1.00  0.00     0.000 HD 
BRANCH  22  24
HETATM   24  C   UNL     1     -10.044  17.374  67.005  1.00  0.00    -0.313 A  
HETATM   25  C   UNL     1     -10.719  18.599  66.972  1.00  0.00    -0.400 A  
HETATM   26  C   UNL     1     -10.183  19.738  67.582  1.00  0.00    -0.569 A  
HETATM   27  C   UNL     1      -8.953  19.675  68.228  1.00  0.00    -0.378 A  
HETATM   28  C   UNL     1      -8.248  18.466  68.243  1.00  0.00    -0.317 A  
HETATM   29  C   UNL     1      -6.931  18.347  68.914  1.00  0.00    -0.282 C  
HETATM   30  C   UNL     1      -8.804  17.317  67.652  1.00  0.00    -0.220 A  
HETATM   31  O   UNL     1      -6.178  19.467  68.851  1.00  0.00    -0.231 OA 
HETATM   32  O   UNL     1      -6.550  17.315  69.438  1.00  0.00    -0.241 OA 
ENDBRANCH  22  24
ENDBRANCH  17  20
ENDBRANCH  13  14
ENDBRANCH   3  13
BRANCH   7  33
HETATM   33  C   UNL     1     -12.554   9.161  72.450  1.00  0.00    -0.311 C  
HETATM   34  O   UNL     1     -11.902   7.962  72.868  1.00  0.00    -0.600 OA 
HETATM   35  H   UNL     1     -12.511   7.504  73.435  1.00  0.00     0.000 HD 
HETATM   36  C   UNL     1     -13.837   8.805  71.715  1.00  0.00    -0.469 C  
ENDBRANCH   7  33
TORSDOF 5
ENDMDL
MODEL        3
REMARK 921   NORMALIZED FREE ENERGY PREDICTED BY IDOCK:   -7.99 KCAL/MOL
REMARK 922        TOTAL FREE ENERGY PREDICTED BY IDOCK:  -12.01 KCAL/MOL
REMARK 923 INTER-LIGAND FREE ENERGY PREDICTED BY IDOCK:  -10.71 KCAL/MOL
REMARK 924 INTRA-LIGAND FREE ENERGY PREDICTED BY IDOCK:   -1.30 KCAL/MOL
REMARK 927      BINDING AFFINITY PREDICTED BY RF-SCORE:    0.00 PKD
ROOT
HETATM    1  C   UNL     1     -10.599  10.150  70.121  1.00  0.00    -0.281 C  
HETATM    2  C   UNL     1     -10.136  10.376  68.679  1.00  0.00    -0.188 C  
HETATM    3  C   UNL     1     -10.714  11.740  68.357  1.00  0.00    -0.219 C  
HETATM    4  C   UNL     1     -10.570   9.227  67.779  1.00  0.00    -0.307 C  
HETATM    5  O   UNL     1     -13.439  11.240  71.403  1.00  0.00    -0.110 OA 
HETATM    6  C   UNL     1     -11.355  12.252  69.427  1.00  0.00    -0.228 C  
HETATM    7  C   UNL     1     -11.899   9.389  70.532  1.00  0.00    -0.207 C  
HETATM    8  N   UNL     1     -11.298  11.403  70.525  1.00  0.00     0.074 N  
HETATM    9  C   UNL     1     -11.988  13.604  69.536  1.00  0.00    -0.341 C  
HETATM   10  O   UNL     1     -11.705  14.554  68.823  1.00  0.00    -0.296 OA 
HETATM   11  O   UNL     1     -12.932  13.712  70.497  1.00  0.00    -0.156 OA 
HETATM   12  C   UNL     1     -12.406  10.757  70.994  1.00  0.00    -0.404 C  
ENDROOT
BRANCH   3  13
HETATM   13  S   UNL     1     -10.321  12.475  66.849  1.00  0.00    -0.230 SA 
BRANCH  13  14
HETATM   14  C   UNL     1     -11.830  12.292  65.823  1.00  0.00    -0.352 C  
HETATM   15  C   UNL     1     -11.574  12.123  64.330  1.00  0.00    -0.370 C  
HETATM   16  N   UNL     1     -11.296  13.473  63.873  1.00  0.00    -0.596 NA 
HETATM   17  C   UNL     1     -12.204  14.388  64.602  1.00  0.00    -0.464 C  
HETATM   18  C   UNL     1     -12.601  13.619  65.869  1.00  0.00    -0.478 C  
HETATM   19  H   UNL     1     -11.362  13.572  62.860  1.00  0.00     0.000 HD 
BRANCH  17  20
HETATM   20  C   UNL     1     -11.501  15.766  64.762  1.00  0.00    -0.255 C  
HETATM   21  O   UNL     1     -11.621  16.623  63.885  1.00  0.00    -1.204 OA 
HETATM   22  N   UNL     1     -10.859  15.973  65.976  1.00  0.00    -0.245 N  
HETATM   23  H   UNL     1     -10.911  15.215  66.656  1.00  0.00     0.000 HD 
BRANCH  22  24
HETATM   24  C   UNL     1     -10.139  17.129  66.369  1.00  0.00    -0.320 A  
HETATM   25  C   UNL     1     -10.515  18.434  66.032  1.00  0.00    -0.400 A  
HETATM   26  C   UNL     1      -9.769  19.536  66.462  1.00  0.00    -0.478 A  
HETATM   27  C   UNL     1      -8.623  19.352  67.228  1.00  0.00    -0.329 A  
HETATM   28  C   UNL     1      -8.213  18.053  67.547  1.00  0.00    -0.235 A  
HETATM   29  C   UNL     1      -6.996  17.803  68.356  1.00  0.00    -0.228 C  
HETATM   30  C   UNL     1      -8.982  16.950  67.136  1.00  0.00    -0.219 A  
HETATM   31  O   UNL     1      -6.006  18.699  68.155  1.00  0.00    -0.195 OA 
HETATM   32  O   UNL     1      -6.888  16.847  69.105  1.00  0.00    -0.219 OA 
ENDBRANCH  22  24
ENDBRANCH  17  20
ENDBRANCH  13  14
ENDBRANCH   3  13
BRANCH   7  33
HETATM   33  C   UNL     1     -11.690   8.296  71.562  1.00  0.00    -0.292 C  
HETATM   34  O   UNL     1     -12.705   8.465  72.551  1.00  0.00    -0.533 OA 
HETATM   35  H   UNL     1     -12.573   7.780  73.197  1.00  0.00     0.000 HD 
HETATM   36  C   UNL     1     -10.323   8.409  72.220  1.00  0.00    -0.403 C  
ENDBRANCH   7  33
TORSDOF 5
ENDMDL
MODEL        4
REMARK 921   NORMALIZED FREE ENERGY PREDICTED BY IDOCK:   -7.82 KCAL/MOL
REMARK 922        TOTAL FREE ENERGY PREDICTED BY IDOCK:  -11.79 KCAL/MOL
REMARK 923 INTER-LIGAND FREE ENERGY PREDICTED BY IDOCK:  -10.57 KCAL/MOL
REMARK 924 INTRA-LIGAND FREE ENERGY PREDICTED BY IDOCK:   -1.22 KCAL/MOL
REMARK 927      BINDING AFFINITY PREDICTED BY RF-SCORE:    0.00 PKD
ROOT
HETATM    1  C   UNL     1      -9.581  15.178  65.943  1.00  0.00    -0.338 C  
HETATM    2  C   UNL     1      -9.508  13.878  66.749  1.00  0.00    -0.287 C  
HETATM    3  C   UNL     1     -10.359  12.932  65.926  1.00  0.00    -0.285 C  
HETATM    4  C   UNL     1      -9.944  14.103  68.190  1.00  0.00    -0.232 C  
HETATM    5  O   UNL     1     -12.185  16.184  64.181  1.00  0.00    -0.700 OA 
HETATM    6  C   UNL     1     -10.811  13.541  64.811  1.00  0.00    -0.381 C  
HETATM    7  C   UNL     1     -10.607  16.328  66.193  1.00  0.00    -0.272 C  
HETATM    8  N   UNL     1     -10.362  14.853  64.716  1.00  0.00    -0.304 N  
HETATM    9  C   UNL     1     -11.613  12.924  63.709  1.00  0.00    -0.475 C  
HETATM   10  O   UNL     1     -11.662  11.726  63.483  1.00  0.00    -0.450 OA 
HETATM   11  O   UNL     1     -12.313  13.803  62.958  1.00  0.00    -0.661 OA 
HETATM   12  C   UNL     1     -11.211  15.915  64.849  1.00  0.00    -0.337 C  
ENDROOT
BRANCH   3  13
HETATM   13  S   UNL     1     -10.452  11.276  66.393  1.00  0.00    -0.264 SA 
BRANCH  13  14
HETATM   14  C   UNL     1      -8.885  10.528  65.803  1.00  0.00    -0.175 C  
HETATM   15  C   UNL     1      -9.054   9.390  64.801  1.00  0.00    -0.193 C  
HETATM   16  N   UNL     1      -9.413   8.253  65.630  1.00  0.00    -0.430 NA 
HETATM   17  C   UNL     1      -8.613   8.336  66.874  1.00  0.00    -0.119 C  
HETATM   18  C   UNL     1      -8.221   9.814  66.989  1.00  0.00    -0.117 C  
HETATM   19  H   UNL     1      -9.305   7.360  65.148  1.00  0.00     0.000 HD 
BRANCH  17  20
HETATM   20  C   UNL     1      -9.426   7.694  68.034  1.00  0.00    -0.143 C  
HETATM   21  O   UNL     1      -9.718   6.497  67.991  1.00  0.00    -0.119 OA 
HETATM   22  N   UNL     1      -9.675   8.521  69.120  1.00  0.00    -0.168 N  
HETATM   23  H   UNL     1      -9.299   9.467  69.070  1.00  0.00     0.000 HD 
BRANCH  22  24
HETATM   24  C   UNL     1     -10.398   8.188  70.293  1.00  0.00    -0.209 A  
HETATM   25  C   UNL     1     -10.108   7.081  71.099  1.00  0.00    -0.197 A  
HETATM   26  C   UNL     1     -10.851   6.812  72.254  1.00  0.00    -0.263 A  
HETATM   27  C   UNL     1     -11.907   7.640  72.617  1.00  0.00    -0.269 A  
HETATM   28  C   UNL     1     -12.233   8.733  71.806  1.00  0.00    -0.415 A  
HETATM   29  C   UNL     1     -13.353   9.643  72.146  1.00  0.00    -0.454 C  
HETATM   30  C   UNL     1     -11.465   9.015  70.662  1.00  0.00    -0.291 A  
HETATM   31  O   UNL     1     -14.392   9.033  72.757  1.00  0.00    -0.596 OA 
HETATM   32  O   UNL     1     -13.347  10.828  71.862  1.00  0.00    -0.427 OA 
ENDBRANCH  22  24
ENDBRANCH  17  20
ENDBRANCH  13  14
ENDBRANCH   3  13
BRANCH   7  33
HETATM   33  C   UNL     1      -9.989  17.705  66.331  1.00  0.00    -0.334 C  
HETATM   34  O   UNL     1     -10.662  18.551  65.399  1.00  0.00    -0.585 OA 
HETATM   35  H   UNL     1     -10.274  19.415  65.485  1.00  0.00     0.000 HD 
HETATM   36  C   UNL     1      -8.504  17.681  66.006  1.00  0.00    -0.078 C  
ENDBRANCH   7  33
TORSDOF 5
ENDMDL
MODEL        5
REMARK 921   NORMALIZED FREE ENERGY PREDICTED BY IDOCK:   -7.76 KCAL/MOL
REMARK 922        TOTAL FREE ENERGY PREDICTED BY IDOCK:  -11.71 KCAL/MOL
REMARK 923 INTER-LIGAND FREE ENERGY PREDICTED BY IDOCK:  -10.30 KCAL/MOL
REMARK 924 INTRA-LIGAND FREE ENERGY PREDICTED BY IDOCK:   -1.41 KCAL/MOL
REMARK 927      BINDING AFFINITY PREDICTED BY RF-SCORE:    0.00 PKD
ROOT
HETATM    1  C   UNL     1     -10.655   9.129  70.463  1.00  0.00    -0.235 C  
HETATM    2  C   UNL     1     -10.108   9.801  69.201  1.00  0.00    -0.200 C  
HETATM    3  C   UNL     1     -10.789  11.154  69.227  1.00  0.00    -0.229 C  
HETATM    4  C   UNL     1     -10.359   8.939  67.970  1.00  0.00    -0.271 C  
HETATM    5  O   UNL     1     -13.676   9.592  71.711  1.00  0.00    -0.363 OA 
HETATM    6  C   UNL     1     -11.556  11.284  70.328  1.00  0.00    -0.275 C  
HETATM    7  C   UNL     1     -11.903   8.191  70.506  1.00  0.00    -0.010 C  
HETATM    8  N   UNL     1     -11.500  10.155  71.137  1.00  0.00    -0.350 N  
HETATM    9  C   UNL     1     -12.322  12.495  70.755  1.00  0.00    -0.286 C  
HETATM   10  O   UNL     1     -12.079  13.630  70.378  1.00  0.00    -0.332 OA 
HETATM   11  O   UNL     1     -13.342  12.249  71.607  1.00  0.00    -0.342 OA 
HETATM   12  C   UNL     1     -12.574   9.323  71.287  1.00  0.00    -0.306 C  
ENDROOT
BRANCH   3  13
HETATM   13  S   UNL     1     -10.355  12.327  68.040  1.00  0.00    -0.220 SA 
BRANCH  13  14
HETATM   14  C   UNL     1     -11.595  12.132  66.704  1.00  0.00    -0.350 C  
HETATM   15  C   UNL     1     -11.011  11.913  65.313  1.00  0.00    -0.302 C  
HETATM   16  N   UNL     1     -10.610  13.245  64.895  1.00  0.00    -0.344 NA 
HETATM   17  C   UNL     1     -11.641  14.194  65.373  1.00  0.00    -0.334 C  
HETATM   18  C   UNL     1     -12.330  13.470  66.537  1.00  0.00    -0.382 C  
HETATM   19  H   UNL     1     -10.443  13.314  63.891  1.00  0.00     0.000 HD 
BRANCH  17  20
HETATM   20  C   UNL     1     -10.966  15.567  65.652  1.00  0.00    -0.303 C  
HETATM   21  O   UNL     1     -10.810  16.373  64.733  1.00  0.00    -0.697 OA 
HETATM   22  N   UNL     1     -10.679  15.834  66.984  1.00  0.00    -0.317 N  
HETATM   23  H   UNL     1     -10.943  15.118  67.660  1.00  0.00     0.000 HD 
BRANCH  22  24
HETATM   24  C   UNL     1     -10.059  16.999  67.502  1.00  0.00    -0.294 A  
HETATM   25  C   UNL     1     -10.677  18.253  67.554  1.00  0.00    -0.381 A  
HETATM   26  C   UNL     1     -10.016  19.363  68.091  1.00  0.00    -0.510 A  
HETATM   27  C   UNL     1      -8.717  19.242  68.573  1.00  0.00    -0.405 A  
HETATM   28  C   UNL     1      -8.072  18.003  68.499  1.00  0.00    -0.306 A  
HETATM   29  C   UNL     1      -6.686  17.821  68.995  1.00  0.00    -0.246 C  
HETATM   30  C   UNL     1      -8.750  16.883  67.985  1.00  0.00    -0.215 A  
HETATM   31  O   UNL     1      -5.898  18.906  68.836  1.00  0.00    -0.207 OA 
HETATM   32  O   UNL     1      -6.288  16.770  69.466  1.00  0.00    -0.214 OA 
ENDBRANCH  22  24
ENDBRANCH  17  20
ENDBRANCH  13  14
ENDBRANCH   3  13
BRANCH   7  33
HETATM   33  C   UNL     1     -11.668   6.861  71.195  1.00  0.00    -0.336 C  
HETATM   34  O   UNL     1     -12.555   6.816  72.312  1.00  0.00    -0.527 OA 
HETATM   35  H   UNL     1     -12.408   5.982  72.744  1.00  0.00     0.000 HD 
HETATM   36  C   UNL     1     -10.234   6.737  71.686  1.00  0.00    -0.208 C  
ENDBRANCH   7  33
TORSDOF 5
ENDMDL
MODEL        6
REMARK 921   NORMALIZED FREE ENERGY PREDICTED BY IDOCK:   -7.69 KCAL/MOL
REMARK 922        TOTAL FREE ENERGY PREDICTED BY IDOCK:  -11.62 KCAL/MOL
REMARK 923 INTER-LIGAND FREE ENERGY PREDICTED BY IDOCK:  -10.22 KCAL/MOL
REMARK 924 INTRA-LIGAND FREE ENERGY PREDICTED BY IDOCK:   -1.40 KCAL/MOL
REMARK 927      BINDING AFFINITY PREDICTED BY RF-SCORE:    0.00 PKD
ROOT
HETATM    1  C   UNL     1      -8.465  18.248  67.429  1.00  0.00    -0.249 C  
HETATM    2  C   UNL     1      -9.869  17.669  67.236  1.00  0.00    -0.303 C  
HETATM    3  C   UNL     1      -9.617  16.175  67.266  1.00  0.00    -0.229 C  
HETATM    4  C   UNL     1     -10.520  18.221  65.974  1.00  0.00    -0.380 C  
HETATM    5  O   UNL     1      -5.672  16.880  66.322  1.00  0.00    -0.324 OA 
HETATM    6  C   UNL     1      -8.313  15.914  67.489  1.00  0.00    -0.163 C  
HETATM    7  C   UNL     1      -7.505  18.667  66.270  1.00  0.00    -0.288 C  
HETATM    8  N   UNL     1      -7.568  17.078  67.644  1.00  0.00    -0.163 N  
HETATM    9  C   UNL     1      -7.680  14.570  67.667  1.00  0.00    -0.179 C  
HETATM   10  O   UNL     1      -8.288  13.563  67.994  1.00  0.00    -0.146 OA 
HETATM   11  O   UNL     1      -6.351  14.534  67.425  1.00  0.00    -0.322 OA 
HETATM   12  C   UNL     1      -6.653  17.475  66.711  1.00  0.00    -0.199 C  
ENDROOT
BRANCH   3  13
HETATM   13  S   UNL     1     -10.965  15.103  67.222  1.00  0.00    -0.329 SA 
BRANCH  13  14
HETATM   14  C   UNL     1     -11.143  14.637  65.456  1.00  0.00    -0.345 C  
HETATM   15  C   UNL     1     -12.488  14.021  65.088  1.00  0.00    -0.452 C  
HETATM   16  N   UNL     1     -12.376  12.649  65.552  1.00  0.00    -0.632 NA 
HETATM   17  C   UNL     1     -10.995  12.194  65.274  1.00  0.00    -0.304 C  
HETATM   18  C   UNL     1     -10.172  13.484  65.168  1.00  0.00    -0.334 C  
HETATM   19  H   UNL     1     -13.085  12.034  65.150  1.00  0.00     0.000 HD 
BRANCH  17  20
HETATM   20  C   UNL     1     -10.590  11.144  66.347  1.00  0.00    -0.261 C  
HETATM   21  O   UNL     1     -10.068  10.082  66.002  1.00  0.00    -0.254 OA 
HETATM   22  N   UNL     1     -10.752  11.544  67.667  1.00  0.00    -0.201 N  
HETATM   23  H   UNL     1     -11.110  12.486  67.818  1.00  0.00     0.000 HD 
BRANCH  22  24
HETATM   24  C   UNL     1     -10.471  10.778  68.827  1.00  0.00    -0.199 A  
HETATM   25  C   UNL     1      -9.212  10.243  69.122  1.00  0.00    -0.203 A  
HETATM   26  C   UNL     1      -8.995   9.506  70.291  1.00  0.00    -0.288 A  
HETATM   27  C   UNL     1     -10.038   9.279  71.181  1.00  0.00    -0.374 A  
HETATM   28  C   UNL     1     -11.312   9.778  70.887  1.00  0.00    -0.439 A  
HETATM   29  C   UNL     1     -12.459   9.559  71.801  1.00  0.00    -0.401 C  
HETATM   30  C   UNL     1     -11.519  10.542  69.725  1.00  0.00    -0.365 A  
HETATM   31  O   UNL     1     -12.426   8.377  72.453  1.00  0.00    -0.359 OA 
HETATM   32  O   UNL     1     -13.369  10.362  71.919  1.00  0.00    -0.412 OA 
ENDBRANCH  22  24
ENDBRANCH  17  20
ENDBRANCH  13  14
ENDBRANCH   3  13
BRANCH   7  33
HETATM   33  C   UNL     1      -6.936  20.066  66.400  1.00  0.00    -0.240 C  
HETATM   34  O   UNL     1      -8.008  20.908  66.822  1.00  0.00    -0.554 OA 
HETATM   35  H   UNL     1      -7.650  21.785  66.903  1.00  0.00     0.000 HD 
HETATM   36  C   UNL     1      -6.396  20.570  65.070  1.00  0.00    -0.325 C  
ENDBRANCH   7  33
TORSDOF 5
ENDMDL
MODEL        7
REMARK 921   NORMALIZED FREE ENERGY PREDICTED BY IDOCK:   -7.59 KCAL/MOL
REMARK 922        TOTAL FREE ENERGY PREDICTED BY IDOCK:  -11.49 KCAL/MOL
REMARK 923 INTER-LIGAND FREE ENERGY PREDICTED BY IDOCK:  -10.23 KCAL/MOL
REMARK 924 INTRA-LIGAND FREE ENERGY PREDICTED BY IDOCK:   -1.26 KCAL/MOL
REMARK 927      BINDING AFFINITY PREDICTED BY RF-SCORE:    0.00 PKD
ROOT
HETATM    1  C   UNL     1      -9.793   9.389  69.054  1.00  0.00    -0.169 C  
HETATM    2  C   UNL     1      -9.489   9.773  67.604  1.00  0.00    -0.164 C  
HETATM    3  C   UNL     1     -10.008  11.195  67.525  1.00  0.00    -0.181 C  
HETATM    4  C   UNL     1     -10.101   8.773  66.633  1.00  0.00    -0.358 C  
HETATM    5  O   UNL     1     -12.383  10.451  70.804  1.00  0.00    -0.311 OA 
HETATM    6  C   UNL     1     -10.484  11.599  68.720  1.00  0.00    -0.204 C  
HETATM    7  C   UNL     1     -11.084   8.649  69.530  1.00  0.00     0.019 C  
HETATM    8  N   UNL     1     -10.354  10.614  69.692  1.00  0.00    -0.190 N  
HETATM    9  C   UNL     1     -11.007  12.956  69.070  1.00  0.00    -0.197 C  
HETATM   10  O   UNL     1     -10.746  13.974  68.448  1.00  0.00    -0.238 OA 
HETATM   11  O   UNL     1     -11.822  12.989  70.147  1.00  0.00    -0.313 OA 
HETATM   12  C   UNL     1     -11.441   9.971  70.214  1.00  0.00    -0.300 C  
ENDROOT
BRANCH   3  13
HETATM   13  S   UNL     1      -9.746  12.097  66.080  1.00  0.00    -0.233 SA 
BRANCH  13  14
HETATM   14  C   UNL     1     -11.341  12.024  65.178  1.00  0.00    -0.304 C  
HETATM   15  C   UNL     1     -11.230  12.159  63.664  1.00  0.00    -0.464 C  
HETATM   16  N   UNL     1     -11.054  13.586  63.458  1.00  0.00    -0.337 NA 
HETATM   17  C   UNL     1     -11.922  14.288  64.431  1.00  0.00    -0.456 C  
HETATM   18  C   UNL     1     -12.158  13.269  65.553  1.00  0.00    -0.480 C  
HETATM   19  H   UNL     1     -11.226  13.874  62.494  1.00  0.00     0.000 HD 
BRANCH  17  20
HETATM   20  C   UNL     1     -11.264  15.650  64.796  1.00  0.00    -0.382 C  
HETATM   21  O   UNL     1     -11.288  16.580  63.987  1.00  0.00    -1.064 OA 
HETATM   22  N   UNL     1     -10.779  15.752  66.092  1.00  0.00    -0.312 N  
HETATM   23  H   UNL     1     -10.903  14.938  66.693  1.00  0.00     0.000 HD 
BRANCH  22  24
HETATM   24  C   UNL     1     -10.129  16.873  66.670  1.00  0.00    -0.304 A  
HETATM   25  C   UNL     1     -10.524  17.468  67.873  1.00  0.00    -0.384 A  
HETATM   26  C   UNL     1      -9.832  18.565  68.398  1.00  0.00    -0.404 A  
HETATM   27  C   UNL     1      -8.739  19.095  67.722  1.00  0.00    -0.336 A  
HETATM   28  C   UNL     1      -8.350  18.533  66.501  1.00  0.00    -0.297 A  
HETATM   29  C   UNL     1      -7.194  19.063  65.738  1.00  0.00    -0.230 C  
HETATM   30  C   UNL     1      -9.031  17.413  65.991  1.00  0.00    -0.086 A  
HETATM   31  O   UNL     1      -7.025  20.398  65.852  1.00  0.00    -0.262 OA 
HETATM   32  O   UNL     1      -6.486  18.358  65.040  1.00  0.00    -0.436 OA 
ENDBRANCH  22  24
ENDBRANCH  17  20
ENDBRANCH  13  14
ENDBRANCH   3  13
BRANCH   7  33
HETATM   33  C   UNL     1     -10.829   7.424  70.386  1.00  0.00    -0.243 C  
HETATM   34  O   UNL     1     -10.464   6.371  69.495  1.00  0.00    -0.194 OA 
HETATM   35  H   UNL     1     -10.304   5.603  70.031  1.00  0.00     0.000 HD 
HETATM   36  C   UNL     1     -12.075   7.019  71.158  1.00  0.00    -0.412 C  
ENDBRANCH   7  33
TORSDOF 5
ENDMDL
MODEL        8
REMARK 921   NORMALIZED FREE ENERGY PREDICTED BY IDOCK:   -7.57 KCAL/MOL
REMARK 922        TOTAL FREE ENERGY PREDICTED BY IDOCK:  -11.47 KCAL/MOL
REMARK 923 INTER-LIGAND FREE ENERGY PREDICTED BY IDOCK:  -10.35 KCAL/MOL
REMARK 924 INTRA-LIGAND FREE ENERGY PREDICTED BY IDOCK:   -1.12 KCAL/MOL
REMARK 927      BINDING AFFINITY PREDICTED BY RF-SCORE:    0.00 PKD
ROOT
HETATM    1  C   UNL     1     -11.512  10.079  69.002  1.00  0.00    -0.012 C  
HETATM    2  C   UNL     1     -11.577  11.260  68.030  1.00  0.00    -0.343 C  
HETATM    3  C   UNL     1     -10.678  10.804  66.898  1.00  0.00    -0.252 C  
HETATM    4  C   UNL     1     -11.189  12.559  68.722  1.00  0.00    -0.318 C  
HETATM    5  O   UNL     1      -8.881   8.140  69.471  1.00  0.00    -0.141 OA 
HETATM    6  C   UNL     1     -10.209   9.561  67.129  1.00  0.00    -0.242 C  
HETATM    7  C   UNL     1     -10.521   9.965  70.204  1.00  0.00    -0.339 C  
HETATM    8  N   UNL     1     -10.687   9.039  68.325  1.00  0.00    -0.154 N  
HETATM    9  C   UNL     1      -9.360   8.734  66.216  1.00  0.00    -0.222 C  
HETATM   10  O   UNL     1      -9.275   8.909  65.011  1.00  0.00    -0.130 OA 
HETATM   11  O   UNL     1      -8.660   7.754  66.828  1.00  0.00    -0.124 OA 
HETATM   12  C   UNL     1      -9.868   8.838  69.400  1.00  0.00    -0.186 C  
ENDROOT
BRANCH   3  13
HETATM   13  S   UNL     1     -10.559  11.784  65.485  1.00  0.00    -0.285 SA 
BRANCH  13  14
HETATM   14  C   UNL     1     -12.294  12.120  64.992  1.00  0.00    -0.117 C  
HETATM   15  C   UNL     1     -12.510  12.320  63.496  1.00  0.00    -0.534 C  
HETATM   16  N   UNL     1     -12.064  13.683  63.265  1.00  0.00    -0.975 NA 
HETATM   17  C   UNL     1     -12.498  14.498  64.422  1.00  0.00    -0.309 C  
HETATM   18  C   UNL     1     -12.694  13.489  65.560  1.00  0.00    -0.493 C  
HETATM   19  H   UNL     1     -12.385  14.059  62.372  1.00  0.00     0.000 HD 
BRANCH  17  20
HETATM   20  C   UNL     1     -11.479  15.656  64.626  1.00  0.00    -0.303 C  
HETATM   21  O   UNL     1     -11.542  16.662  63.917  1.00  0.00    -1.204 OA 
HETATM   22  N   UNL     1     -10.616  15.510  65.704  1.00  0.00    -0.350 N  
HETATM   23  H   UNL     1     -10.728  14.669  66.269  1.00  0.00     0.000 HD 
BRANCH  22  24
HETATM   24  C   UNL     1      -9.593  16.409  66.100  1.00  0.00    -0.325 A  
HETATM   25  C   UNL     1      -8.244  16.055  66.208  1.00  0.00    -0.220 A  
HETATM   26  C   UNL     1      -7.279  16.993  66.592  1.00  0.00    -0.293 A  
HETATM   27  C   UNL     1      -7.648  18.300  66.886  1.00  0.00    -0.237 A  
HETATM   28  C   UNL     1      -8.997  18.664  66.815  1.00  0.00    -0.297 A  
HETATM   29  C   UNL     1      -9.445  20.044  67.123  1.00  0.00    -0.386 C  
HETATM   30  C   UNL     1      -9.960  17.725  66.402  1.00  0.00    -0.345 A  
HETATM   31  O   UNL     1      -8.721  20.655  68.086  1.00  0.00     0.092 OA 
HETATM   32  O   UNL     1     -10.407  20.561  66.581  1.00  0.00    -0.284 OA 
ENDBRANCH  22  24
ENDBRANCH  17  20
ENDBRANCH  13  14
ENDBRANCH   3  13
BRANCH   7  33
HETATM   33  C   UNL     1     -11.176   9.637  71.531  1.00  0.00    -0.307 C  
HETATM   34  O   UNL     1     -10.747   8.324  71.888  1.00  0.00    -0.243 OA 
HETATM   35  H   UNL     1     -11.158   8.118  72.720  1.00  0.00     0.000 HD 
HETATM   36  C   UNL     1     -12.693   9.657  71.421  1.00  0.00    -0.466 C  
ENDBRANCH   7  33
TORSDOF 5
ENDMDL
MODEL        9
REMARK 921   NORMALIZED FREE ENERGY PREDICTED BY IDOCK:   -7.56 KCAL/MOL
REMARK 922        TOTAL FREE ENERGY PREDICTED BY IDOCK:  -11.45 KCAL/MOL
REMARK 923 INTER-LIGAND FREE ENERGY PREDICTED BY IDOCK:  -10.27 KCAL/MOL
REMARK 924 INTRA-LIGAND FREE ENERGY PREDICTED BY IDOCK:   -1.18 KCAL/MOL
REMARK 927      BINDING AFFINITY PREDICTED BY RF-SCORE:    0.00 PKD
ROOT
HETATM    1  C   UNL     1      -8.176  17.147  67.104  1.00  0.00    -0.192 C  
HETATM    2  C   UNL     1      -8.295  15.787  67.795  1.00  0.00    -0.163 C  
HETATM    3  C   UNL     1      -9.359  15.090  66.971  1.00  0.00    -0.224 C  
HETATM    4  C   UNL     1      -8.587  15.952  69.281  1.00  0.00    -0.247 C  
HETATM    5  O   UNL     1     -10.656  18.766  65.644  1.00  0.00    -0.596 OA 
HETATM    6  C   UNL     1      -9.760  15.871  65.948  1.00  0.00    -0.351 C  
HETATM    7  C   UNL     1      -8.952  18.435  67.527  1.00  0.00    -0.271 C  
HETATM    8  N   UNL     1      -9.082  17.084  65.922  1.00  0.00    -0.116 N  
HETATM    9  C   UNL     1     -10.733  15.514  64.869  1.00  0.00    -0.392 C  
HETATM   10  O   UNL     1     -11.019  14.370  64.554  1.00  0.00    -0.363 OA 
HETATM   11  O   UNL     1     -11.304  16.570  64.249  1.00  0.00    -1.020 OA 
HETATM   12  C   UNL     1      -9.707  18.265  66.207  1.00  0.00    -0.291 C  
ENDROOT
BRANCH   3  13
HETATM   13  S   UNL     1      -9.728  13.442  67.312  1.00  0.00    -0.238 SA 
BRANCH  13  14
HETATM   14  C   UNL     1     -11.483  13.448  67.845  1.00  0.00    -0.315 C  
HETATM   15  C   UNL     1     -11.706  13.788  69.314  1.00  0.00    -0.327 C  
HETATM   16  N   UNL     1     -11.387  12.551  70.006  1.00  0.00    -0.505 NA 
HETATM   17  C   UNL     1     -11.901  11.433  69.183  1.00  0.00    -0.345 C  
HETATM   18  C   UNL     1     -12.011  12.008  67.765  1.00  0.00    -0.177 C  
HETATM   19  H   UNL     1     -11.735  12.530  70.965  1.00  0.00     0.000 HD 
BRANCH  17  20
HETATM   20  C   UNL     1     -10.994  10.189  69.408  1.00  0.00    -0.245 C  
HETATM   21  O   UNL     1      -9.779  10.272  69.220  1.00  0.00    -0.204 OA 
HETATM   22  N   UNL     1     -11.631   9.071  69.930  1.00  0.00    -0.441 N  
HETATM   23  H   UNL     1     -12.627   9.163  70.128  1.00  0.00     0.000 HD 
BRANCH  22  24
HETATM   24  C   UNL     1     -11.040   7.814  70.216  1.00  0.00    -0.234 A  
HETATM   25  C   UNL     1     -10.481   6.977  69.245  1.00  0.00    -0.223 A  
HETATM   26  C   UNL     1      -9.900   5.752  69.593  1.00  0.00    -0.230 A  
HETATM   27  C   UNL     1      -9.879   5.337  70.920  1.00  0.00    -0.257 A  
HETATM   28  C   UNL     1     -10.463   6.147  71.901  1.00  0.00    -0.254 A  
HETATM   29  C   UNL     1     -10.472   5.748  73.329  1.00  0.00    -0.233 C  
HETATM   30  C   UNL     1     -11.021   7.389  71.550  1.00  0.00    -0.255 A  
HETATM   31  O   UNL     1     -10.574   4.416  73.528  1.00  0.00    -0.180 OA 
HETATM   32  O   UNL     1     -10.431   6.558  74.239  1.00  0.00    -0.333 OA 
ENDBRANCH  22  24
ENDBRANCH  17  20
ENDBRANCH  13  14
ENDBRANCH   3  13
BRANCH   7  33
HETATM   33  C   UNL     1      -8.081  19.660  67.723  1.00  0.00    -0.301 C  
HETATM   34  O   UNL     1      -8.186  20.434  66.529  1.00  0.00    -0.492 OA 
HETATM   35  H   UNL     1      -7.640  21.202  66.652  1.00  0.00     0.000 HD 
HETATM   36  C   UNL     1      -6.626  19.275  67.946  1.00  0.00    -0.254 C  
ENDBRANCH   7  33
TORSDOF 5
ENDMDL
MODEL       10
REMARK 921   NORMALIZED FREE ENERGY PREDICTED BY IDOCK:   -7.48 KCAL/MOL
REMARK 922        TOTAL FREE ENERGY PREDICTED BY IDOCK:  -11.36 KCAL/MOL
REMARK 923 INTER-LIGAND FREE ENERGY PREDICTED BY IDOCK:  -10.39 KCAL/MOL
REMARK 924 INTRA-LIGAND FREE ENERGY PREDICTED BY IDOCK:   -0.96 KCAL/MOL
REMARK 927      BINDING AFFINITY PREDICTED BY RF-SCORE:    0.00 PKD
ROOT
HETATM    1  C   UNL     1     -10.192   9.362  69.336  1.00  0.00    -0.207 C  
HETATM    2  C   UNL     1      -9.898   9.662  67.863  1.00  0.00    -0.182 C  
HETATM    3  C   UNL     1     -10.395  11.086  67.712  1.00  0.00    -0.188 C  
HETATM    4  C   UNL     1     -10.538   8.621  66.955  1.00  0.00    -0.293 C  
HETATM    5  O   UNL     1     -12.743  10.562  71.053  1.00  0.00    -0.347 OA 
HETATM    6  C   UNL     1     -10.849  11.563  68.889  1.00  0.00    -0.218 C  
HETATM    7  C   UNL     1     -11.488   8.672  69.865  1.00  0.00     0.144 C  
HETATM    8  N   UNL     1     -10.725  10.629  69.911  1.00  0.00    -0.242 N  
HETATM    9  C   UNL     1     -11.346  12.945  69.170  1.00  0.00    -0.273 C  
HETATM   10  O   UNL     1     -11.076  13.923  68.491  1.00  0.00    -0.244 OA 
HETATM   11  O   UNL     1     -12.148  13.050  70.253  1.00  0.00    -0.348 OA 
HETATM   12  C   UNL     1     -11.815  10.035  70.479  1.00  0.00    -0.303 C  
ENDROOT
BRANCH   3  13
HETATM   13  S   UNL     1     -10.135  11.903  66.217  1.00  0.00    -0.228 SA 
BRANCH  13  14
HETATM   14  C   UNL     1     -11.778  11.936  65.402  1.00  0.00    -0.162 C  
HETATM   15  C   UNL     1     -11.739  11.913  63.878  1.00  0.00    -0.415 C  
HETATM   16  N   UNL     1     -11.413  13.283  63.522  1.00  0.00    -0.638 NA 
HETATM   17  C   UNL     1     -12.137  14.173  64.457  1.00  0.00    -0.468 C  
HETATM   18  C   UNL     1     -12.424  13.300  65.686  1.00  0.00    -0.510 C  
HETATM   19  H   UNL     1     -11.606  13.495  62.542  1.00  0.00     0.000 HD 
BRANCH  17  20
HETATM   20  C   UNL     1     -11.308  15.474  64.651  1.00  0.00    -0.357 C  
HETATM   21  O   UNL     1     -11.544  16.463  63.955  1.00  0.00    -1.100 OA 
HETATM   22  N   UNL     1     -10.407  15.458  65.707  1.00  0.00    -0.333 N  
HETATM   23  H   UNL     1     -10.373  14.606  66.266  1.00  0.00     0.000 HD 
BRANCH  22  24
HETATM   24  C   UNL     1      -9.528  16.503  66.090  1.00  0.00    -0.315 A  
HETATM   25  C   UNL     1      -8.176  16.311  66.397  1.00  0.00    -0.354 A  
HETATM   26  C   UNL     1      -7.356  17.387  66.755  1.00  0.00    -0.250 A  
HETATM   27  C   UNL     1      -7.878  18.674  66.825  1.00  0.00    -0.258 A  
HETATM   28  C   UNL     1      -9.235  18.880  66.553  1.00  0.00    -0.342 A  
HETATM   29  C   UNL     1      -9.841  20.232  66.619  1.00  0.00    -0.426 C  
HETATM   30  C   UNL     1     -10.049  17.800  66.166  1.00  0.00    -0.308 A  
HETATM   31  O   UNL     1      -9.302  21.031  67.565  1.00  0.00    -0.283 OA 
HETATM   32  O   UNL     1     -10.770  20.572  65.907  1.00  0.00    -0.020 OA 
ENDBRANCH  22  24
ENDBRANCH  17  20
ENDBRANCH  13  14
ENDBRANCH   3  13
BRANCH   7  33
HETATM   33  C   UNL     1     -11.243   7.491  70.783  1.00  0.00    -0.270 C  
HETATM   34  O   UNL     1      -9.946   7.674  71.350  1.00  0.00    -0.181 OA 
HETATM   35  H   UNL     1      -9.792   6.933  71.925  1.00  0.00     0.000 HD 
HETATM   36  C   UNL     1     -11.276   6.177  70.018  1.00  0.00    -0.471 C  
ENDBRANCH   7  33
TORSDOF 5
ENDMDL
MODEL       11
REMARK 921   NORMALIZED FREE ENERGY PREDICTED BY IDOCK:   -7.47 KCAL/MOL
REMARK 922        TOTAL FREE ENERGY PREDICTED BY IDOCK:  -11.34 KCAL/MOL
REMARK 923 INTER-LIGAND FREE ENERGY PREDICTED BY IDOCK:  -10.32 KCAL/MOL
REMARK 924 INTRA-LIGAND FREE ENERGY PREDICTED BY IDOCK:   -1.02 KCAL/MOL
REMARK 927      BINDING AFFINITY PREDICTED BY RF-SCORE:    0.00 PKD
ROOT
HETATM    1  C   UNL     1     -11.008   9.077  70.156  1.00  0.00    -0.233 C  
HETATM    2  C   UNL     1     -11.170  10.310  69.263  1.00  0.00    -0.281 C  
HETATM    3  C   UNL     1      -9.752  10.836  69.168  1.00  0.00    -0.163 C  
HETATM    4  C   UNL     1     -12.211  11.265  69.832  1.00  0.00    -0.358 C  
HETATM    5  O   UNL     1      -8.816   8.773  72.606  1.00  0.00    -0.394 OA 
HETATM    6  C   UNL     1      -8.898  10.035  69.836  1.00  0.00    -0.147 C  
HETATM    7  C   UNL     1     -11.196   9.066  71.706  1.00  0.00    -0.448 C  
HETATM    8  N   UNL     1      -9.545   8.948  70.410  1.00  0.00    -0.181 N  
HETATM    9  C   UNL     1      -7.410  10.168  69.912  1.00  0.00    -0.165 C  
HETATM   10  O   UNL     1      -6.733  10.786  69.106  1.00  0.00    -0.059 OA 
HETATM   11  O   UNL     1      -6.839   9.552  70.971  1.00  0.00    -0.199 OA 
HETATM   12  C   UNL     1      -9.685   8.827  71.764  1.00  0.00    -0.310 C  
ENDROOT
BRANCH   3  13
HETATM   13  S   UNL     1      -9.428  12.169  68.124  1.00  0.00    -0.204 SA 
BRANCH  13  14
HETATM   14  C   UNL     1     -10.601  11.975  66.728  1.00  0.00    -0.227 C  
HETATM   15  C   UNL     1     -10.037  12.345  65.360  1.00  0.00    -0.269 C  
HETATM   16  N   UNL     1     -10.091  13.796  65.347  1.00  0.00    -0.450 NA 
HETATM   17  C   UNL     1     -11.346  14.204  66.018  1.00  0.00    -0.330 C  
HETATM   18  C   UNL     1     -11.724  13.008  66.902  1.00  0.00    -0.441 C  
HETATM   19  H   UNL     1      -9.996  14.189  64.410  1.00  0.00     0.000 HD 
BRANCH  17  20
HETATM   20  C   UNL     1     -11.123  15.585  66.698  1.00  0.00    -0.193 C  
HETATM   21  O   UNL     1     -11.599  15.805  67.813  1.00  0.00    -0.246 OA 
HETATM   22  N   UNL     1     -10.282  16.457  66.020  1.00  0.00    -0.340 N  
HETATM   23  H   UNL     1      -9.878  16.117  65.148  1.00  0.00     0.000 HD 
BRANCH  22  24
HETATM   24  C   UNL     1      -9.926  17.771  66.415  1.00  0.00    -0.344 A  
HETATM   25  C   UNL     1     -10.588  18.923  65.975  1.00  0.00    -0.470 A  
HETATM   26  C   UNL     1     -10.197  20.193  66.412  1.00  0.00    -0.552 A  
HETATM   27  C   UNL     1      -9.126  20.336  67.287  1.00  0.00    -0.504 A  
HETATM   28  C   UNL     1      -8.432  19.198  67.712  1.00  0.00    -0.334 A  
HETATM   29  C   UNL     1      -7.280  19.295  68.641  1.00  0.00    -0.332 C  
HETATM   30  C   UNL     1      -8.846  17.921  67.292  1.00  0.00    -0.243 A  
HETATM   31  O   UNL     1      -6.538  20.413  68.483  1.00  0.00    -0.297 OA 
HETATM   32  O   UNL     1      -7.009  18.422  69.447  1.00  0.00    -0.221 OA 
ENDBRANCH  22  24
ENDBRANCH  17  20
ENDBRANCH  13  14
ENDBRANCH   3  13
BRANCH   7  33
HETATM   33  C   UNL     1     -12.131   7.990  72.220  1.00  0.00    -0.341 C  
HETATM   34  O   UNL     1     -11.545   7.473  73.415  1.00  0.00    -0.621 OA 
HETATM   35  H   UNL     1     -12.132   6.798  73.737  1.00  0.00     0.000 HD 
HETATM   36  C   UNL     1     -12.289   6.865  71.210  1.00  0.00    -0.422 C  
ENDBRANCH   7  33
TORSDOF 5
ENDMDL
MODEL       12
REMARK 921   NORMALIZED FREE ENERGY PREDICTED BY IDOCK:   -7.42 KCAL/MOL
REMARK 922        TOTAL FREE ENERGY PREDICTED BY IDOCK:  -11.27 KCAL/MOL
REMARK 923 INTER-LIGAND FREE ENERGY PREDICTED BY IDOCK:   -9.75 KCAL/MOL
REMARK 924 INTRA-LIGAND FREE ENERGY PREDICTED BY IDOCK:   -1.52 KCAL/MOL
REMARK 927      BINDING AFFINITY PREDICTED BY RF-SCORE:    0.00 PKD
ROOT
HETATM    1  C   UNL     1      -9.934   7.451  71.101  1.00  0.00    -0.185 C  
HETATM    2  C   UNL     1      -9.765   6.703  69.776  1.00  0.00    -0.168 C  
HETATM    3  C   UNL     1     -10.241   7.723  68.760  1.00  0.00    -0.201 C  
HETATM    4  C   UNL     1     -10.507   5.373  69.800  1.00  0.00    -0.378 C  
HETATM    5  O   UNL     1     -12.295   9.663  71.755  1.00  0.00    -0.368 OA 
HETATM    6  C   UNL     1     -10.579   8.879  69.365  1.00  0.00    -0.217 C  
HETATM    7  C   UNL     1     -11.194   7.367  72.020  1.00  0.00    -0.289 C  
HETATM    8  N   UNL     1     -10.385   8.824  70.740  1.00  0.00    -0.201 N  
HETATM    9  C   UNL     1     -11.017  10.147  68.703  1.00  0.00    -0.230 C  
HETATM   10  O   UNL     1     -10.787  10.429  67.538  1.00  0.00    -0.270 OA 
HETATM   11  O   UNL     1     -11.717  10.988  69.497  1.00  0.00    -0.271 OA 
HETATM   12  C   UNL     1     -11.434   8.823  71.615  1.00  0.00    -0.316 C  
ENDROOT
BRANCH   3  13
HETATM   13  S   UNL     1     -10.097   7.355  67.083  1.00  0.00    -0.272 SA 
BRANCH  13  14
HETATM   14  C   UNL     1      -8.302   7.470  66.724  1.00  0.00    -0.126 C  
HETATM   15  C   UNL     1      -7.576   8.605  67.438  1.00  0.00    -0.093 C  
HETATM   16  N   UNL     1      -7.919   9.779  66.656  1.00  0.00    -0.112 NA 
HETATM   17  C   UNL     1      -7.925   9.381  65.230  1.00  0.00    -0.110 C  
HETATM   18  C   UNL     1      -8.135   7.861  65.248  1.00  0.00    -0.135 C  
HETATM   19  H   UNL     1      -7.308  10.574  66.843  1.00  0.00     0.000 HD 
BRANCH  17  20
HETATM   20  C   UNL     1      -8.957  10.261  64.469  1.00  0.00    -0.219 C  
HETATM   21  O   UNL     1      -9.374   9.905  63.366  1.00  0.00    -0.273 OA 
HETATM   22  N   UNL     1      -9.430  11.365  65.166  1.00  0.00    -0.289 N  
HETATM   23  H   UNL     1      -9.071  11.498  66.111  1.00  0.00     0.000 HD 
BRANCH  22  24
HETATM   24  C   UNL     1     -10.360  12.328  64.699  1.00  0.00    -0.301 A  
HETATM   25  C   UNL     1     -11.440  12.027  63.862  1.00  0.00    -0.518 A  
HETATM   26  C   UNL     1     -12.333  13.020  63.446  1.00  0.00    -0.478 A  
HETATM   27  C   UNL     1     -12.154  14.338  63.851  1.00  0.00    -0.247 A  
HETATM   28  C   UNL     1     -11.061  14.665  64.662  1.00  0.00    -0.345 A  
HETATM   29  C   UNL     1     -10.822  16.056  65.117  1.00  0.00    -0.395 C  
HETATM   30  C   UNL     1     -10.182  13.657  65.100  1.00  0.00    -0.349 A  
HETATM   31  O   UNL     1     -11.195  16.998  64.225  1.00  0.00    -1.186 OA 
HETATM   32  O   UNL     1     -10.299  16.318  66.186  1.00  0.00    -0.314 OA 
ENDBRANCH  22  24
ENDBRANCH  17  20
ENDBRANCH  13  14
ENDBRANCH   3  13
BRANCH   7  33
HETATM   33  C   UNL     1     -10.895   7.047  73.472  1.00  0.00    -0.254 C  
HETATM   34  O   UNL     1      -9.717   7.776  73.818  1.00  0.00    -0.327 OA 
HETATM   35  H   UNL     1      -9.530   7.575  74.728  1.00  0.00     0.000 HD 
HETATM   36  C   UNL     1     -10.643   5.561  73.671  1.00  0.00    -0.316 C  
ENDBRANCH   7  33
TORSDOF 5
ENDMDL
MODEL       13
REMARK 921   NORMALIZED FREE ENERGY PREDICTED BY IDOCK:   -7.39 KCAL/MOL
REMARK 922        TOTAL FREE ENERGY PREDICTED BY IDOCK:  -11.24 KCAL/MOL
REMARK 923 INTER-LIGAND FREE ENERGY PREDICTED BY IDOCK:   -9.64 KCAL/MOL
REMARK 924 INTRA-LIGAND FREE ENERGY PREDICTED BY IDOCK:   -1.60 KCAL/MOL
REMARK 927      BINDING AFFINITY PREDICTED BY RF-SCORE:    0.00 PKD
ROOT
HETATM    1  C   UNL     1     -11.216  15.992  67.043  1.00  0.00     0.033 C  
HETATM    2  C   UNL     1     -11.110  14.997  65.883  1.00  0.00    -0.334 C  
HETATM    3  C   UNL     1     -11.322  13.664  66.573  1.00  0.00    -0.319 C  
HETATM    4  C   UNL     1      -9.797  15.171  65.132  1.00  0.00    -0.170 C  
HETATM    5  O   UNL     1     -10.257  15.408  70.147  1.00  0.00    -0.292 OA 
HETATM    6  C   UNL     1     -11.562  13.838  67.888  1.00  0.00    -0.341 C  
HETATM    7  C   UNL     1     -10.005  16.538  67.864  1.00  0.00    -0.245 C  
HETATM    8  N   UNL     1     -11.564  15.181  68.244  1.00  0.00    -0.336 N  
HETATM    9  C   UNL     1     -11.897  12.779  68.891  1.00  0.00    -0.308 C  
HETATM   10  O   UNL     1     -12.352  11.683  68.606  1.00  0.00    -0.394 OA 
HETATM   11  O   UNL     1     -11.647  13.116  70.175  1.00  0.00    -0.209 OA 
HETATM   12  C   UNL     1     -10.579  15.721  69.023  1.00  0.00    -0.232 C  
ENDROOT
BRANCH   3  13
HETATM   13  S   UNL     1     -11.423  12.238  65.611  1.00  0.00    -0.366 SA 
BRANCH  13  14
HETATM   14  C   UNL     1      -9.683  11.773  65.265  1.00  0.00    -0.211 C  
HETATM   15  C   UNL     1      -9.510  10.590  64.320  1.00  0.00    -0.285 C  
HETATM   16  N   UNL     1      -9.765   9.435  65.164  1.00  0.00    -0.449 NA 
HETATM   17  C   UNL     1      -9.166   9.710  66.489  1.00  0.00    -0.158 C  
HETATM   18  C   UNL     1      -9.065  11.238  66.565  1.00  0.00    -0.193 C  
HETATM   19  H   UNL     1      -9.436   8.561  64.752  1.00  0.00     0.000 HD 
BRANCH  17  20
HETATM   20  C   UNL     1      -9.997   8.969  67.576  1.00  0.00    -0.207 C  
HETATM   21  O   UNL     1     -10.794   8.089  67.246  1.00  0.00    -0.261 OA 
HETATM   22  N   UNL     1      -9.685   9.289  68.890  1.00  0.00    -0.158 N  
HETATM   23  H   UNL     1      -8.939   9.970  69.030  1.00  0.00     0.000 HD 
BRANCH  22  24
HETATM   24  C   UNL     1     -10.297   8.770  70.059  1.00  0.00    -0.203 A  
HETATM   25  C   UNL     1      -9.814   7.661  70.763  1.00  0.00    -0.177 A  
HETATM   26  C   UNL     1     -10.456   7.204  71.919  1.00  0.00    -0.220 A  
HETATM   27  C   UNL     1     -11.601   7.840  72.385  1.00  0.00    -0.410 A  
HETATM   28  C   UNL     1     -12.117   8.930  71.675  1.00  0.00    -0.415 A  
HETATM   29  C   UNL     1     -13.338   9.640  72.127  1.00  0.00    -0.454 C  
HETATM   30  C   UNL     1     -11.453   9.403  70.529  1.00  0.00    -0.317 A  
HETATM   31  O   UNL     1     -14.249   8.843  72.724  1.00  0.00    -0.557 OA 
HETATM   32  O   UNL     1     -13.515  10.831  71.936  1.00  0.00    -0.355 OA 
ENDBRANCH  22  24
ENDBRANCH  17  20
ENDBRANCH  13  14
ENDBRANCH   3  13
BRANCH   7  33
HETATM   33  C   UNL     1      -9.955  18.049  67.982  1.00  0.00    -0.343 C  
HETATM   34  O   UNL     1     -10.585  18.384  69.219  1.00  0.00    -0.346 OA 
HETATM   35  H   UNL     1     -10.553  19.331  69.293  1.00  0.00     0.000 HD 
HETATM   36  C   UNL     1     -10.702  18.719  66.840  1.00  0.00    -0.406 C  
ENDBRANCH   7  33
TORSDOF 5
ENDMDL
MODEL       14
REMARK 921   NORMALIZED FREE ENERGY PREDICTED BY IDOCK:   -7.35 KCAL/MOL
REMARK 922        TOTAL FREE ENERGY PREDICTED BY IDOCK:  -11.18 KCAL/MOL
REMARK 923 INTER-LIGAND FREE ENERGY PREDICTED BY IDOCK:   -9.65 KCAL/MOL
REMARK 924 INTRA-LIGAND FREE ENERGY PREDICTED BY IDOCK:   -1.53 KCAL/MOL
REMARK 927      BINDING AFFINITY PREDICTED BY RF-SCORE:    0.00 PKD
ROOT
HETATM    1  C   UNL     1     -11.206  10.013  68.840  1.00  0.00    -0.131 C  
HETATM    2  C   UNL     1     -10.584  11.050  67.901  1.00  0.00    -0.244 C  
HETATM    3  C   UNL     1      -9.705  10.199  67.007  1.00  0.00    -0.180 C  
HETATM    4  C   UNL     1      -9.886  12.151  68.688  1.00  0.00    -0.110 C  
HETATM    5  O   UNL     1      -9.721   7.256  69.885  1.00  0.00    -0.173 OA 
HETATM    6  C   UNL     1      -9.823   8.893  67.320  1.00  0.00    -0.199 C  
HETATM    7  C   UNL     1     -10.637   9.621  70.240  1.00  0.00    -0.333 C  
HETATM    8  N   UNL     1     -10.723   8.687  68.359  1.00  0.00    -0.111 N  
HETATM    9  C   UNL     1      -9.183   7.736  66.621  1.00  0.00    -0.177 C  
HETATM   10  O   UNL     1      -8.767   7.772  65.474  1.00  0.00    -0.147 OA 
HETATM   11  O   UNL     1      -9.078   6.612  67.364  1.00  0.00    -0.120 OA 
HETATM   12  C   UNL     1     -10.313   8.272  69.594  1.00  0.00    -0.218 C  
ENDROOT
BRANCH   3  13
HETATM   13  S   UNL     1      -8.898  10.946  65.680  1.00  0.00    -0.176 SA 
BRANCH  13  14
HETATM   14  C   UNL     1      -9.903  10.514  64.208  1.00  0.00    -0.338 C  
HETATM   15  C   UNL     1      -9.451  11.169  62.907  1.00  0.00    -0.359 C  
HETATM   16  N   UNL     1      -9.975  12.520  63.003  1.00  0.00    -0.402 NA 
HETATM   17  C   UNL     1     -11.313  12.438  63.631  1.00  0.00    -0.482 C  
HETATM   18  C   UNL     1     -11.305  11.108  64.397  1.00  0.00     0.055 C  
HETATM   19  H   UNL     1      -9.987  13.006  62.106  1.00  0.00     0.000 HD 
BRANCH  17  20
HETATM   20  C   UNL     1     -11.572  13.749  64.427  1.00  0.00    -0.395 C  
HETATM   21  O   UNL     1     -12.418  14.552  64.029  1.00  0.00    -0.778 OA 
HETATM   22  N   UNL     1     -10.886  13.866  65.628  1.00  0.00    -0.287 N  
HETATM   23  H   UNL     1     -10.284  13.085  65.888  1.00  0.00     0.000 HD 
BRANCH  22  24
HETATM   24  C   UNL     1     -10.935  14.958  66.531  1.00  0.00    -0.327 A  
HETATM   25  C   UNL     1     -11.609  14.925  67.757  1.00  0.00    -0.358 A  
HETATM   26  C   UNL     1     -11.610  16.032  68.612  1.00  0.00    -0.343 A  
HETATM   27  C   UNL     1     -10.946  17.199  68.249  1.00  0.00    -0.229 A  
HETATM   28  C   UNL     1     -10.295  17.262  67.013  1.00  0.00    -0.318 A  
HETATM   29  C   UNL     1      -9.577  18.484  66.576  1.00  0.00    -0.329 C  
HETATM   30  C   UNL     1     -10.273  16.136  66.169  1.00  0.00    -0.351 A  
HETATM   31  O   UNL     1     -10.140  19.635  67.004  1.00  0.00    -0.356 OA 
HETATM   32  O   UNL     1      -8.590  18.448  65.862  1.00  0.00    -0.503 OA 
ENDBRANCH  22  24
ENDBRANCH  17  20
ENDBRANCH  13  14
ENDBRANCH   3  13
BRANCH   7  33
HETATM   33  C   UNL     1     -11.649   9.672  71.368  1.00  0.00    -0.400 C  
HETATM   34  O   UNL     1     -12.280   8.393  71.412  1.00  0.00    -0.297 OA 
HETATM   35  H   UNL     1     -12.915   8.425  72.119  1.00  0.00     0.000 HD 
HETATM   36  C   UNL     1     -12.700  10.743  71.121  1.00  0.00    -0.532 C  
ENDBRANCH   7  33
TORSDOF 5
ENDMDL
MODEL       15
REMARK 921   NORMALIZED FREE ENERGY PREDICTED BY IDOCK:   -7.31 KCAL/MOL
REMARK 922        TOTAL FREE ENERGY PREDICTED BY IDOCK:  -11.14 KCAL/MOL
REMARK 923 INTER-LIGAND FREE ENERGY PREDICTED BY IDOCK:   -9.99 KCAL/MOL
REMARK 924 INTRA-LIGAND FREE ENERGY PREDICTED BY IDOCK:   -1.15 KCAL/MOL
REMARK 927      BINDING AFFINITY PREDICTED BY RF-SCORE:    0.00 PKD
ROOT
HETATM    1  C   UNL     1     -10.166   7.907  71.222  1.00  0.00    -0.187 C  
HETATM    2  C   UNL     1      -9.343   8.541  70.098  1.00  0.00    -0.164 C  
HETATM    3  C   UNL     1     -10.088   9.834  69.833  1.00  0.00    -0.251 C  
HETATM    4  C   UNL     1      -9.201   7.586  68.920  1.00  0.00    -0.142 C  
HETATM    5  O   UNL     1     -13.434   8.201  71.589  1.00  0.00    -0.336 OA 
HETATM    6  C   UNL     1     -11.129   9.969  70.678  1.00  0.00    -0.335 C  
HETATM    7  C   UNL     1     -11.320   6.875  71.013  1.00  0.00    -0.342 C  
HETATM    8  N   UNL     1     -11.223   8.901  71.564  1.00  0.00    -0.299 N  
HETATM    9  C   UNL     1     -12.055  11.139  70.788  1.00  0.00    -0.357 C  
HETATM   10  O   UNL     1     -11.789  12.264  70.396  1.00  0.00    -0.303 OA 
HETATM   11  O   UNL     1     -13.249  10.865  71.358  1.00  0.00    -0.362 OA 
HETATM   12  C   UNL     1     -12.244   7.997  71.493  1.00  0.00    -0.299 C  
ENDROOT
BRANCH   3  13
HETATM   13  S   UNL     1      -9.424  10.960  68.710  1.00  0.00    -0.173 SA 
BRANCH  13  14
HETATM   14  C   UNL     1     -10.450  10.786  67.199  1.00  0.00    -0.237 C  
HETATM   15  C   UNL     1      -9.677  10.857  65.887  1.00  0.00    -0.224 C  
HETATM   16  N   UNL     1      -9.448  12.280  65.700  1.00  0.00    -0.420 NA 
HETATM   17  C   UNL     1     -10.668  12.991  66.144  1.00  0.00    -0.273 C  
HETATM   18  C   UNL     1     -11.365  12.015  67.100  1.00  0.00    -0.396 C  
HETATM   19  H   UNL     1      -9.176  12.516  64.745  1.00  0.00     0.000 HD 
BRANCH  17  20
HETATM   20  C   UNL     1     -10.261  14.392  66.684  1.00  0.00    -0.277 C  
HETATM   21  O   UNL     1     -10.788  14.833  67.707  1.00  0.00    -0.266 OA 
HETATM   22  N   UNL     1      -9.217  15.012  66.011  1.00  0.00    -0.472 N  
HETATM   23  H   UNL     1      -8.804  14.497  65.234  1.00  0.00     0.000 HD 
BRANCH  22  24
HETATM   24  C   UNL     1      -8.664  16.287  66.292  1.00  0.00    -0.335 A  
HETATM   25  C   UNL     1      -7.323  16.498  66.631  1.00  0.00    -0.268 A  
HETATM   26  C   UNL     1      -6.835  17.784  66.884  1.00  0.00    -0.212 A  
HETATM   27  C   UNL     1      -7.683  18.884  66.816  1.00  0.00    -0.252 A  
HETATM   28  C   UNL     1      -9.035  18.689  66.511  1.00  0.00    -0.308 A  
HETATM   29  C   UNL     1      -9.983  19.826  66.430  1.00  0.00    -0.470 C  
HETATM   30  C   UNL     1      -9.515  17.397  66.230  1.00  0.00    -0.247 A  
HETATM   31  O   UNL     1      -9.713  20.829  67.294  1.00  0.00    -0.479 OA 
HETATM   32  O   UNL     1     -10.942  19.833  65.678  1.00  0.00    -0.382 OA 
ENDBRANCH  22  24
ENDBRANCH  17  20
ENDBRANCH  13  14
ENDBRANCH   3  13
BRANCH   7  33
HETATM   33  C   UNL     1     -11.197   5.615  71.846  1.00  0.00    -0.181 C  
HETATM   34  O   UNL     1     -12.223   5.677  72.837  1.00  0.00    -0.548 OA 
HETATM   35  H   UNL     1     -12.146   4.887  73.359  1.00  0.00     0.000 HD 
HETATM   36  C   UNL     1      -9.842   5.533  72.531  1.00  0.00    -0.188 C  
ENDBRANCH   7  33
TORSDOF 5
ENDMDL
MODEL       16
REMARK 921   NORMALIZED FREE ENERGY PREDICTED BY IDOCK:   -7.30 KCAL/MOL
REMARK 922        TOTAL FREE ENERGY PREDICTED BY IDOCK:  -11.12 KCAL/MOL
REMARK 923 INTER-LIGAND FREE ENERGY PREDICTED BY IDOCK:   -9.10 KCAL/MOL
REMARK 924 INTRA-LIGAND FREE ENERGY PREDICTED BY IDOCK:   -2.02 KCAL/MOL
REMARK 927      BINDING AFFINITY PREDICTED BY RF-SCORE:    0.00 PKD
ROOT
HETATM    1  C   UNL     1      -9.963  16.484  67.274  1.00  0.00    -0.264 C  
HETATM    2  C   UNL     1      -9.051  15.337  66.833  1.00  0.00    -0.263 C  
HETATM    3  C   UNL     1      -9.512  14.192  67.713  1.00  0.00    -0.207 C  
HETATM    4  C   UNL     1      -7.584  15.731  66.946  1.00  0.00    -0.235 C  
HETATM    5  O   UNL     1     -11.121  16.931  70.333  1.00  0.00    -0.078 OA 
HETATM    6  C   UNL     1     -10.542  14.574  68.494  1.00  0.00    -0.252 C  
HETATM    7  C   UNL     1      -9.603  17.544  68.363  1.00  0.00    -0.303 C  
HETATM    8  N   UNL     1     -10.905  15.896  68.268  1.00  0.00    -0.301 N  
HETATM    9  C   UNL     1     -11.324  13.716  69.438  1.00  0.00    -0.245 C  
HETATM   10  O   UNL     1     -11.383  12.498  69.370  1.00  0.00    -0.252 OA 
HETATM   11  O   UNL     1     -11.975  14.391  70.410  1.00  0.00    -0.287 OA 
HETATM   12  C   UNL     1     -10.692  16.870  69.201  1.00  0.00    -0.298 C  
ENDROOT
BRANCH   3  13
HETATM   13  S   UNL     1      -8.839  12.626  67.461  1.00  0.00    -0.197 SA 
BRANCH  13  14
HETATM   14  C   UNL     1      -9.688  11.979  65.969  1.00  0.00    -0.239 C  
HETATM   15  C   UNL     1     -11.207  12.104  65.990  1.00  0.00    -0.336 C  
HETATM   16  N   UNL     1     -11.631  11.006  66.842  1.00  0.00    -0.311 NA 
HETATM   17  C   UNL     1     -10.759   9.846  66.543  1.00  0.00    -0.012 C  
HETATM   18  C   UNL     1      -9.492  10.456  65.932  1.00  0.00    -0.237 C  
HETATM   19  H   UNL     1     -12.624  10.790  66.749  1.00  0.00     0.000 HD 
BRANCH  17  20
HETATM   20  C   UNL     1     -10.619   8.983  67.829  1.00  0.00    -0.214 C  
HETATM   21  O   UNL     1     -10.176   7.835  67.754  1.00  0.00    -0.187 OA 
HETATM   22  N   UNL     1     -10.912   9.632  69.021  1.00  0.00    -0.379 N  
HETATM   23  H   UNL     1     -11.181  10.613  68.953  1.00  0.00     0.000 HD 
BRANCH  22  24
HETATM   24  C   UNL     1     -10.874   9.073  70.324  1.00  0.00    -0.238 A  
HETATM   25  C   UNL     1     -12.007   8.622  71.011  1.00  0.00    -0.278 A  
HETATM   26  C   UNL     1     -11.903   8.067  72.291  1.00  0.00    -0.424 A  
HETATM   27  C   UNL     1     -10.664   7.964  72.913  1.00  0.00    -0.440 A  
HETATM   28  C   UNL     1      -9.524   8.439  72.254  1.00  0.00    -0.367 A  
HETATM   29  C   UNL     1      -8.180   8.358  72.876  1.00  0.00    -0.114 C  
HETATM   30  C   UNL     1      -9.630   8.971  70.956  1.00  0.00    -0.348 A  
HETATM   31  O   UNL     1      -8.185   8.498  74.219  1.00  0.00    -0.310 OA 
HETATM   32  O   UNL     1      -7.161   8.216  72.223  1.00  0.00    -0.078 OA 
ENDBRANCH  22  24
ENDBRANCH  17  20
ENDBRANCH  13  14
ENDBRANCH   3  13
BRANCH   7  33
HETATM   33  C   UNL     1      -9.794  18.983  67.929  1.00  0.00    -0.337 C  
HETATM   34  O   UNL     1     -10.476  19.646  68.993  1.00  0.00    -0.567 OA 
HETATM   35  H   UNL     1     -10.596  20.549  68.721  1.00  0.00     0.000 HD 
HETATM   36  C   UNL     1     -10.630  19.074  66.662  1.00  0.00    -0.499 C  
ENDBRANCH   7  33
TORSDOF 5
ENDMDL
MODEL       17
REMARK 921   NORMALIZED FREE ENERGY PREDICTED BY IDOCK:   -7.26 KCAL/MOL
REMARK 922        TOTAL FREE ENERGY PREDICTED BY IDOCK:  -11.07 KCAL/MOL
REMARK 923 INTER-LIGAND FREE ENERGY PREDICTED BY IDOCK:   -9.94 KCAL/MOL
REMARK 924 INTRA-LIGAND FREE ENERGY PREDICTED BY IDOCK:   -1.13 KCAL/MOL
REMARK 927      BINDING AFFINITY PREDICTED BY RF-SCORE:    0.00 PKD
ROOT
HETATM    1  C   UNL     1     -11.995   8.951  70.466  1.00  0.00     0.017 C  
HETATM    2  C   UNL     1     -11.217   9.976  69.637  1.00  0.00    -0.285 C  
HETATM    3  C   UNL     1      -9.775   9.603  69.920  1.00  0.00    -0.231 C  
HETATM    4  C   UNL     1     -11.632  11.397  69.995  1.00  0.00    -0.382 C  
HETATM    5  O   UNL     1     -11.004   7.686  73.350  1.00  0.00    -0.371 OA 
HETATM    6  C   UNL     1      -9.709   8.524  70.725  1.00  0.00    -0.183 C  
HETATM    7  C   UNL     1     -12.511   9.185  71.921  1.00  0.00    -0.459 C  
HETATM    8  N   UNL     1     -10.970   8.045  71.058  1.00  0.00    -0.236 N  
HETATM    9  C   UNL     1      -8.475   7.804  71.167  1.00  0.00    -0.112 C  
HETATM   10  O   UNL     1      -7.402   7.860  70.587  1.00  0.00    -0.059 OA 
HETATM   11  O   UNL     1      -8.619   7.070  72.293  1.00  0.00    -0.121 OA 
HETATM   12  C   UNL     1     -11.465   8.144  72.328  1.00  0.00    -0.371 C  
ENDROOT
BRANCH   3  13
HETATM   13  S   UNL     1      -8.522  10.425  69.069  1.00  0.00    -0.160 SA 
BRANCH  13  14
HETATM   14  C   UNL     1      -8.451   9.612  67.427  1.00  0.00    -0.125 C  
HETATM   15  C   UNL     1      -7.361  10.135  66.498  1.00  0.00    -0.108 C  
HETATM   16  N   UNL     1      -7.916  11.375  65.982  1.00  0.00    -0.369 NA 
HETATM   17  C   UNL     1      -9.362  11.156  65.750  1.00  0.00    -0.214 C  
HETATM   18  C   UNL     1      -9.730   9.976  66.659  1.00  0.00    -0.246 C  
HETATM   19  H   UNL     1      -7.428  11.714  65.152  1.00  0.00     0.000 HD 
BRANCH  17  20
HETATM   20  C   UNL     1     -10.109  12.505  65.950  1.00  0.00    -0.254 C  
HETATM   21  O   UNL     1     -11.051  12.801  65.212  1.00  0.00    -0.279 OA 
HETATM   22  N   UNL     1      -9.717  13.249  67.054  1.00  0.00    -0.232 N  
HETATM   23  H   UNL     1      -8.985  12.847  67.640  1.00  0.00     0.000 HD 
BRANCH  22  24
HETATM   24  C   UNL     1     -10.227  14.511  67.453  1.00  0.00    -0.240 A  
HETATM   25  C   UNL     1     -11.163  14.684  68.478  1.00  0.00    -0.288 A  
HETATM   26  C   UNL     1     -11.618  15.958  68.835  1.00  0.00    -0.392 A  
HETATM   27  C   UNL     1     -11.154  17.083  68.161  1.00  0.00    -0.163 A  
HETATM   28  C   UNL     1     -10.243  16.926  67.111  1.00  0.00    -0.297 A  
HETATM   29  C   UNL     1      -9.722  18.092  66.358  1.00  0.00    -0.327 C  
HETATM   30  C   UNL     1      -9.767  15.646  66.775  1.00  0.00    -0.255 A  
HETATM   31  O   UNL     1     -10.609  19.101  66.221  1.00  0.00    -0.432 OA 
HETATM   32  O   UNL     1      -8.604  18.117  65.873  1.00  0.00    -0.507 OA 
ENDBRANCH  22  24
ENDBRANCH  17  20
ENDBRANCH  13  14
ENDBRANCH   3  13
BRANCH   7  33
HETATM   33  C   UNL     1     -13.979   8.872  72.127  1.00  0.00    -0.456 C  
HETATM   34  O   UNL     1     -14.202   8.856  73.537  1.00  0.00    -1.194 OA 
HETATM   35  H   UNL     1     -15.123   8.659  73.666  1.00  0.00     0.000 HD 
HETATM   36  C   UNL     1     -14.343   7.515  71.546  1.00  0.00    -0.603 C  
ENDBRANCH   7  33
TORSDOF 5
ENDMDL
MODEL       18
REMARK 921   NORMALIZED FREE ENERGY PREDICTED BY IDOCK:   -7.22 KCAL/MOL
REMARK 922        TOTAL FREE ENERGY PREDICTED BY IDOCK:  -11.02 KCAL/MOL
REMARK 923 INTER-LIGAND FREE ENERGY PREDICTED BY IDOCK:   -9.65 KCAL/MOL
REMARK 924 INTRA-LIGAND FREE ENERGY PREDICTED BY IDOCK:   -1.37 KCAL/MOL
REMARK 927      BINDING AFFINITY PREDICTED BY RF-SCORE:    0.00 PKD
ROOT
HETATM    1  C   UNL     1     -10.394   8.522  67.482  1.00  0.00    -0.267 C  
HETATM    2  C   UNL     1     -10.838   9.982  67.366  1.00  0.00    -0.313 C  
HETATM    3  C   UNL     1      -9.873  10.540  66.339  1.00  0.00    -0.210 C  
HETATM    4  C   UNL     1     -10.844  10.661  68.729  1.00  0.00    -0.269 C  
HETATM    5  O   UNL     1      -7.289   7.444  67.170  1.00  0.00    -0.092 OA 
HETATM    6  C   UNL     1      -9.044   9.577  65.889  1.00  0.00    -0.184 C  
HETATM    7  C   UNL     1      -9.385   7.976  68.542  1.00  0.00    -0.142 C  
HETATM    8  N   UNL     1      -9.310   8.345  66.474  1.00  0.00    -0.186 N  
HETATM    9  C   UNL     1      -8.008   9.708  64.818  1.00  0.00    -0.129 C  
HETATM   10  O   UNL     1      -8.010  10.580  63.963  1.00  0.00    -0.111 OA 
HETATM   11  O   UNL     1      -7.028   8.778  64.860  1.00  0.00    -0.072 OA 
HETATM   12  C   UNL     1      -8.442   7.764  67.355  1.00  0.00    -0.119 C  
ENDROOT
BRANCH   3  13
HETATM   13  S   UNL     1     -10.092  12.156  65.783  1.00  0.00    -0.250 SA 
BRANCH  13  14
HETATM   14  C   UNL     1     -11.856  12.254  65.291  1.00  0.00    -0.355 C  
HETATM   15  C   UNL     1     -12.097  12.419  63.795  1.00  0.00    -0.529 C  
HETATM   16  N   UNL     1     -11.839  13.829  63.558  1.00  0.00    -0.689 NA 
HETATM   17  C   UNL     1     -12.379  14.582  64.713  1.00  0.00    -0.391 C  
HETATM   18  C   UNL     1     -12.437  13.559  65.855  1.00  0.00    -0.484 C  
HETATM   19  H   UNL     1     -12.208  14.156  62.665  1.00  0.00     0.000 HD 
BRANCH  17  20
HETATM   20  C   UNL     1     -11.525  15.867  64.914  1.00  0.00    -0.162 C  
HETATM   21  O   UNL     1     -11.461  16.708  64.015  1.00  0.00    -1.192 OA 
HETATM   22  N   UNL     1     -10.970  16.026  66.176  1.00  0.00    -0.161 N  
HETATM   23  H   UNL     1     -11.176  15.299  66.861  1.00  0.00     0.000 HD 
BRANCH  22  24
HETATM   24  C   UNL     1     -10.148  17.095  66.613  1.00  0.00    -0.306 A  
HETATM   25  C   UNL     1     -10.636  18.253  67.228  1.00  0.00    -0.406 A  
HETATM   26  C   UNL     1      -9.771  19.268  67.650  1.00  0.00    -0.412 A  
HETATM   27  C   UNL     1      -8.400  19.149  67.452  1.00  0.00    -0.307 A  
HETATM   28  C   UNL     1      -7.896  18.013  66.810  1.00  0.00    -0.260 A  
HETATM   29  C   UNL     1      -6.443  17.839  66.571  1.00  0.00    -0.208 C  
HETATM   30  C   UNL     1      -8.767  16.982  66.413  1.00  0.00    -0.308 A  
HETATM   31  O   UNL     1      -5.783  18.992  66.330  1.00  0.00    -0.156 OA 
HETATM   32  O   UNL     1      -5.904  16.745  66.555  1.00  0.00    -0.319 OA 
ENDBRANCH  22  24
ENDBRANCH  17  20
ENDBRANCH  13  14
ENDBRANCH   3  13
BRANCH   7  33
HETATM   33  C   UNL     1      -9.876   6.769  69.316  1.00  0.00    -0.155 C  
HETATM   34  O   UNL     1      -8.932   5.723  69.087  1.00  0.00    -0.117 OA 
HETATM   35  H   UNL     1      -9.240   4.966  69.572  1.00  0.00     0.000 HD 
HETATM   36  C   UNL     1     -11.248   6.323  68.835  1.00  0.00    -0.387 C  
ENDBRANCH   7  33
TORSDOF 5
ENDMDL
MODEL       19
REMARK 921   NORMALIZED FREE ENERGY PREDICTED BY IDOCK:   -7.22 KCAL/MOL
REMARK 922        TOTAL FREE ENERGY PREDICTED BY IDOCK:  -11.02 KCAL/MOL
REMARK 923 INTER-LIGAND FREE ENERGY PREDICTED BY IDOCK:  -10.03 KCAL/MOL
REMARK 924 INTRA-LIGAND FREE ENERGY PREDICTED BY IDOCK:   -0.98 KCAL/MOL
REMARK 927      BINDING AFFINITY PREDICTED BY RF-SCORE:    0.00 PKD
ROOT
HETATM    1  C   UNL     1      -9.634  15.249  65.771  1.00  0.00    -0.324 C  
HETATM    2  C   UNL     1      -9.570  13.989  66.638  1.00  0.00    -0.299 C  
HETATM    3  C   UNL     1     -10.484  13.034  65.897  1.00  0.00    -0.281 C  
HETATM    4  C   UNL     1      -9.940  14.299  68.082  1.00  0.00    -0.230 C  
HETATM    5  O   UNL     1     -12.273  16.257  64.063  1.00  0.00    -0.874 OA 
HETATM    6  C   UNL     1     -10.960  13.602  64.771  1.00  0.00    -0.378 C  
HETATM    7  C   UNL     1     -10.612  16.445  66.003  1.00  0.00    -0.275 C  
HETATM    8  N   UNL     1     -10.474  14.892  64.593  1.00  0.00    -0.249 N  
HETATM    9  C   UNL     1     -11.826  12.960  63.733  1.00  0.00    -0.504 C  
HETATM   10  O   UNL     1     -11.923  11.754  63.570  1.00  0.00    -0.482 OA 
HETATM   11  O   UNL     1     -12.527  13.824  62.967  1.00  0.00    -0.712 OA 
HETATM   12  C   UNL     1     -11.282  15.988  64.705  1.00  0.00    -0.339 C  
ENDROOT
BRANCH   3  13
HETATM   13  S   UNL     1     -10.611  11.406  66.450  1.00  0.00    -0.269 SA 
BRANCH  13  14
HETATM   14  C   UNL     1      -9.021  10.621  65.984  1.00  0.00    -0.172 C  
HETATM   15  C   UNL     1      -9.123   9.565  64.889  1.00  0.00    -0.223 C  
HETATM   16  N   UNL     1      -9.623   8.393  65.587  1.00  0.00    -0.428 NA 
HETATM   17  C   UNL     1      -8.968   8.350  66.914  1.00  0.00    -0.145 C  
HETATM   18  C   UNL     1      -8.528   9.795  67.182  1.00  0.00    -0.125 C  
HETATM   19  H   UNL     1      -9.499   7.531  65.055  1.00  0.00     0.000 HD 
BRANCH  17  20
HETATM   20  C   UNL     1      -9.936   7.672  67.926  1.00  0.00    -0.169 C  
HETATM   21  O   UNL     1     -10.934   7.075  67.517  1.00  0.00    -0.262 OA 
HETATM   22  N   UNL     1      -9.529   7.698  69.253  1.00  0.00    -0.158 N  
HETATM   23  H   UNL     1      -8.635   8.146  69.448  1.00  0.00     0.000 HD 
BRANCH  22  24
HETATM   24  C   UNL     1     -10.228   7.166  70.366  1.00  0.00    -0.193 A  
HETATM   25  C   UNL     1     -11.167   7.885  71.113  1.00  0.00    -0.284 A  
HETATM   26  C   UNL     1     -11.835   7.299  72.194  1.00  0.00    -0.324 A  
HETATM   27  C   UNL     1     -11.565   5.984  72.556  1.00  0.00    -0.315 A  
HETATM   28  C   UNL     1     -10.605   5.260  71.841  1.00  0.00    -0.274 A  
HETATM   29  C   UNL     1     -10.276   3.856  72.189  1.00  0.00    -0.126 C  
HETATM   30  C   UNL     1      -9.957   5.844  70.738  1.00  0.00    -0.241 A  
HETATM   31  O   UNL     1     -10.357   3.583  73.509  1.00  0.00    -0.132 OA 
HETATM   32  O   UNL     1      -9.926   3.036  71.358  1.00  0.00    -0.144 OA 
ENDBRANCH  22  24
ENDBRANCH  17  20
ENDBRANCH  13  14
ENDBRANCH   3  13
BRANCH   7  33
HETATM   33  C   UNL     1      -9.945  17.805  66.047  1.00  0.00    -0.209 C  
HETATM   34  O   UNL     1      -8.552  17.587  65.823  1.00  0.00    -0.521 OA 
HETATM   35  H   UNL     1      -8.134  18.440  65.851  1.00  0.00     0.000 HD 
HETATM   36  C   UNL     1     -10.137  18.473  67.400  1.00  0.00    -0.377 C  
ENDBRANCH   7  33
TORSDOF 5
ENDMDL
MODEL       20
REMARK 921   NORMALIZED FREE ENERGY PREDICTED BY IDOCK:   -7.22 KCAL/MOL
REMARK 922        TOTAL FREE ENERGY PREDICTED BY IDOCK:  -11.01 KCAL/MOL
REMARK 923 INTER-LIGAND FREE ENERGY PREDICTED BY IDOCK:  -10.28 KCAL/MOL
REMARK 924 INTRA-LIGAND FREE ENERGY PREDICTED BY IDOCK:   -0.72 KCAL/MOL
REMARK 927      BINDING AFFINITY PREDICTED BY RF-SCORE:    0.00 PKD
ROOT
HETATM    1  C   UNL     1     -10.670   9.103  70.591  1.00  0.00    -0.254 C  
HETATM    2  C   UNL     1     -10.058   9.609  69.282  1.00  0.00    -0.201 C  
HETATM    3  C   UNL     1     -10.650  10.999  69.157  1.00  0.00    -0.219 C  
HETATM    4  C   UNL     1     -10.341   8.646  68.138  1.00  0.00    -0.267 C  
HETATM    5  O   UNL     1     -13.677   9.876  71.712  1.00  0.00    -0.291 OA 
HETATM    6  C   UNL     1     -11.428  11.285  70.221  1.00  0.00    -0.193 C  
HETATM    7  C   UNL     1     -11.977   8.254  70.696  1.00  0.00    -0.028 C  
HETATM    8  N   UNL     1     -11.460  10.242  71.139  1.00  0.00    -0.309 N  
HETATM    9  C   UNL     1     -12.122  12.579  70.507  1.00  0.00    -0.274 C  
HETATM   10  O   UNL     1     -11.799  13.653  70.025  1.00  0.00    -0.303 OA 
HETATM   11  O   UNL     1     -13.171  12.484  71.353  1.00  0.00    -0.282 OA 
HETATM   12  C   UNL     1     -12.587   9.499  71.344  1.00  0.00    -0.359 C  
ENDROOT
BRANCH   3  13
HETATM   13  S   UNL     1     -10.120  12.016  67.871  1.00  0.00    -0.200 SA 
BRANCH  13  14
HETATM   14  C   UNL     1     -11.127  11.515  66.422  1.00  0.00    -0.269 C  
HETATM   15  C   UNL     1     -10.325  11.175  65.171  1.00  0.00    -0.293 C  
HETATM   16  N   UNL     1      -9.981  12.475  64.620  1.00  0.00    -0.487 NA 
HETATM   17  C   UNL     1     -11.150  13.364  64.809  1.00  0.00    -0.351 C  
HETATM   18  C   UNL     1     -11.940  12.733  65.962  1.00  0.00    -0.491 C  
HETATM   19  H   UNL     1      -9.673  12.426  63.648  1.00  0.00     0.000 HD 
BRANCH  17  20
HETATM   20  C   UNL     1     -10.644  14.826  64.971  1.00  0.00    -0.429 C  
HETATM   21  O   UNL     1     -11.212  15.743  64.376  1.00  0.00    -0.388 OA 
HETATM   22  N   UNL     1      -9.622  15.006  65.894  1.00  0.00    -0.367 N  
HETATM   23  H   UNL     1      -9.301  14.175  66.388  1.00  0.00     0.000 HD 
BRANCH  22  24
HETATM   24  C   UNL     1      -8.979  16.227  66.220  1.00  0.00    -0.331 A  
HETATM   25  C   UNL     1      -7.640  16.321  66.615  1.00  0.00    -0.268 A  
HETATM   26  C   UNL     1      -7.058  17.558  66.912  1.00  0.00    -0.225 A  
HETATM   27  C   UNL     1      -7.810  18.725  66.830  1.00  0.00    -0.255 A  
HETATM   28  C   UNL     1      -9.159  18.647  66.468  1.00  0.00    -0.317 A  
HETATM   29  C   UNL     1     -10.006  19.861  66.371  1.00  0.00    -0.479 C  
HETATM   30  C   UNL     1      -9.732  17.404  66.144  1.00  0.00    -0.235 A  
HETATM   31  O   UNL     1      -9.691  20.825  67.262  1.00  0.00    -0.479 OA 
HETATM   32  O   UNL     1     -10.930  19.958  65.581  1.00  0.00    -0.349 OA 
ENDBRANCH  22  24
ENDBRANCH  17  20
ENDBRANCH  13  14
ENDBRANCH   3  13
BRANCH   7  33
HETATM   33  C   UNL     1     -11.841   6.988  71.519  1.00  0.00    -0.314 C  
HETATM   34  O   UNL     1     -12.148   7.341  72.868  1.00  0.00    -0.519 OA 
HETATM   35  H   UNL     1     -12.062   6.547  73.384  1.00  0.00     0.000 HD 
HETATM   36  C   UNL     1     -10.426   6.434  71.454  1.00  0.00    -0.257 C  
ENDBRANCH   7  33
TORSDOF 5
ENDMDL
MODEL       21
REMARK 921   NORMALIZED FREE ENERGY PREDICTED BY IDOCK:   -7.21 KCAL/MOL
REMARK 922        TOTAL FREE ENERGY PREDICTED BY IDOCK:  -11.00 KCAL/MOL
REMARK 923 INTER-LIGAND FREE ENERGY PREDICTED BY IDOCK:   -9.80 KCAL/MOL
REMARK 924 INTRA-LIGAND FREE ENERGY PREDICTED BY IDOCK:   -1.21 KCAL/MOL
REMARK 927      BINDING AFFINITY PREDICTED BY RF-SCORE:    0.00 PKD
ROOT
HETATM    1  C   UNL     1      -9.077  17.174  67.308  1.00  0.00    -0.222 C  
HETATM    2  C   UNL     1      -9.349  15.804  67.936  1.00  0.00    -0.200 C  
HETATM    3  C   UNL     1     -10.257  15.149  66.915  1.00  0.00    -0.259 C  
HETATM    4  C   UNL     1      -9.907  15.950  69.345  1.00  0.00    -0.280 C  
HETATM    5  O   UNL     1     -11.210  18.878  65.453  1.00  0.00    -0.123 OA 
HETATM    6  C   UNL     1     -10.446  15.958  65.853  1.00  0.00    -0.359 C  
HETATM    7  C   UNL     1      -9.890  18.472  67.610  1.00  0.00    -0.335 C  
HETATM    8  N   UNL     1      -9.750  17.154  65.979  1.00  0.00    -0.231 N  
HETATM    9  C   UNL     1     -11.210  15.644  64.606  1.00  0.00    -0.369 C  
HETATM   10  O   UNL     1     -11.457  14.513  64.218  1.00  0.00    -0.295 OA 
HETATM   11  O   UNL     1     -11.635  16.724  63.915  1.00  0.00    -1.122 OA 
HETATM   12  C   UNL     1     -10.393  18.344  66.170  1.00  0.00    -0.407 C  
ENDROOT
BRANCH   3  13
HETATM   13  S   UNL     1     -10.717  13.504  67.145  1.00  0.00    -0.280 SA 
BRANCH  13  14
HETATM   14  C   UNL     1      -9.600  12.541  66.054  1.00  0.00    -0.202 C  
HETATM   15  C   UNL     1     -10.247  11.344  65.368  1.00  0.00    -0.270 C  
HETATM   16  N   UNL     1     -10.284  10.330  66.408  1.00  0.00    -0.233 NA 
HETATM   17  C   UNL     1      -9.027  10.438  67.182  1.00  0.00    -0.139 C  
HETATM   18  C   UNL     1      -8.536  11.870  66.935  1.00  0.00    -0.174 C  
HETATM   19  H   UNL     1     -10.446   9.391  66.043  1.00  0.00     0.000 HD 
BRANCH  17  20
HETATM   20  C   UNL     1      -9.303   9.994  68.647  1.00  0.00    -0.156 C  
HETATM   21  O   UNL     1      -8.455  10.193  69.520  1.00  0.00    -0.159 OA 
HETATM   22  N   UNL     1     -10.572   9.488  68.890  1.00  0.00    -0.219 N  
HETATM   23  H   UNL     1     -11.213   9.460  68.097  1.00  0.00     0.000 HD 
BRANCH  22  24
HETATM   24  C   UNL     1     -11.072   9.005  70.126  1.00  0.00    -0.207 A  
HETATM   25  C   UNL     1     -11.892   9.752  70.980  1.00  0.00    -0.442 A  
HETATM   26  C   UNL     1     -12.364   9.214  72.182  1.00  0.00    -0.424 A  
HETATM   27  C   UNL     1     -12.014   7.922  72.559  1.00  0.00    -0.349 A  
HETATM   28  C   UNL     1     -11.168   7.173  71.734  1.00  0.00    -0.278 A  
HETATM   29  C   UNL     1     -10.761   5.792  72.092  1.00  0.00    -0.231 C  
HETATM   30  C   UNL     1     -10.719   7.707  70.513  1.00  0.00    -0.241 A  
HETATM   31  O   UNL     1     -10.621   5.587  73.419  1.00  0.00    -0.220 OA 
HETATM   32  O   UNL     1     -10.534   4.935  71.256  1.00  0.00    -0.185 OA 
ENDBRANCH  22  24
ENDBRANCH  17  20
ENDBRANCH  13  14
ENDBRANCH   3  13
BRANCH   7  33
HETATM   33  C   UNL     1      -9.045  19.671  67.990  1.00  0.00    -0.326 C  
HETATM   34  O   UNL     1      -8.860  20.437  66.800  1.00  0.00    -0.481 OA 
HETATM   35  H   UNL     1      -8.330  21.189  67.038  1.00  0.00     0.000 HD 
HETATM   36  C   UNL     1      -7.688  19.245  68.528  1.00  0.00    -0.380 C  
ENDBRANCH   7  33
TORSDOF 5
ENDMDL
MODEL       22
REMARK 921   NORMALIZED FREE ENERGY PREDICTED BY IDOCK:   -7.15 KCAL/MOL
REMARK 922        TOTAL FREE ENERGY PREDICTED BY IDOCK:  -10.92 KCAL/MOL
REMARK 923 INTER-LIGAND FREE ENERGY PREDICTED BY IDOCK:   -9.75 KCAL/MOL
REMARK 924 INTRA-LIGAND FREE ENERGY PREDICTED BY IDOCK:   -1.17 KCAL/MOL
REMARK 927      BINDING AFFINITY PREDICTED BY RF-SCORE:    0.00 PKD
ROOT
HETATM    1  C   UNL     1      -8.606  15.313  67.631  1.00  0.00    -0.169 C  
HETATM    2  C   UNL     1      -9.708  14.288  67.352  1.00  0.00    -0.235 C  
HETATM    3  C   UNL     1     -10.644  15.053  66.437  1.00  0.00    -0.310 C  
HETATM    4  C   UNL     1     -10.308  13.763  68.649  1.00  0.00    -0.225 C  
HETATM    5  O   UNL     1      -9.047  18.578  67.843  1.00  0.00    -0.281 OA 
HETATM    6  C   UNL     1     -10.160  16.285  66.178  1.00  0.00    -0.344 C  
HETATM    7  C   UNL     1      -8.572  16.276  68.860  1.00  0.00    -0.260 C  
HETATM    8  N   UNL     1      -8.939  16.507  66.804  1.00  0.00    -0.218 N  
HETATM    9  C   UNL     1     -10.748  17.309  65.259  1.00  0.00    -0.010 C  
HETATM   10  O   UNL     1     -11.526  17.054  64.354  1.00  0.00    -1.048 OA 
HETATM   11  O   UNL     1     -10.361  18.580  65.506  1.00  0.00    -0.555 OA 
HETATM   12  C   UNL     1      -8.811  17.390  67.838  1.00  0.00    -0.237 C  
ENDROOT
BRANCH   3  13
HETATM   13  S   UNL     1     -11.988  14.227  65.743  1.00  0.00    -0.384 SA 
BRANCH  13  14
HETATM   14  C   UNL     1     -11.414  13.694  64.085  1.00  0.00    -0.329 C  
HETATM   15  C   UNL     1     -12.352  12.736  63.358  1.00  0.00    -0.437 C  
HETATM   16  N   UNL     1     -12.085  11.453  63.984  1.00  0.00    -0.183 NA 
HETATM   17  C   UNL     1     -10.629  11.373  64.239  1.00  0.00    -0.355 C  
HETATM   18  C   UNL     1     -10.157  12.832  64.270  1.00  0.00    -0.277 C  
HETATM   19  H   UNL     1     -12.437  10.664  63.440  1.00  0.00     0.000 HD 
BRANCH  17  20
HETATM   20  C   UNL     1     -10.390  10.490  65.497  1.00  0.00    -0.217 C  
HETATM   21  O   UNL     1      -9.548   9.591  65.465  1.00  0.00    -0.260 OA 
HETATM   22  N   UNL     1     -11.089  10.868  66.635  1.00  0.00    -0.162 N  
HETATM   23  H   UNL     1     -11.688  11.689  66.552  1.00  0.00     0.000 HD 
BRANCH  22  24
HETATM   24  C   UNL     1     -11.059  10.230  67.901  1.00  0.00    -0.276 A  
HETATM   25  C   UNL     1     -10.325   9.069  68.171  1.00  0.00    -0.262 A  
HETATM   26  C   UNL     1     -10.325   8.494  69.446  1.00  0.00    -0.218 A  
HETATM   27  C   UNL     1     -11.072   9.062  70.472  1.00  0.00    -0.297 A  
HETATM   28  C   UNL     1     -11.837  10.204  70.212  1.00  0.00    -0.342 A  
HETATM   29  C   UNL     1     -12.655  10.846  71.271  1.00  0.00    -0.421 C  
HETATM   30  C   UNL     1     -11.812  10.795  68.936  1.00  0.00    -0.287 A  
HETATM   31  O   UNL     1     -13.175   9.979  72.166  1.00  0.00    -0.442 OA 
HETATM   32  O   UNL     1     -12.867  12.046  71.302  1.00  0.00    -0.365 OA 
ENDBRANCH  22  24
ENDBRANCH  17  20
ENDBRANCH  13  14
ENDBRANCH   3  13
BRANCH   7  33
HETATM   33  C   UNL     1      -7.272  16.259  69.639  1.00  0.00     0.009 C  
HETATM   34  O   UNL     1      -6.430  17.253  69.053  1.00  0.00    -0.196 OA 
HETATM   35  H   UNL     1      -5.615  17.242  69.541  1.00  0.00     0.000 HD 
HETATM   36  C   UNL     1      -6.588  14.904  69.547  1.00  0.00    -0.154 C  
ENDBRANCH   7  33
TORSDOF 5
ENDMDL
MODEL       23
REMARK 921   NORMALIZED FREE ENERGY PREDICTED BY IDOCK:   -7.14 KCAL/MOL
REMARK 922        TOTAL FREE ENERGY PREDICTED BY IDOCK:  -10.92 KCAL/MOL
REMARK 923 INTER-LIGAND FREE ENERGY PREDICTED BY IDOCK:  -10.02 KCAL/MOL
REMARK 924 INTRA-LIGAND FREE ENERGY PREDICTED BY IDOCK:   -0.90 KCAL/MOL
REMARK 927      BINDING AFFINITY PREDICTED BY RF-SCORE:    0.00 PKD
ROOT
HETATM    1  C   UNL     1      -8.420  18.336  67.455  1.00  0.00    -0.249 C  
HETATM    2  C   UNL     1      -9.840  17.791  67.278  1.00  0.00    -0.312 C  
HETATM    3  C   UNL     1      -9.623  16.292  67.308  1.00  0.00    -0.230 C  
HETATM    4  C   UNL     1     -10.489  18.357  66.022  1.00  0.00    -0.400 C  
HETATM    5  O   UNL     1      -5.672  16.900  66.322  1.00  0.00    -0.324 OA 
HETATM    6  C   UNL     1      -8.323  16.000  67.518  1.00  0.00    -0.161 C  
HETATM    7  C   UNL     1      -7.462  18.731  66.286  1.00  0.00    -0.288 C  
HETATM    8  N   UNL     1      -7.549  17.145  67.663  1.00  0.00    -0.165 N  
HETATM    9  C   UNL     1      -7.721  14.641  67.692  1.00  0.00    -0.177 C  
HETATM   10  O   UNL     1      -8.349  13.650  68.027  1.00  0.00    -0.148 OA 
HETATM   11  O   UNL     1      -6.396  14.572  67.436  1.00  0.00    -0.322 OA 
HETATM   12  C   UNL     1      -6.634  17.519  66.720  1.00  0.00    -0.199 C  
ENDROOT
BRANCH   3  13
HETATM   13  S   UNL     1     -10.996  15.252  67.279  1.00  0.00    -0.318 SA 
BRANCH  13  14
HETATM   14  C   UNL     1     -11.114  14.668  65.544  1.00  0.00    -0.345 C  
HETATM   15  C   UNL     1     -12.505  14.218  65.111  1.00  0.00    -0.416 C  
HETATM   16  N   UNL     1     -12.629  12.888  65.682  1.00  0.00    -0.553 NA 
HETATM   17  C   UNL     1     -11.313  12.222  65.553  1.00  0.00    -0.349 C  
HETATM   18  C   UNL     1     -10.304  13.370  65.422  1.00  0.00    -0.321 C  
HETATM   19  H   UNL     1     -13.389  12.347  65.269  1.00  0.00     0.000 HD 
BRANCH  17  20
HETATM   20  C   UNL     1     -11.144  11.220  66.731  1.00  0.00    -0.250 C  
HETATM   21  O   UNL     1     -10.583  10.139  66.542  1.00  0.00    -0.189 OA 
HETATM   22  N   UNL     1     -11.553  11.682  67.974  1.00  0.00    -0.315 N  
HETATM   23  H   UNL     1     -11.918  12.633  68.011  1.00  0.00     0.000 HD 
BRANCH  22  24
HETATM   24  C   UNL     1     -11.518  10.969  69.199  1.00  0.00    -0.301 A  
HETATM   25  C   UNL     1     -12.585  10.920  70.103  1.00  0.00    -0.304 A  
HETATM   26  C   UNL     1     -12.493  10.186  71.291  1.00  0.00    -0.510 A  
HETATM   27  C   UNL     1     -11.326   9.498  71.602  1.00  0.00    -0.411 A  
HETATM   28  C   UNL     1     -10.237   9.562  70.726  1.00  0.00    -0.363 A  
HETATM   29  C   UNL     1      -8.968   8.850  71.014  1.00  0.00    -0.241 C  
HETATM   30  C   UNL     1     -10.344  10.278  69.520  1.00  0.00    -0.267 A  
HETATM   31  O   UNL     1      -8.663   8.779  72.327  1.00  0.00    -0.375 OA 
HETATM   32  O   UNL     1      -8.249   8.406  70.136  1.00  0.00    -0.111 OA 
ENDBRANCH  22  24
ENDBRANCH  17  20
ENDBRANCH  13  14
ENDBRANCH   3  13
BRANCH   7  33
HETATM   33  C   UNL     1      -6.858  20.116  66.407  1.00  0.00    -0.230 C  
HETATM   34  O   UNL     1      -7.895  20.976  66.878  1.00  0.00    -0.564 OA 
HETATM   35  H   UNL     1      -7.516  21.844  66.954  1.00  0.00     0.000 HD 
HETATM   36  C   UNL     1      -6.358  20.621  65.063  1.00  0.00    -0.311 C  
ENDBRANCH   7  33
TORSDOF 5
ENDMDL
MODEL       24
REMARK 921   NORMALIZED FREE ENERGY PREDICTED BY IDOCK:   -7.13 KCAL/MOL
REMARK 922        TOTAL FREE ENERGY PREDICTED BY IDOCK:  -10.90 KCAL/MOL
REMARK 923 INTER-LIGAND FREE ENERGY PREDICTED BY IDOCK:   -9.89 KCAL/MOL
REMARK 924 INTRA-LIGAND FREE ENERGY PREDICTED BY IDOCK:   -1.00 KCAL/MOL
REMARK 927      BINDING AFFINITY PREDICTED BY RF-SCORE:    0.00 PKD
ROOT
HETATM    1  C   UNL     1     -11.969  13.814  66.113  1.00  0.00    -0.418 C  
HETATM    2  C   UNL     1     -11.582  13.463  67.552  1.00  0.00    -0.382 C  
HETATM    3  C   UNL     1     -10.979  14.759  68.055  1.00  0.00    -0.271 C  
HETATM    4  C   UNL     1     -10.681  12.236  67.592  1.00  0.00    -0.250 C  
HETATM    5  O   UNL     1     -10.333  15.909  64.155  1.00  0.00     0.477 OA 
HETATM    6  C   UNL     1     -11.045  15.718  67.110  1.00  0.00    -0.180 C  
HETATM    7  C   UNL     1     -11.073  13.561  64.859  1.00  0.00    -0.356 C  
HETATM    8  N   UNL     1     -11.656  15.262  65.948  1.00  0.00    -0.094 N  
HETATM    9  C   UNL     1     -10.630  17.149  67.246  1.00  0.00    -0.270 C  
HETATM   10  O   UNL     1     -10.519  17.733  68.312  1.00  0.00    -0.369 OA 
HETATM   11  O   UNL     1     -10.367  17.776  66.078  1.00  0.00    -0.442 OA 
HETATM   12  C   UNL     1     -10.955  15.085  64.788  1.00  0.00    -0.373 C  
ENDROOT
BRANCH   3  13
HETATM   13  S   UNL     1     -10.519  14.874  69.712  1.00  0.00    -0.070 SA 
BRANCH  13  14
HETATM   14  C   UNL     1     -11.767  15.978  70.477  1.00  0.00    -0.329 C  
HETATM   15  C   UNL     1     -11.561  16.247  71.964  1.00  0.00    -0.338 C  
HETATM   16  N   UNL     1     -12.070  15.047  72.604  1.00  0.00    -0.347 NA 
HETATM   17  C   UNL     1     -13.274  14.618  71.857  1.00  0.00    -0.349 C  
HETATM   18  C   UNL     1     -13.118  15.249  70.467  1.00  0.00    -0.334 C  
HETATM   19  H   UNL     1     -12.246  15.173  73.602  1.00  0.00     0.000 HD 
BRANCH  17  20
HETATM   20  C   UNL     1     -13.398  13.071  71.956  1.00  0.00    -0.492 C  
HETATM   21  O   UNL     1     -14.362  12.567  72.536  1.00  0.00    -0.113 OA 
HETATM   22  N   UNL     1     -12.435  12.347  71.265  1.00  0.00    -0.253 N  
HETATM   23  H   UNL     1     -11.742  12.887  70.748  1.00  0.00     0.000 HD 
BRANCH  22  24
HETATM   24  C   UNL     1     -12.316  10.936  71.203  1.00  0.00    -0.374 A  
HETATM   25  C   UNL     1     -13.195  10.051  71.837  1.00  0.00    -0.557 A  
HETATM   26  C   UNL     1     -13.032   8.666  71.727  1.00  0.00    -0.394 A  
HETATM   27  C   UNL     1     -11.977   8.140  70.990  1.00  0.00    -0.257 A  
HETATM   28  C   UNL     1     -11.069   9.009  70.376  1.00  0.00    -0.279 A  
HETATM   29  C   UNL     1      -9.925   8.499  69.583  1.00  0.00    -0.192 C  
HETATM   30  C   UNL     1     -11.254  10.400  70.466  1.00  0.00    -0.395 A  
HETATM   31  O   UNL     1      -9.409   7.339  70.043  1.00  0.00    -0.155 OA 
HETATM   32  O   UNL     1      -9.468   9.099  68.625  1.00  0.00    -0.142 OA 
ENDBRANCH  22  24
ENDBRANCH  17  20
ENDBRANCH  13  14
ENDBRANCH   3  13
BRANCH   7  33
HETATM   33  C   UNL     1     -11.763  12.823  63.730  1.00  0.00    -0.493 C  
HETATM   34  O   UNL     1     -12.362  13.815  62.896  1.00  0.00    -1.008 OA 
HETATM   35  H   UNL     1     -12.795  13.352  62.188  1.00  0.00     0.000 HD 
HETATM   36  C   UNL     1     -12.843  11.890  64.255  1.00  0.00    -0.094 C  
ENDBRANCH   7  33
TORSDOF 5
ENDMDL
MODEL       25
REMARK 921   NORMALIZED FREE ENERGY PREDICTED BY IDOCK:   -7.06 KCAL/MOL
REMARK 922        TOTAL FREE ENERGY PREDICTED BY IDOCK:  -10.80 KCAL/MOL
REMARK 923 INTER-LIGAND FREE ENERGY PREDICTED BY IDOCK:   -9.40 KCAL/MOL
REMARK 924 INTRA-LIGAND FREE ENERGY PREDICTED BY IDOCK:   -1.40 KCAL/MOL
REMARK 927      BINDING AFFINITY PREDICTED BY RF-SCORE:    0.00 PKD
ROOT
HETATM    1  C   UNL     1      -9.920   9.912  66.864  1.00  0.00    -0.212 C  
HETATM    2  C   UNL     1      -9.503  11.102  67.733  1.00  0.00    -0.173 C  
HETATM    3  C   UNL     1      -9.561  12.259  66.755  1.00  0.00    -0.218 C  
HETATM    4  C   UNL     1      -8.160  10.846  68.402  1.00  0.00    -0.131 C  
HETATM    5  O   UNL     1      -9.257   9.576  63.647  1.00  0.00    -0.206 OA 
HETATM    6  C   UNL     1      -9.985  11.843  65.545  1.00  0.00    -0.238 C  
HETATM    7  C   UNL     1      -8.931   8.965  66.113  1.00  0.00    -0.218 C  
HETATM    8  N   UNL     1     -10.264  10.481  65.530  1.00  0.00    -0.272 N  
HETATM    9  C   UNL     1     -10.249  12.692  64.342  1.00  0.00    -0.318 C  
HETATM   10  O   UNL     1     -10.468  13.892  64.383  1.00  0.00    -0.397 OA 
HETATM   11  O   UNL     1     -10.219  12.030  63.164  1.00  0.00    -0.410 OA 
HETATM   12  C   UNL     1      -9.490   9.596  64.836  1.00  0.00    -0.220 C  
ENDROOT
BRANCH   3  13
HETATM   13  S   UNL     1      -9.296  13.857  67.343  1.00  0.00    -0.238 SA 
BRANCH  13  14
HETATM   14  C   UNL     1     -10.888  14.729  67.083  1.00  0.00    -0.311 C  
HETATM   15  C   UNL     1     -11.099  15.956  67.963  1.00  0.00    -0.334 C  
HETATM   16  N   UNL     1     -11.489  15.397  69.246  1.00  0.00    -0.309 NA 
HETATM   17  C   UNL     1     -12.367  14.236  68.979  1.00  0.00    -0.112 C  
HETATM   18  C   UNL     1     -12.021  13.802  67.549  1.00  0.00    -0.411 C  
HETATM   19  H   UNL     1     -11.917  16.085  69.866  1.00  0.00     0.000 HD 
BRANCH  17  20
HETATM   20  C   UNL     1     -12.192  13.203  70.128  1.00  0.00    -0.290 C  
HETATM   21  O   UNL     1     -12.041  13.593  71.287  1.00  0.00    -0.262 OA 
HETATM   22  N   UNL     1     -12.335  11.871  69.763  1.00  0.00    -0.135 N  
HETATM   23  H   UNL     1     -12.550  11.686  68.784  1.00  0.00     0.000 HD 
BRANCH  22  24
HETATM   24  C   UNL     1     -12.213  10.741  70.610  1.00  0.00    -0.379 A  
HETATM   25  C   UNL     1     -13.292  10.144  71.273  1.00  0.00    -0.394 A  
HETATM   26  C   UNL     1     -13.109   9.020  72.086  1.00  0.00    -0.496 A  
HETATM   27  C   UNL     1     -11.840   8.480  72.262  1.00  0.00    -0.453 A  
HETATM   28  C   UNL     1     -10.745   9.083  71.633  1.00  0.00    -0.441 A  
HETATM   29  C   UNL     1      -9.370   8.549  71.792  1.00  0.00    -0.253 C  
HETATM   30  C   UNL     1     -10.938  10.196  70.794  1.00  0.00    -0.313 A  
HETATM   31  O   UNL     1      -9.127   8.006  73.004  1.00  0.00    -0.211 OA 
HETATM   32  O   UNL     1      -8.527   8.632  70.916  1.00  0.00    -0.134 OA 
ENDBRANCH  22  24
ENDBRANCH  17  20
ENDBRANCH  13  14
ENDBRANCH   3  13
BRANCH   7  33
HETATM   33  C   UNL     1      -9.160   7.487  66.364  1.00  0.00    -0.173 C  
HETATM   34  O   UNL     1      -9.080   6.838  65.096  1.00  0.00    -0.342 OA 
HETATM   35  H   UNL     1      -9.224   5.912  65.254  1.00  0.00     0.000 HD 
HETATM   36  C   UNL     1     -10.530   7.235  66.973  1.00  0.00    -0.398 C  
ENDBRANCH   7  33
TORSDOF 5
ENDMDL
MODEL       26
REMARK 921   NORMALIZED FREE ENERGY PREDICTED BY IDOCK:   -7.04 KCAL/MOL
REMARK 922        TOTAL FREE ENERGY PREDICTED BY IDOCK:  -10.78 KCAL/MOL
REMARK 923 INTER-LIGAND FREE ENERGY PREDICTED BY IDOCK:   -9.10 KCAL/MOL
REMARK 924 INTRA-LIGAND FREE ENERGY PREDICTED BY IDOCK:   -1.67 KCAL/MOL
REMARK 927      BINDING AFFINITY PREDICTED BY RF-SCORE:    0.00 PKD
ROOT
HETATM    1  C   UNL     1     -11.261   9.643  68.704  1.00  0.00     0.046 C  
HETATM    2  C   UNL     1     -10.585  10.743  67.882  1.00  0.00    -0.258 C  
HETATM    3  C   UNL     1      -9.659   9.956  66.977  1.00  0.00    -0.175 C  
HETATM    4  C   UNL     1      -9.931  11.778  68.787  1.00  0.00    -0.128 C  
HETATM    5  O   UNL     1      -9.843   6.807  69.622  1.00  0.00    -0.164 OA 
HETATM    6  C   UNL     1      -9.797   8.632  67.185  1.00  0.00    -0.207 C  
HETATM    7  C   UNL     1     -10.773   9.144  70.101  1.00  0.00    -0.263 C  
HETATM    8  N   UNL     1     -10.754   8.354  68.154  1.00  0.00    -0.100 N  
HETATM    9  C   UNL     1      -9.120   7.526  66.439  1.00  0.00    -0.173 C  
HETATM   10  O   UNL     1      -8.640   7.645  65.322  1.00  0.00    -0.119 OA 
HETATM   11  O   UNL     1      -9.059   6.349  67.100  1.00  0.00    -0.118 OA 
HETATM   12  C   UNL     1     -10.415   7.845  69.375  1.00  0.00    -0.220 C  
ENDROOT
BRANCH   3  13
HETATM   13  S   UNL     1      -8.777  10.796  65.757  1.00  0.00    -0.186 SA 
BRANCH  13  14
HETATM   14  C   UNL     1      -9.695  10.475  64.202  1.00  0.00    -0.327 C  
HETATM   15  C   UNL     1      -9.245  11.309  63.007  1.00  0.00    -0.292 C  
HETATM   16  N   UNL     1      -9.866  12.601  63.236  1.00  0.00    -0.515 NA 
HETATM   17  C   UNL     1     -11.217  12.357  63.791  1.00  0.00    -0.453 C  
HETATM   18  C   UNL     1     -11.142  10.949  64.397  1.00  0.00     0.161 C  
HETATM   19  H   UNL     1      -9.880  13.189  62.402  1.00  0.00     0.000 HD 
BRANCH  17  20
HETATM   20  C   UNL     1     -11.597  13.544  64.721  1.00  0.00    -0.349 C  
HETATM   21  O   UNL     1     -12.762  13.945  64.761  1.00  0.00    -0.650 OA 
HETATM   22  N   UNL     1     -10.582  14.005  65.548  1.00  0.00    -0.303 N  
HETATM   23  H   UNL     1      -9.685  13.525  65.482  1.00  0.00     0.000 HD 
BRANCH  22  24
HETATM   24  C   UNL     1     -10.662  15.075  66.475  1.00  0.00    -0.312 A  
HETATM   25  C   UNL     1     -10.215  16.374  66.206  1.00  0.00    -0.341 A  
HETATM   26  C   UNL     1     -10.335  17.392  67.159  1.00  0.00    -0.325 A  
HETATM   27  C   UNL     1     -10.893  17.125  68.404  1.00  0.00    -0.309 A  
HETATM   28  C   UNL     1     -11.315  15.825  68.702  1.00  0.00    -0.369 A  
HETATM   29  C   UNL     1     -11.913  15.488  70.017  1.00  0.00    -0.364 C  
HETATM   30  C   UNL     1     -11.219  14.812  67.732  1.00  0.00    -0.323 A  
HETATM   31  O   UNL     1     -11.403  16.192  71.050  1.00  0.00    -0.387 OA 
HETATM   32  O   UNL     1     -12.759  14.622  70.153  1.00  0.00    -0.314 OA 
ENDBRANCH  22  24
ENDBRANCH  17  20
ENDBRANCH  13  14
ENDBRANCH   3  13
BRANCH   7  33
HETATM   33  C   UNL     1     -11.847   9.118  71.171  1.00  0.00    -0.307 C  
HETATM   34  O   UNL     1     -12.531   7.873  71.035  1.00  0.00    -0.466 OA 
HETATM   35  H   UNL     1     -13.204   7.856  71.705  1.00  0.00     0.000 HD 
HETATM   36  C   UNL     1     -12.837  10.258  70.991  1.00  0.00    -0.490 C  
ENDBRANCH   7  33
TORSDOF 5
ENDMDL
MODEL       27
REMARK 921   NORMALIZED FREE ENERGY PREDICTED BY IDOCK:   -7.02 KCAL/MOL
REMARK 922        TOTAL FREE ENERGY PREDICTED BY IDOCK:  -10.76 KCAL/MOL
REMARK 923 INTER-LIGAND FREE ENERGY PREDICTED BY IDOCK:   -9.42 KCAL/MOL
REMARK 924 INTRA-LIGAND FREE ENERGY PREDICTED BY IDOCK:   -1.34 KCAL/MOL
REMARK 927      BINDING AFFINITY PREDICTED BY RF-SCORE:    0.00 PKD
ROOT
HETATM    1  C   UNL     1      -9.459  18.038  66.607  1.00  0.00    -0.297 C  
HETATM    2  C   UNL     1      -8.852  16.717  66.128  1.00  0.00    -0.323 C  
HETATM    3  C   UNL     1      -9.484  15.706  67.064  1.00  0.00    -0.224 C  
HETATM    4  C   UNL     1      -7.331  16.782  66.128  1.00  0.00    -0.064 C  
HETATM    5  O   UNL     1     -10.262  18.745  69.730  1.00  0.00     0.209 OA 
HETATM    6  C   UNL     1     -10.346  16.307  67.907  1.00  0.00    -0.285 C  
HETATM    7  C   UNL     1      -8.799  19.000  67.644  1.00  0.00    -0.319 C  
HETATM    8  N   UNL     1     -10.430  17.676  67.678  1.00  0.00    -0.364 N  
HETATM    9  C   UNL     1     -11.223  15.646  68.923  1.00  0.00    -0.311 C  
HETATM   10  O   UNL     1     -11.549  14.470  68.888  1.00  0.00    -0.276 OA 
HETATM   11  O   UNL     1     -11.639  16.453  69.924  1.00  0.00    -0.200 OA 
HETATM   12  C   UNL     1      -9.943  18.586  68.573  1.00  0.00    -0.384 C  
ENDROOT
BRANCH   3  13
HETATM   13  S   UNL     1      -9.187  14.029  66.800  1.00  0.00    -0.244 SA 
BRANCH  13  14
HETATM   14  C   UNL     1     -10.325  13.553  65.442  1.00  0.00    -0.319 C  
HETATM   15  C   UNL     1     -11.806  13.594  65.802  1.00  0.00    -0.371 C  
HETATM   16  N   UNL     1     -12.011  12.367  66.552  1.00  0.00    -0.605 NA 
HETATM   17  C   UNL     1     -11.201  11.308  65.907  1.00  0.00    -0.027 C  
HETATM   18  C   UNL     1     -10.109  12.063  65.139  1.00  0.00    -0.295 C  
HETATM   19  H   UNL     1     -12.996  12.115  66.639  1.00  0.00     0.000 HD 
BRANCH  17  20
HETATM   20  C   UNL     1     -10.768  10.281  66.992  1.00  0.00    -0.216 C  
HETATM   21  O   UNL     1     -10.520   9.117  66.673  1.00  0.00    -0.243 OA 
HETATM   22  N   UNL     1     -10.578  10.800  68.266  1.00  0.00    -0.187 N  
HETATM   23  H   UNL     1     -10.729  11.802  68.378  1.00  0.00     0.000 HD 
BRANCH  22  24
HETATM   24  C   UNL     1     -10.197  10.082  69.428  1.00  0.00    -0.222 A  
HETATM   25  C   UNL     1      -8.869   9.816  69.779  1.00  0.00    -0.241 A  
HETATM   26  C   UNL     1      -8.556   9.113  70.947  1.00  0.00    -0.259 A  
HETATM   27  C   UNL     1      -9.569   8.650  71.779  1.00  0.00    -0.360 A  
HETATM   28  C   UNL     1     -10.904   8.878  71.428  1.00  0.00    -0.378 A  
HETATM   29  C   UNL     1     -12.021   8.401  72.279  1.00  0.00    -0.389 C  
HETATM   30  C   UNL     1     -11.213   9.610  70.267  1.00  0.00    -0.324 A  
HETATM   31  O   UNL     1     -11.771   7.236  72.915  1.00  0.00    -0.171 OA 
HETATM   32  O   UNL     1     -13.084   8.992  72.362  1.00  0.00    -0.412 OA 
ENDBRANCH  22  24
ENDBRANCH  17  20
ENDBRANCH  13  14
ENDBRANCH   3  13
BRANCH   7  33
HETATM   33  C   UNL     1      -8.704  20.444  67.193  1.00  0.00    -0.316 C  
HETATM   34  O   UNL     1      -9.167  20.483  65.843  1.00  0.00    -0.598 OA 
HETATM   35  H   UNL     1      -9.107  21.389  65.560  1.00  0.00     0.000 HD 
HETATM   36  C   UNL     1      -7.271  20.949  67.247  1.00  0.00    -0.408 C  
ENDBRANCH   7  33
TORSDOF 5
ENDMDL
MODEL       28
REMARK 921   NORMALIZED FREE ENERGY PREDICTED BY IDOCK:   -6.99 KCAL/MOL
REMARK 922        TOTAL FREE ENERGY PREDICTED BY IDOCK:  -10.72 KCAL/MOL
REMARK 923 INTER-LIGAND FREE ENERGY PREDICTED BY IDOCK:   -9.45 KCAL/MOL
REMARK 924 INTRA-LIGAND FREE ENERGY PREDICTED BY IDOCK:   -1.27 KCAL/MOL
REMARK 927      BINDING AFFINITY PREDICTED BY RF-SCORE:    0.00 PKD
ROOT
HETATM    1  C   UNL     1     -11.381   7.743  70.341  1.00  0.00    -0.207 C  
HETATM    2  C   UNL     1     -10.544   8.143  69.123  1.00  0.00    -0.179 C  
HETATM    3  C   UNL     1      -9.141   7.754  69.546  1.00  0.00    -0.146 C  
HETATM    4  C   UNL     1     -10.763   9.606  68.765  1.00  0.00    -0.234 C  
HETATM    5  O   UNL     1     -10.357   7.860  73.477  1.00  0.00    -0.263 OA 
HETATM    6  C   UNL     1      -9.150   7.181  70.766  1.00  0.00    -0.153 C  
HETATM    7  C   UNL     1     -11.767   8.701  71.512  1.00  0.00    -0.369 C  
HETATM    8  N   UNL     1     -10.434   7.092  71.290  1.00  0.00    -0.207 N  
HETATM    9  C   UNL     1      -7.983   6.593  71.494  1.00  0.00    -0.103 C  
HETATM   10  O   UNL     1      -6.952   6.224  70.954  1.00  0.00    -0.064 OA 
HETATM   11  O   UNL     1      -8.138   6.502  72.833  1.00  0.00    -0.105 OA 
HETATM   12  C   UNL     1     -10.828   7.842  72.361  1.00  0.00    -0.317 C  
ENDROOT
BRANCH   3  13
HETATM   13  S   UNL     1      -7.858   7.900  68.404  1.00  0.00    -0.121 SA 
BRANCH  13  14
HETATM   14  C   UNL     1      -6.691   9.101  69.153  1.00  0.00    -0.050 C  
HETATM   15  C   UNL     1      -7.292   9.994  70.232  1.00  0.00    -0.141 C  
HETATM   16  N   UNL     1      -8.018  11.002  69.479  1.00  0.00    -0.374 NA 
HETATM   17  C   UNL     1      -7.208  11.338  68.286  1.00  0.00    -0.080 C  
HETATM   18  C   UNL     1      -6.299  10.121  68.073  1.00  0.00    -0.057 C  
HETATM   19  H   UNL     1      -8.258  11.821  70.039  1.00  0.00     0.000 HD 
BRANCH  17  20
HETATM   20  C   UNL     1      -8.166  11.756  67.134  1.00  0.00    -0.169 C  
HETATM   21  O   UNL     1      -7.976  11.332  65.992  1.00  0.00    -0.102 OA 
HETATM   22  N   UNL     1      -9.265  12.514  67.514  1.00  0.00    -0.181 N  
HETATM   23  H   UNL     1      -9.355  12.721  68.508  1.00  0.00     0.000 HD 
BRANCH  22  24
HETATM   24  C   UNL     1     -10.276  13.029  66.664  1.00  0.00    -0.257 A  
HETATM   25  C   UNL     1     -11.351  12.272  66.183  1.00  0.00    -0.402 A  
HETATM   26  C   UNL     1     -12.325  12.843  65.358  1.00  0.00    -0.538 A  
HETATM   27  C   UNL     1     -12.236  14.180  64.987  1.00  0.00    -0.450 A  
HETATM   28  C   UNL     1     -11.151  14.944  65.431  1.00  0.00    -0.366 A  
HETATM   29  C   UNL     1     -11.006  16.372  65.060  1.00  0.00    -0.252 C  
HETATM   30  C   UNL     1     -10.189  14.373  66.284  1.00  0.00    -0.307 A  
HETATM   31  O   UNL     1     -11.470  16.671  63.828  1.00  0.00    -1.015 OA 
HETATM   32  O   UNL     1     -10.478  17.192  65.791  1.00  0.00    -0.472 OA 
ENDBRANCH  22  24
ENDBRANCH  17  20
ENDBRANCH  13  14
ENDBRANCH   3  13
BRANCH   7  33
HETATM   33  C   UNL     1     -13.246   8.725  71.845  1.00  0.00    -0.381 C  
HETATM   34  O   UNL     1     -13.345   8.768  73.269  1.00  0.00    -0.915 OA 
HETATM   35  H   UNL     1     -14.272   8.782  73.477  1.00  0.00     0.000 HD 
HETATM   36  C   UNL     1     -13.949   7.479  71.330  1.00  0.00    -0.468 C  
ENDBRANCH   7  33
TORSDOF 5
ENDMDL
MODEL       29
REMARK 921   NORMALIZED FREE ENERGY PREDICTED BY IDOCK:   -6.88 KCAL/MOL
REMARK 922        TOTAL FREE ENERGY PREDICTED BY IDOCK:  -10.58 KCAL/MOL
REMARK 923 INTER-LIGAND FREE ENERGY PREDICTED BY IDOCK:   -9.53 KCAL/MOL
REMARK 924 INTRA-LIGAND FREE ENERGY PREDICTED BY IDOCK:   -1.05 KCAL/MOL
REMARK 927      BINDING AFFINITY PREDICTED BY RF-SCORE:    0.00 PKD
ROOT
HETATM    1  C   UNL     1      -8.469  15.906  66.670  1.00  0.00    -0.287 C  
HETATM    2  C   UNL     1      -8.703  14.432  67.011  1.00  0.00    -0.244 C  
HETATM    3  C   UNL     1      -9.902  14.082  66.153  1.00  0.00    -0.303 C  
HETATM    4  C   UNL     1      -8.865  14.237  68.513  1.00  0.00    -0.176 C  
HETATM    5  O   UNL     1     -10.830  18.086  65.916  1.00  0.00    -0.236 OA 
HETATM    6  C   UNL     1     -10.277  15.136  65.401  1.00  0.00    -0.372 C  
HETATM    7  C   UNL     1      -9.048  17.112  67.476  1.00  0.00    -0.225 C  
HETATM    8  N   UNL     1      -9.459  16.240  65.608  1.00  0.00    -0.172 N  
HETATM    9  C   UNL     1     -11.362  15.168  64.371  1.00  0.00    -0.203 C  
HETATM   10  O   UNL     1     -11.808  14.179  63.813  1.00  0.00    -0.253 OA 
HETATM   11  O   UNL     1     -11.843  16.400  64.093  1.00  0.00    -0.901 OA 
HETATM   12  C   UNL     1      -9.913  17.364  66.238  1.00  0.00    -0.297 C  
ENDROOT
BRANCH   3  13
HETATM   13  S   UNL     1     -10.445  12.447  66.110  1.00  0.00    -0.254 SA 
BRANCH  13  14
HETATM   14  C   UNL     1      -9.022  11.491  65.456  1.00  0.00    -0.031 C  
HETATM   15  C   UNL     1      -9.381  10.439  64.413  1.00  0.00    -0.272 C  
HETATM   16  N   UNL     1      -9.900   9.335  65.202  1.00  0.00    -0.390 NA 
HETATM   17  C   UNL     1      -9.080   9.239  66.430  1.00  0.00    -0.160 C  
HETATM   18  C   UNL     1      -8.460  10.632  66.598  1.00  0.00    -0.137 C  
HETATM   19  H   UNL     1      -9.940   8.458  64.681  1.00  0.00     0.000 HD 
BRANCH  17  20
HETATM   20  C   UNL     1      -9.967   8.680  67.580  1.00  0.00    -0.199 C  
HETATM   21  O   UNL     1     -10.862   7.872  67.328  1.00  0.00    -0.272 OA 
HETATM   22  N   UNL     1      -9.597   9.063  68.862  1.00  0.00    -0.155 N  
HETATM   23  H   UNL     1      -8.777   9.665  68.940  1.00  0.00     0.000 HD 
BRANCH  22  24
HETATM   24  C   UNL     1     -10.240   8.706  70.074  1.00  0.00    -0.194 A  
HETATM   25  C   UNL     1      -9.844   7.630  70.877  1.00  0.00    -0.179 A  
HETATM   26  C   UNL     1     -10.512   7.336  72.071  1.00  0.00    -0.228 A  
HETATM   27  C   UNL     1     -11.597   8.105  72.477  1.00  0.00    -0.468 A  
HETATM   28  C   UNL     1     -12.027   9.164  71.670  1.00  0.00    -0.437 A  
HETATM   29  C   UNL     1     -13.181  10.012  72.054  1.00  0.00    -0.443 C  
HETATM   30  C   UNL     1     -11.335   9.474  70.485  1.00  0.00    -0.343 A  
HETATM   31  O   UNL     1     -14.150   9.351  72.724  1.00  0.00    -0.417 OA 
HETATM   32  O   UNL     1     -13.261  11.190  71.755  1.00  0.00    -0.442 OA 
ENDBRANCH  22  24
ENDBRANCH  17  20
ENDBRANCH  13  14
ENDBRANCH   3  13
BRANCH   7  33
HETATM   33  C   UNL     1      -8.021  18.151  67.880  1.00  0.00    -0.246 C  
HETATM   34  O   UNL     1      -8.705  19.114  68.682  1.00  0.00    -0.349 OA 
HETATM   35  H   UNL     1      -8.061  19.765  68.935  1.00  0.00     0.000 HD 
HETATM   36  C   UNL     1      -7.425  18.843  66.664  1.00  0.00    -0.242 C  
ENDBRANCH   7  33
TORSDOF 5
ENDMDL
MODEL       30
REMARK 921   NORMALIZED FREE ENERGY PREDICTED BY IDOCK:   -6.88 KCAL/MOL
REMARK 922        TOTAL FREE ENERGY PREDICTED BY IDOCK:  -10.57 KCAL/MOL
REMARK 923 INTER-LIGAND FREE ENERGY PREDICTED BY IDOCK:   -9.41 KCAL/MOL
REMARK 924 INTRA-LIGAND FREE ENERGY PREDICTED BY IDOCK:   -1.16 KCAL/MOL
REMARK 927      BINDING AFFINITY PREDICTED BY RF-SCORE:    0.00 PKD
ROOT
HETATM    1  C   UNL     1      -7.319  18.055  66.042  1.00  0.00    -0.263 C  
HETATM    2  C   UNL     1      -7.273  16.592  66.490  1.00  0.00    -0.187 C  
HETATM    3  C   UNL     1      -8.544  16.458  67.306  1.00  0.00    -0.181 C  
HETATM    4  C   UNL     1      -5.969  16.281  67.211  1.00  0.00    -0.175 C  
HETATM    5  O   UNL     1      -8.595  20.545  67.794  1.00  0.00    -0.218 OA 
HETATM    6  C   UNL     1      -9.241  17.611  67.299  1.00  0.00    -0.241 C  
HETATM    7  C   UNL     1      -6.632  19.241  66.792  1.00  0.00    -0.197 C  
HETATM    8  N   UNL     1      -8.616  18.594  66.540  1.00  0.00    -0.294 N  
HETATM    9  C   UNL     1     -10.580  17.858  67.919  1.00  0.00    -0.376 C  
HETATM   10  O   UNL     1     -11.382  16.980  68.195  1.00  0.00    -0.171 OA 
HETATM   11  O   UNL     1     -10.856  19.157  68.173  1.00  0.00    -0.231 OA 
HETATM   12  C   UNL     1      -8.056  19.699  67.115  1.00  0.00    -0.282 C  
ENDROOT
BRANCH   3  13
HETATM   13  S   UNL     1      -8.985  14.904  67.908  1.00  0.00    -0.181 SA 
BRANCH  13  14
HETATM   14  C   UNL     1      -9.749  14.041  66.481  1.00  0.00    -0.295 C  
HETATM   15  C   UNL     1     -11.152  14.516  66.120  1.00  0.00    -0.334 C  
HETATM   16  N   UNL     1     -11.999  13.867  67.106  1.00  0.00    -0.414 NA 
HETATM   17  C   UNL     1     -11.466  12.504  67.326  1.00  0.00    -0.353 C  
HETATM   18  C   UNL     1      -9.998  12.581  66.886  1.00  0.00    -0.229 C  
HETATM   19  H   UNL     1     -12.985  13.870  66.846  1.00  0.00     0.000 HD 
BRANCH  17  20
HETATM   20  C   UNL     1     -11.778  12.076  68.788  1.00  0.00    -0.321 C  
HETATM   21  O   UNL     1     -12.039  12.931  69.637  1.00  0.00    -0.289 OA 
HETATM   22  N   UNL     1     -11.851  10.707  69.009  1.00  0.00    -0.504 N  
HETATM   23  H   UNL     1     -11.704  10.105  68.199  1.00  0.00     0.000 HD 
BRANCH  22  24
HETATM   24  C   UNL     1     -12.108  10.058  70.243  1.00  0.00    -0.150 A  
HETATM   25  C   UNL     1     -13.260  10.268  71.008  1.00  0.00    -0.399 A  
HETATM   26  C   UNL     1     -13.463   9.587  72.213  1.00  0.00    -0.521 A  
HETATM   27  C   UNL     1     -12.508   8.691  72.682  1.00  0.00    -0.283 A  
HETATM   28  C   UNL     1     -11.334   8.493  71.947  1.00  0.00    -0.399 A  
HETATM   29  C   UNL     1     -10.282   7.554  72.406  1.00  0.00    -0.212 C  
HETATM   30  C   UNL     1     -11.148   9.160  70.722  1.00  0.00    -0.336 A  
HETATM   31  O   UNL     1     -10.155   7.483  73.748  1.00  0.00    -0.319 OA 
HETATM   32  O   UNL     1      -9.572   6.933  71.634  1.00  0.00    -0.162 OA 
ENDBRANCH  22  24
ENDBRANCH  17  20
ENDBRANCH  13  14
ENDBRANCH   3  13
BRANCH   7  33
HETATM   33  C   UNL     1      -5.758  20.117  65.918  1.00  0.00    -0.170 C  
HETATM   34  O   UNL     1      -6.482  21.327  65.695  1.00  0.00    -0.478 OA 
HETATM   35  H   UNL     1      -5.933  21.876  65.147  1.00  0.00     0.000 HD 
HETATM   36  C   UNL     1      -5.467  19.452  64.581  1.00  0.00    -0.244 C  
ENDBRANCH   7  33
TORSDOF 5
ENDMDL
MODEL       31
REMARK 921   NORMALIZED FREE ENERGY PREDICTED BY IDOCK:   -6.86 KCAL/MOL
REMARK 922        TOTAL FREE ENERGY PREDICTED BY IDOCK:  -10.55 KCAL/MOL
REMARK 923 INTER-LIGAND FREE ENERGY PREDICTED BY IDOCK:   -9.05 KCAL/MOL
REMARK 924 INTRA-LIGAND FREE ENERGY PREDICTED BY IDOCK:   -1.50 KCAL/MOL
REMARK 927      BINDING AFFINITY PREDICTED BY RF-SCORE:    0.00 PKD
ROOT
HETATM    1  C   UNL     1     -10.173   8.393  70.240  1.00  0.00    -0.196 C  
HETATM    2  C   UNL     1      -9.808   9.306  69.067  1.00  0.00    -0.168 C  
HETATM    3  C   UNL     1      -8.390   9.723  69.403  1.00  0.00    -0.152 C  
HETATM    4  C   UNL     1     -10.825  10.429  68.910  1.00  0.00    -0.273 C  
HETATM    5  O   UNL     1      -9.098   8.752  73.341  1.00  0.00    -0.143 OA 
HETATM    6  C   UNL     1      -7.971   9.126  70.537  1.00  0.00    -0.154 C  
HETATM    7  C   UNL     1     -10.912   8.856  71.536  1.00  0.00    -0.398 C  
HETATM    8  N   UNL     1      -8.942   8.288  71.073  1.00  0.00    -0.146 N  
HETATM    9  C   UNL     1      -6.612   9.217  71.155  1.00  0.00    -0.088 C  
HETATM   10  O   UNL     1      -5.602   9.536  70.548  1.00  0.00    -0.038 OA 
HETATM   11  O   UNL     1      -6.568   8.924  72.473  1.00  0.00    -0.264 OA 
HETATM   12  C   UNL     1      -9.582   8.585  72.243  1.00  0.00    -0.307 C  
ENDROOT
BRANCH   3  13
HETATM   13  S   UNL     1      -7.508  10.667  68.262  1.00  0.00    -0.095 SA 
BRANCH  13  14
HETATM   14  C   UNL     1      -6.712   9.446  67.149  1.00  0.00    -0.076 C  
HETATM   15  C   UNL     1      -5.589  10.004  66.282  1.00  0.00    -0.057 C  
HETATM   16  N   UNL     1      -6.291  10.688  65.209  1.00  0.00    -0.310 NA 
HETATM   17  C   UNL     1      -7.472   9.868  64.854  1.00  0.00    -0.135 C  
HETATM   18  C   UNL     1      -7.745   9.014  66.099  1.00  0.00    -0.099 C  
HETATM   19  H   UNL     1      -5.693  10.890  64.408  1.00  0.00     0.000 HD 
BRANCH  17  20
HETATM   20  C   UNL     1      -8.598  10.811  64.342  1.00  0.00    -0.040 C  
HETATM   21  O   UNL     1      -8.811  10.914  63.133  1.00  0.00    -0.202 OA 
HETATM   22  N   UNL     1      -9.379  11.401  65.327  1.00  0.00    -0.309 N  
HETATM   23  H   UNL     1      -9.156  11.161  66.292  1.00  0.00     0.000 HD 
BRANCH  22  24
HETATM   24  C   UNL     1     -10.455  12.303  65.131  1.00  0.00    -0.288 A  
HETATM   25  C   UNL     1     -11.785  11.904  64.959  1.00  0.00    -0.253 A  
HETATM   26  C   UNL     1     -12.805  12.845  64.783  1.00  0.00    -0.359 A  
HETATM   27  C   UNL     1     -12.511  14.204  64.761  1.00  0.00    -0.395 A  
HETATM   28  C   UNL     1     -11.183  14.620  64.899  1.00  0.00    -0.400 A  
HETATM   29  C   UNL     1     -10.815  16.057  64.878  1.00  0.00    -0.372 C  
HETATM   30  C   UNL     1     -10.164  13.672  65.104  1.00  0.00    -0.349 A  
HETATM   31  O   UNL     1     -11.587  16.811  64.066  1.00  0.00    -1.195 OA 
HETATM   32  O   UNL     1      -9.873  16.505  65.509  1.00  0.00    -0.537 OA 
ENDBRANCH  22  24
ENDBRANCH  17  20
ENDBRANCH  13  14
ENDBRANCH   3  13
BRANCH   7  33
HETATM   33  C   UNL     1     -12.124   8.022  71.902  1.00  0.00    -0.317 C  
HETATM   34  O   UNL     1     -11.997   7.701  73.287  1.00  0.00    -0.529 OA 
HETATM   35  H   UNL     1     -12.757   7.178  73.517  1.00  0.00     0.000 HD 
HETATM   36  C   UNL     1     -12.177   6.736  71.091  1.00  0.00    -0.413 C  
ENDBRANCH   7  33
TORSDOF 5
ENDMDL
MODEL       32
REMARK 921   NORMALIZED FREE ENERGY PREDICTED BY IDOCK:   -6.83 KCAL/MOL
REMARK 922        TOTAL FREE ENERGY PREDICTED BY IDOCK:  -10.51 KCAL/MOL
REMARK 923 INTER-LIGAND FREE ENERGY PREDICTED BY IDOCK:   -9.06 KCAL/MOL
REMARK 924 INTRA-LIGAND FREE ENERGY PREDICTED BY IDOCK:   -1.45 KCAL/MOL
REMARK 927      BINDING AFFINITY PREDICTED BY RF-SCORE:    0.00 PKD
ROOT
HETATM    1  C   UNL     1     -11.695   7.551  70.602  1.00  0.00    -0.215 C  
HETATM    2  C   UNL     1     -10.749   7.888  69.446  1.00  0.00    -0.174 C  
HETATM    3  C   UNL     1      -9.417   7.370  69.950  1.00  0.00    -0.153 C  
HETATM    4  C   UNL     1     -10.813   9.369  69.101  1.00  0.00    -0.176 C  
HETATM    5  O   UNL     1     -10.871   7.539  73.798  1.00  0.00    -0.316 OA 
HETATM    6  C   UNL     1      -9.556   6.786  71.158  1.00  0.00    -0.173 C  
HETATM    7  C   UNL     1     -12.070   8.527  71.762  1.00  0.00    -0.391 C  
HETATM    8  N   UNL     1     -10.874   6.806  71.597  1.00  0.00    -0.226 N  
HETATM    9  C   UNL     1      -8.495   6.087  71.948  1.00  0.00    -0.133 C  
HETATM   10  O   UNL     1      -7.469   5.632  71.469  1.00  0.00    -0.091 OA 
HETATM   11  O   UNL     1      -8.745   5.994  73.273  1.00  0.00    -0.121 OA 
HETATM   12  C   UNL     1     -11.268   7.576  72.654  1.00  0.00    -0.348 C  
ENDROOT
BRANCH   3  13
HETATM   13  S   UNL     1      -8.055   7.413  68.896  1.00  0.00    -0.129 SA 
BRANCH  13  14
HETATM   14  C   UNL     1      -6.823   8.467  69.753  1.00  0.00    -0.043 C  
HETATM   15  C   UNL     1      -7.408   9.658  70.504  1.00  0.00    -0.131 C  
HETATM   16  N   UNL     1      -7.672  10.629  69.456  1.00  0.00    -0.284 NA 
HETATM   17  C   UNL     1      -6.559  10.551  68.484  1.00  0.00    -0.055 C  
HETATM   18  C   UNL     1      -5.958   9.154  68.686  1.00  0.00    -0.044 C  
HETATM   19  H   UNL     1      -7.820  11.572  69.817  1.00  0.00     0.000 HD 
BRANCH  17  20
HETATM   20  C   UNL     1      -7.099  10.927  67.075  1.00  0.00    -0.109 C  
HETATM   21  O   UNL     1      -6.376  11.531  66.280  1.00  0.00    -0.064 OA 
HETATM   22  N   UNL     1      -8.362  10.439  66.769  1.00  0.00    -0.124 N  
HETATM   23  H   UNL     1      -8.820   9.874  67.483  1.00  0.00     0.000 HD 
BRANCH  22  24
HETATM   24  C   UNL     1      -9.083  10.646  65.565  1.00  0.00    -0.190 A  
HETATM   25  C   UNL     1      -8.750  10.049  64.345  1.00  0.00    -0.217 A  
HETATM   26  C   UNL     1      -9.510  10.282  63.194  1.00  0.00    -0.337 A  
HETATM   27  C   UNL     1     -10.612  11.129  63.240  1.00  0.00    -0.268 A  
HETATM   28  C   UNL     1     -10.941  11.761  64.444  1.00  0.00    -0.397 A  
HETATM   29  C   UNL     1     -12.103  12.677  64.546  1.00  0.00    -0.417 C  
HETATM   30  C   UNL     1     -10.191  11.501  65.605  1.00  0.00    -0.292 A  
HETATM   31  O   UNL     1     -12.343  13.388  63.423  1.00  0.00    -0.728 OA 
HETATM   32  O   UNL     1     -12.756  12.802  65.567  1.00  0.00    -0.595 OA 
ENDBRANCH  22  24
ENDBRANCH  17  20
ENDBRANCH  13  14
ENDBRANCH   3  13
BRANCH   7  33
HETATM   33  C   UNL     1     -13.559   8.679  72.001  1.00  0.00    -0.412 C  
HETATM   34  O   UNL     1     -13.728   8.923  73.398  1.00  0.00    -1.094 OA 
HETATM   35  H   UNL     1     -14.661   9.019  73.547  1.00  0.00     0.000 HD 
HETATM   36  C   UNL     1     -14.314   7.416  71.618  1.00  0.00    -0.614 C  
ENDBRANCH   7  33
TORSDOF 5
ENDMDL
MODEL       33
REMARK 921   NORMALIZED FREE ENERGY PREDICTED BY IDOCK:   -6.82 KCAL/MOL
REMARK 922        TOTAL FREE ENERGY PREDICTED BY IDOCK:  -10.50 KCAL/MOL
REMARK 923 INTER-LIGAND FREE ENERGY PREDICTED BY IDOCK:  -10.45 KCAL/MOL
REMARK 924 INTRA-LIGAND FREE ENERGY PREDICTED BY IDOCK:   -0.05 KCAL/MOL
REMARK 927      BINDING AFFINITY PREDICTED BY RF-SCORE:    0.00 PKD
ROOT
HETATM    1  C   UNL     1     -10.803  11.392  64.972  1.00  0.00    -0.246 C  
HETATM    2  C   UNL     1      -9.802  10.235  65.030  1.00  0.00    -0.397 C  
HETATM    3  C   UNL     1      -8.884  10.651  66.161  1.00  0.00    -0.168 C  
HETATM    4  C   UNL     1      -9.148  10.010  63.673  1.00  0.00    -0.301 C  
HETATM    5  O   UNL     1     -10.109  14.548  65.650  1.00  0.00    -0.323 OA 
HETATM    6  C   UNL     1      -9.294  11.812  66.709  1.00  0.00    -0.194 C  
HETATM    7  C   UNL     1     -10.675  12.639  64.039  1.00  0.00    -0.457 C  
HETATM    8  N   UNL     1     -10.445  12.297  66.100  1.00  0.00    -0.235 N  
HETATM    9  C   UNL     1      -8.703  12.508  67.894  1.00  0.00    -0.180 C  
HETATM   10  O   UNL     1      -8.015  11.959  68.741  1.00  0.00    -0.123 OA 
HETATM   11  O   UNL     1      -8.977  13.829  67.970  1.00  0.00    -0.171 OA 
HETATM   12  C   UNL     1     -10.431  13.425  65.329  1.00  0.00    -0.324 C  
ENDROOT
BRANCH   3  13
HETATM   13  S   UNL     1      -7.659   9.557  66.683  1.00  0.00    -0.098 SA 
BRANCH  13  14
HETATM   14  C   UNL     1      -8.520   7.954  66.914  1.00  0.00    -0.128 C  
HETATM   15  C   UNL     1      -9.931   7.895  66.340  1.00  0.00    -0.122 C  
HETATM   16  N   UNL     1     -10.734   8.594  67.328  1.00  0.00    -0.427 NA 
HETATM   17  C   UNL     1     -10.218   8.225  68.666  1.00  0.00    -0.204 C  
HETATM   18  C   UNL     1      -8.777   7.763  68.416  1.00  0.00    -0.127 C  
HETATM   19  H   UNL     1     -11.734   8.416  67.226  1.00  0.00     0.000 HD 
BRANCH  17  20
HETATM   20  C   UNL     1     -10.456   9.416  69.638  1.00  0.00    -0.223 C  
HETATM   21  O   UNL     1      -9.551   9.786  70.389  1.00  0.00    -0.252 OA 
HETATM   22  N   UNL     1     -11.676  10.064  69.503  1.00  0.00    -0.467 N  
HETATM   23  H   UNL     1     -12.302   9.714  68.779  1.00  0.00     0.000 HD 
BRANCH  22  24
HETATM   24  C   UNL     1     -12.142  11.163  70.269  1.00  0.00    -0.377 A  
HETATM   25  C   UNL     1     -12.868  11.032  71.458  1.00  0.00    -0.555 A  
HETATM   26  C   UNL     1     -13.289  12.157  72.175  1.00  0.00    -0.438 A  
HETATM   27  C   UNL     1     -13.003  13.435  71.709  1.00  0.00    -0.435 A  
HETATM   28  C   UNL     1     -12.306  13.586  70.505  1.00  0.00    -0.412 A  
HETATM   29  C   UNL     1     -11.979  14.926  69.962  1.00  0.00    -0.329 C  
HETATM   30  C   UNL     1     -11.860  12.452  69.802  1.00  0.00    -0.387 A  
HETATM   31  O   UNL     1     -12.910  15.868  70.224  1.00  0.00    -0.335 OA 
HETATM   32  O   UNL     1     -10.977  15.143  69.303  1.00  0.00    -0.234 OA 
ENDBRANCH  22  24
ENDBRANCH  17  20
ENDBRANCH  13  14
ENDBRANCH   3  13
BRANCH   7  33
HETATM   33  C   UNL     1     -11.911  12.940  63.216  1.00  0.00    -0.440 C  
HETATM   34  O   UNL     1     -12.368  14.231  63.619  1.00  0.00    -1.035 OA 
HETATM   35  H   UNL     1     -13.143  14.420  63.104  1.00  0.00     0.000 HD 
HETATM   36  C   UNL     1     -13.008  11.918  63.470  1.00  0.00    -0.307 C  
ENDBRANCH   7  33
TORSDOF 5
ENDMDL
MODEL       34
REMARK 921   NORMALIZED FREE ENERGY PREDICTED BY IDOCK:   -6.82 KCAL/MOL
REMARK 922        TOTAL FREE ENERGY PREDICTED BY IDOCK:  -10.50 KCAL/MOL
REMARK 923 INTER-LIGAND FREE ENERGY PREDICTED BY IDOCK:   -9.06 KCAL/MOL
REMARK 924 INTRA-LIGAND FREE ENERGY PREDICTED BY IDOCK:   -1.44 KCAL/MOL
REMARK 927      BINDING AFFINITY PREDICTED BY RF-SCORE:    0.00 PKD
ROOT
HETATM    1  C   UNL     1     -11.604   7.945  70.440  1.00  0.00    -0.081 C  
HETATM    2  C   UNL     1     -10.730   8.555  69.342  1.00  0.00    -0.166 C  
HETATM    3  C   UNL     1      -9.330   8.185  69.792  1.00  0.00    -0.159 C  
HETATM    4  C   UNL     1     -11.018  10.040  69.175  1.00  0.00    -0.256 C  
HETATM    5  O   UNL     1     -10.758   7.674  73.620  1.00  0.00    -0.292 OA 
HETATM    6  C   UNL     1      -9.369   7.447  70.919  1.00  0.00    -0.155 C  
HETATM    7  C   UNL     1     -12.110   8.708  71.706  1.00  0.00    -0.403 C  
HETATM    8  N   UNL     1     -10.672   7.217  71.347  1.00  0.00    -0.227 N  
HETATM    9  C   UNL     1      -8.209   6.825  71.630  1.00  0.00    -0.110 C  
HETATM   10  O   UNL     1      -7.130   6.590  71.108  1.00  0.00    -0.073 OA 
HETATM   11  O   UNL     1      -8.429   6.538  72.932  1.00  0.00    -0.120 OA 
HETATM   12  C   UNL     1     -11.166   7.788  72.485  1.00  0.00    -0.363 C  
ENDROOT
BRANCH   3  13
HETATM   13  S   UNL     1      -8.000   8.557  68.762  1.00  0.00    -0.121 SA 
BRANCH  13  14
HETATM   14  C   UNL     1      -7.929   7.175  67.558  1.00  0.00    -0.113 C  
HETATM   15  C   UNL     1      -6.653   7.113  66.726  1.00  0.00    -0.055 C  
HETATM   16  N   UNL     1      -6.855   8.131  65.710  1.00  0.00    -0.062 NA 
HETATM   17  C   UNL     1      -8.278   8.081  65.305  1.00  0.00    -0.146 C  
HETATM   18  C   UNL     1      -9.000   7.421  66.486  1.00  0.00    -0.184 C  
HETATM   19  H   UNL     1      -6.214   8.038  64.922  1.00  0.00     0.000 HD 
BRANCH  17  20
HETATM   20  C   UNL     1      -8.723   9.507  64.869  1.00  0.00    -0.189 C  
HETATM   21  O   UNL     1      -7.971  10.203  64.185  1.00  0.00    -0.154 OA 
HETATM   22  N   UNL     1     -10.025   9.856  65.203  1.00  0.00    -0.362 N  
HETATM   23  H   UNL     1     -10.576   9.152  65.692  1.00  0.00     0.000 HD 
BRANCH  22  24
HETATM   24  C   UNL     1     -10.667  11.091  64.935  1.00  0.00    -0.208 A  
HETATM   25  C   UNL     1     -11.116  11.477  63.666  1.00  0.00    -0.469 A  
HETATM   26  C   UNL     1     -11.756  12.704  63.468  1.00  0.00    -0.604 A  
HETATM   27  C   UNL     1     -11.949  13.576  64.534  1.00  0.00    -0.451 A  
HETATM   28  C   UNL     1     -11.478  13.222  65.803  1.00  0.00    -0.349 A  
HETATM   29  C   UNL     1     -11.654  14.117  66.972  1.00  0.00    -0.382 C  
HETATM   30  C   UNL     1     -10.860  11.974  66.003  1.00  0.00    -0.329 A  
HETATM   31  O   UNL     1     -11.600  15.433  66.671  1.00  0.00    -0.132 OA 
HETATM   32  O   UNL     1     -11.793  13.698  68.108  1.00  0.00    -0.342 OA 
ENDBRANCH  22  24
ENDBRANCH  17  20
ENDBRANCH  13  14
ENDBRANCH   3  13
BRANCH   7  33
HETATM   33  C   UNL     1     -13.603   8.606  71.948  1.00  0.00    -0.410 C  
HETATM   34  O   UNL     1     -13.801   8.759  73.354  1.00  0.00    -1.077 OA 
HETATM   35  H   UNL     1     -14.737   8.695  73.505  1.00  0.00     0.000 HD 
HETATM   36  C   UNL     1     -14.144   7.254  71.509  1.00  0.00    -0.515 C  
ENDBRANCH   7  33
TORSDOF 5
ENDMDL
MODEL       35
REMARK 921   NORMALIZED FREE ENERGY PREDICTED BY IDOCK:   -6.80 KCAL/MOL
REMARK 922        TOTAL FREE ENERGY PREDICTED BY IDOCK:  -10.47 KCAL/MOL
REMARK 923 INTER-LIGAND FREE ENERGY PREDICTED BY IDOCK:   -9.19 KCAL/MOL
REMARK 924 INTRA-LIGAND FREE ENERGY PREDICTED BY IDOCK:   -1.28 KCAL/MOL
REMARK 927      BINDING AFFINITY PREDICTED BY RF-SCORE:    0.00 PKD
ROOT
HETATM    1  C   UNL     1      -8.372  18.424  67.384  1.00  0.00    -0.252 C  
HETATM    2  C   UNL     1      -9.805  17.900  67.262  1.00  0.00    -0.309 C  
HETATM    3  C   UNL     1      -9.610  16.398  67.284  1.00  0.00    -0.234 C  
HETATM    4  C   UNL     1     -10.495  18.477  66.034  1.00  0.00    -0.433 C  
HETATM    5  O   UNL     1      -5.693  16.947  66.143  1.00  0.00    -0.270 OA 
HETATM    6  C   UNL     1      -8.308  16.086  67.442  1.00  0.00    -0.167 C  
HETATM    7  C   UNL     1      -7.455  18.805  66.178  1.00  0.00    -0.287 C  
HETATM    8  N   UNL     1      -7.512  17.219  67.557  1.00  0.00    -0.167 N  
HETATM    9  C   UNL     1      -7.721  14.718  67.591  1.00  0.00    -0.182 C  
HETATM   10  O   UNL     1      -8.350  13.736  67.950  1.00  0.00    -0.147 OA 
HETATM   11  O   UNL     1      -6.408  14.629  67.283  1.00  0.00    -0.303 OA 
HETATM   12  C   UNL     1      -6.629  17.580  66.578  1.00  0.00    -0.236 C  
ENDROOT
BRANCH   3  13
HETATM   13  S   UNL     1     -11.000  15.379  67.308  1.00  0.00    -0.295 SA 
BRANCH  13  14
HETATM   14  C   UNL     1     -11.373  15.041  65.545  1.00  0.00    -0.312 C  
HETATM   15  C   UNL     1     -12.682  14.301  65.296  1.00  0.00    -0.343 C  
HETATM   16  N   UNL     1     -12.361  12.919  65.606  1.00  0.00    -0.541 NA 
HETATM   17  C   UNL     1     -10.992  12.656  65.109  1.00  0.00    -0.291 C  
HETATM   18  C   UNL     1     -10.334  14.038  65.022  1.00  0.00    -0.432 C  
HETATM   19  H   UNL     1     -13.049  12.259  65.242  1.00  0.00     0.000 HD 
BRANCH  17  20
HETATM   20  C   UNL     1     -10.331  11.577  66.014  1.00  0.00    -0.246 C  
HETATM   21  O   UNL     1      -9.172  11.218  65.796  1.00  0.00    -0.212 OA 
HETATM   22  N   UNL     1     -11.085  11.167  67.105  1.00  0.00    -0.295 N  
HETATM   23  H   UNL     1     -11.995  11.611  67.224  1.00  0.00     0.000 HD 
BRANCH  22  24
HETATM   24  C   UNL     1     -10.721  10.195  68.071  1.00  0.00    -0.260 A  
HETATM   25  C   UNL     1     -10.431  10.495  69.407  1.00  0.00    -0.264 A  
HETATM   26  C   UNL     1     -10.091   9.489  70.317  1.00  0.00    -0.314 A  
HETATM   27  C   UNL     1     -10.022   8.163  69.904  1.00  0.00    -0.190 A  
HETATM   28  C   UNL     1     -10.277   7.848  68.565  1.00  0.00    -0.229 A  
HETATM   29  C   UNL     1     -10.213   6.451  68.072  1.00  0.00    -0.164 C  
HETATM   30  C   UNL     1     -10.646   8.860  67.660  1.00  0.00    -0.292 A  
HETATM   31  O   UNL     1      -9.280   5.693  68.687  1.00  0.00    -0.119 OA 
HETATM   32  O   UNL     1     -10.914   6.040  67.164  1.00  0.00    -0.313 OA 
ENDBRANCH  22  24
ENDBRANCH  17  20
ENDBRANCH  13  14
ENDBRANCH   3  13
BRANCH   7  33
HETATM   33  C   UNL     1      -6.825  20.180  66.276  1.00  0.00    -0.239 C  
HETATM   34  O   UNL     1      -7.860  21.078  66.675  1.00  0.00    -0.530 OA 
HETATM   35  H   UNL     1      -7.465  21.940  66.736  1.00  0.00     0.000 HD 
HETATM   36  C   UNL     1      -6.261  20.627  64.937  1.00  0.00    -0.319 C  
ENDBRANCH   7  33
TORSDOF 5
ENDMDL
MODEL       36
REMARK 921   NORMALIZED FREE ENERGY PREDICTED BY IDOCK:   -6.80 KCAL/MOL
REMARK 922        TOTAL FREE ENERGY PREDICTED BY IDOCK:  -10.46 KCAL/MOL
REMARK 923 INTER-LIGAND FREE ENERGY PREDICTED BY IDOCK:   -9.65 KCAL/MOL
REMARK 924 INTRA-LIGAND FREE ENERGY PREDICTED BY IDOCK:   -0.82 KCAL/MOL
REMARK 927      BINDING AFFINITY PREDICTED BY RF-SCORE:    0.00 PKD
ROOT
HETATM    1  C   UNL     1      -9.116   5.781  67.047  1.00  0.00    -0.114 C  
HETATM    2  C   UNL     1      -9.453   7.019  67.882  1.00  0.00    -0.128 C  
HETATM    3  C   UNL     1      -9.158   6.555  69.294  1.00  0.00    -0.137 C  
HETATM    4  C   UNL     1     -10.874   7.493  67.607  1.00  0.00    -0.197 C  
HETATM    5  O   UNL     1      -9.521   2.654  68.027  1.00  0.00    -0.211 OA 
HETATM    6  C   UNL     1      -8.683   5.293  69.294  1.00  0.00    -0.100 C  
HETATM    7  C   UNL     1     -10.146   4.692  66.608  1.00  0.00    -0.263 C  
HETATM    8  N   UNL     1      -8.581   4.775  68.008  1.00  0.00    -0.102 N  
HETATM    9  C   UNL     1      -8.202   4.511  70.475  1.00  0.00    -0.071 C  
HETATM   10  O   UNL     1      -7.835   5.011  71.527  1.00  0.00    -0.103 OA 
HETATM   11  O   UNL     1      -8.210   3.170  70.307  1.00  0.00    -0.045 OA 
HETATM   12  C   UNL     1      -9.396   3.770  67.571  1.00  0.00    -0.197 C  
ENDROOT
BRANCH   3  13
HETATM   13  S   UNL     1      -9.267   7.693  70.584  1.00  0.00    -0.162 SA 
BRANCH  13  14
HETATM   14  C   UNL     1     -10.469   6.962  71.761  1.00  0.00    -0.203 C  
HETATM   15  C   UNL     1     -11.717   6.367  71.119  1.00  0.00    -0.298 C  
HETATM   16  N   UNL     1     -12.541   7.527  70.828  1.00  0.00    -0.554 NA 
HETATM   17  C   UNL     1     -12.392   8.475  71.955  1.00  0.00    -0.365 C  
HETATM   18  C   UNL     1     -11.056   8.099  72.609  1.00  0.00    -0.450 C  
HETATM   19  H   UNL     1     -13.514   7.286  70.638  1.00  0.00     0.000 HD 
BRANCH  17  20
HETATM   20  C   UNL     1     -12.570   9.923  71.416  1.00  0.00    -0.398 C  
HETATM   21  O   UNL     1     -13.204  10.750  72.074  1.00  0.00    -0.484 OA 
HETATM   22  N   UNL     1     -11.884  10.215  70.245  1.00  0.00    -0.346 N  
HETATM   23  H   UNL     1     -11.319   9.465  69.847  1.00  0.00     0.000 HD 
BRANCH  22  24
HETATM   24  C   UNL     1     -11.886  11.448  69.544  1.00  0.00    -0.357 A  
HETATM   25  C   UNL     1     -12.015  12.696  70.164  1.00  0.00    -0.375 A  
HETATM   26  C   UNL     1     -11.997  13.879  69.417  1.00  0.00    -0.402 A  
HETATM   27  C   UNL     1     -11.862  13.834  68.034  1.00  0.00    -0.408 A  
HETATM   28  C   UNL     1     -11.765  12.594  67.394  1.00  0.00    -0.432 A  
HETATM   29  C   UNL     1     -11.624  12.491  65.921  1.00  0.00    -0.405 C  
HETATM   30  C   UNL     1     -11.756  11.409  68.152  1.00  0.00    -0.355 A  
HETATM   31  O   UNL     1     -12.276  13.456  65.238  1.00  0.00    -0.388 OA 
HETATM   32  O   UNL     1     -11.008  11.590  65.380  1.00  0.00    -0.282 OA 
ENDBRANCH  22  24
ENDBRANCH  17  20
ENDBRANCH  13  14
ENDBRANCH   3  13
BRANCH   7  33
HETATM   33  C   UNL     1     -10.134   4.375  65.126  1.00  0.00    -0.176 C  
HETATM   34  O   UNL     1     -11.497   4.239  64.724  1.00  0.00    -0.995 OA 
HETATM   35  H   UNL     1     -11.489   4.040  63.795  1.00  0.00     0.000 HD 
HETATM   36  C   UNL     1      -9.395   3.076  64.843  1.00  0.00    -0.147 C  
ENDBRANCH   7  33
TORSDOF 5
ENDMDL
MODEL       37
REMARK 921   NORMALIZED FREE ENERGY PREDICTED BY IDOCK:   -6.79 KCAL/MOL
REMARK 922        TOTAL FREE ENERGY PREDICTED BY IDOCK:  -10.46 KCAL/MOL
REMARK 923 INTER-LIGAND FREE ENERGY PREDICTED BY IDOCK:   -8.99 KCAL/MOL
REMARK 924 INTRA-LIGAND FREE ENERGY PREDICTED BY IDOCK:   -1.47 KCAL/MOL
REMARK 927      BINDING AFFINITY PREDICTED BY RF-SCORE:    0.00 PKD
ROOT
HETATM    1  C   UNL     1     -11.563  13.927  66.224  1.00  0.00    -0.365 C  
HETATM    2  C   UNL     1     -10.751  13.518  67.455  1.00  0.00    -0.266 C  
HETATM    3  C   UNL     1     -10.238  14.849  67.968  1.00  0.00    -0.228 C  
HETATM    4  C   UNL     1      -9.697  12.480  67.095  1.00  0.00    -0.205 C  
HETATM    5  O   UNL     1     -10.859  16.464  64.232  1.00  0.00    -0.681 OA 
HETATM    6  C   UNL     1     -10.704  15.865  67.213  1.00  0.00    -0.306 C  
HETATM    7  C   UNL     1     -11.013  13.963  64.762  1.00  0.00    -0.407 C  
HETATM    8  N   UNL     1     -11.531  15.416  66.190  1.00  0.00    -0.095 N  
HETATM    9  C   UNL     1     -10.491  17.328  67.440  1.00  0.00    -0.338 C  
HETATM   10  O   UNL     1     -10.185  17.819  68.515  1.00  0.00    -0.349 OA 
HETATM   11  O   UNL     1     -10.654  18.101  66.344  1.00  0.00    -0.356 OA 
HETATM   12  C   UNL     1     -11.153  15.483  64.879  1.00  0.00    -0.416 C  
ENDROOT
BRANCH   3  13
HETATM   13  S   UNL     1      -9.368  14.888  69.455  1.00  0.00     0.026 SA 
BRANCH  13  14
HETATM   14  C   UNL     1      -7.674  15.426  69.000  1.00  0.00    -0.186 C  
HETATM   15  C   UNL     1      -7.181  14.921  67.649  1.00  0.00    -0.185 C  
HETATM   16  N   UNL     1      -6.791  13.547  67.918  1.00  0.00    -0.132 NA 
HETATM   17  C   UNL     1      -6.153  13.517  69.254  1.00  0.00    -0.097 C  
HETATM   18  C   UNL     1      -6.687  14.763  69.971  1.00  0.00    -0.148 C  
HETATM   19  H   UNL     1      -6.199  13.152  67.186  1.00  0.00     0.000 HD 
BRANCH  17  20
HETATM   20  C   UNL     1      -6.411  12.125  69.898  1.00  0.00    -0.074 C  
HETATM   21  O   UNL     1      -5.872  11.834  70.967  1.00  0.00    -0.375 OA 
HETATM   22  N   UNL     1      -7.348  11.330  69.252  1.00  0.00    -0.251 N  
HETATM   23  H   UNL     1      -7.791  11.727  68.424  1.00  0.00     0.000 HD 
BRANCH  22  24
HETATM   24  C   UNL     1      -7.755  10.024  69.624  1.00  0.00    -0.156 A  
HETATM   25  C   UNL     1      -6.882   8.935  69.721  1.00  0.00    -0.046 A  
HETATM   26  C   UNL     1      -7.343   7.671  70.107  1.00  0.00    -0.076 A  
HETATM   27  C   UNL     1      -8.689   7.471  70.391  1.00  0.00    -0.144 A  
HETATM   28  C   UNL     1      -9.582   8.541  70.268  1.00  0.00    -0.177 A  
HETATM   29  C   UNL     1     -11.028   8.380  70.554  1.00  0.00    -0.242 C  
HETATM   30  C   UNL     1      -9.110   9.816  69.907  1.00  0.00    -0.257 A  
HETATM   31  O   UNL     1     -11.520   7.163  70.236  1.00  0.00    -0.286 OA 
HETATM   32  O   UNL     1     -11.716   9.282  71.001  1.00  0.00    -0.280 OA 
ENDBRANCH  22  24
ENDBRANCH  17  20
ENDBRANCH  13  14
ENDBRANCH   3  13
BRANCH   7  33
HETATM   33  C   UNL     1     -11.864  13.221  63.750  1.00  0.00    -0.467 C  
HETATM   34  O   UNL     1     -12.518  14.213  62.959  1.00  0.00    -1.077 OA 
HETATM   35  H   UNL     1     -13.051  13.747  62.325  1.00  0.00     0.000 HD 
HETATM   36  C   UNL     1     -12.909  12.354  64.435  1.00  0.00    -0.344 C  
ENDBRANCH   7  33
TORSDOF 5
ENDMDL
MODEL       38
REMARK 921   NORMALIZED FREE ENERGY PREDICTED BY IDOCK:   -6.77 KCAL/MOL
REMARK 922        TOTAL FREE ENERGY PREDICTED BY IDOCK:  -10.44 KCAL/MOL
REMARK 923 INTER-LIGAND FREE ENERGY PREDICTED BY IDOCK:   -9.23 KCAL/MOL
REMARK 924 INTRA-LIGAND FREE ENERGY PREDICTED BY IDOCK:   -1.20 KCAL/MOL
REMARK 927      BINDING AFFINITY PREDICTED BY RF-SCORE:    0.00 PKD
ROOT
HETATM    1  C   UNL     1      -8.325  17.419  67.048  1.00  0.00    -0.217 C  
HETATM    2  C   UNL     1      -8.319  16.037  67.707  1.00  0.00    -0.159 C  
HETATM    3  C   UNL     1      -9.329  15.272  66.876  1.00  0.00    -0.237 C  
HETATM    4  C   UNL     1      -8.608  16.142  69.198  1.00  0.00    -0.235 C  
HETATM    5  O   UNL     1     -10.950  18.853  65.650  1.00  0.00    -0.295 OA 
HETATM    6  C   UNL     1      -9.807  16.040  65.876  1.00  0.00    -0.348 C  
HETATM    7  C   UNL     1      -9.203  18.625  67.509  1.00  0.00    -0.295 C  
HETATM    8  N   UNL     1      -9.235  17.306  65.873  1.00  0.00    -0.058 N  
HETATM    9  C   UNL     1     -10.758  15.626  64.797  1.00  0.00    -0.276 C  
HETATM   10  O   UNL     1     -10.949  14.469  64.457  1.00  0.00    -0.347 OA 
HETATM   11  O   UNL     1     -11.424  16.643  64.208  1.00  0.00    -1.075 OA 
HETATM   12  C   UNL     1      -9.956  18.422  66.192  1.00  0.00    -0.319 C  
ENDROOT
BRANCH   3  13
HETATM   13  S   UNL     1      -9.552  13.590  67.179  1.00  0.00    -0.249 SA 
BRANCH  13  14
HETATM   14  C   UNL     1     -11.320  13.420  67.637  1.00  0.00    -0.290 C  
HETATM   15  C   UNL     1     -11.631  13.683  69.107  1.00  0.00    -0.309 C  
HETATM   16  N   UNL     1     -11.228  12.455  69.768  1.00  0.00    -0.488 NA 
HETATM   17  C   UNL     1     -11.607  11.327  68.887  1.00  0.00    -0.319 C  
HETATM   18  C   UNL     1     -11.712  11.943  67.486  1.00  0.00    -0.335 C  
HETATM   19  H   UNL     1     -11.610  12.367  70.711  1.00  0.00     0.000 HD 
BRANCH  17  20
HETATM   20  C   UNL     1     -10.601  10.161  69.108  1.00  0.00    -0.224 C  
HETATM   21  O   UNL     1      -9.455  10.403  69.493  1.00  0.00    -0.205 OA 
HETATM   22  N   UNL     1     -11.123   8.884  68.957  1.00  0.00    -0.428 N  
HETATM   23  H   UNL     1     -12.114   8.819  68.725  1.00  0.00     0.000 HD 
BRANCH  22  24
HETATM   24  C   UNL     1     -10.422   7.659  69.091  1.00  0.00    -0.214 A  
HETATM   25  C   UNL     1     -10.266   6.979  70.304  1.00  0.00    -0.206 A  
HETATM   26  C   UNL     1      -9.573   5.765  70.370  1.00  0.00    -0.210 A  
HETATM   27  C   UNL     1      -9.012   5.215  69.223  1.00  0.00    -0.126 A  
HETATM   28  C   UNL     1      -9.130   5.896  68.007  1.00  0.00    -0.117 A  
HETATM   29  C   UNL     1      -8.545   5.355  66.756  1.00  0.00    -0.110 C  
HETATM   30  C   UNL     1      -9.851   7.102  67.941  1.00  0.00    -0.170 A  
HETATM   31  O   UNL     1      -7.396   4.669  66.937  1.00  0.00    -0.078 OA 
HETATM   32  O   UNL     1      -9.041   5.550  65.659  1.00  0.00    -0.160 OA 
ENDBRANCH  22  24
ENDBRANCH  17  20
ENDBRANCH  13  14
ENDBRANCH   3  13
BRANCH   7  33
HETATM   33  C   UNL     1      -8.437  19.915  67.727  1.00  0.00    -0.310 C  
HETATM   34  O   UNL     1      -8.813  20.799  66.670  1.00  0.00    -0.550 OA 
HETATM   35  H   UNL     1      -8.332  21.607  66.807  1.00  0.00     0.000 HD 
HETATM   36  C   UNL     1      -6.935  19.683  67.678  1.00  0.00    -0.274 C  
ENDBRANCH   7  33
TORSDOF 5
ENDMDL
MODEL       39
REMARK 921   NORMALIZED FREE ENERGY PREDICTED BY IDOCK:   -6.77 KCAL/MOL
REMARK 922        TOTAL FREE ENERGY PREDICTED BY IDOCK:  -10.43 KCAL/MOL
REMARK 923 INTER-LIGAND FREE ENERGY PREDICTED BY IDOCK:   -9.34 KCAL/MOL
REMARK 924 INTRA-LIGAND FREE ENERGY PREDICTED BY IDOCK:   -1.09 KCAL/MOL
REMARK 927      BINDING AFFINITY PREDICTED BY RF-SCORE:    0.00 PKD
ROOT
HETATM    1  C   UNL     1      -9.446  17.523  67.631  1.00  0.00    -0.256 C  
HETATM    2  C   UNL     1     -10.049  16.123  67.492  1.00  0.00    -0.256 C  
HETATM    3  C   UNL     1      -9.067  15.263  68.263  1.00  0.00    -0.181 C  
HETATM    4  C   UNL     1     -10.261  15.762  66.028  1.00  0.00    -0.352 C  
HETATM    5  O   UNL     1      -6.219  18.200  67.800  1.00  0.00    -0.172 OA 
HETATM    6  C   UNL     1      -8.091  16.020  68.805  1.00  0.00    -0.212 C  
HETATM    7  C   UNL     1      -8.480  18.186  66.598  1.00  0.00    -0.282 C  
HETATM    8  N   UNL     1      -8.261  17.370  68.522  1.00  0.00    -0.262 N  
HETATM    9  C   UNL     1      -6.985  15.558  69.699  1.00  0.00    -0.173 C  
HETATM   10  O   UNL     1      -7.013  14.525  70.350  1.00  0.00    -0.019 OA 
HETATM   11  O   UNL     1      -5.909  16.375  69.738  1.00  0.00    -0.169 OA 
HETATM   12  C   UNL     1      -7.415  18.042  67.687  1.00  0.00    -0.213 C  
ENDROOT
BRANCH   3  13
HETATM   13  S   UNL     1      -9.426  13.594  68.494  1.00  0.00    -0.086 SA 
BRANCH  13  14
HETATM   14  C   UNL     1     -11.257  13.492  68.461  1.00  0.00    -0.278 C  
HETATM   15  C   UNL     1     -11.933  13.645  69.819  1.00  0.00    -0.341 C  
HETATM   16  N   UNL     1     -11.763  12.341  70.436  1.00  0.00    -0.534 NA 
HETATM   17  C   UNL     1     -11.936  11.320  69.378  1.00  0.00    -0.341 C  
HETATM   18  C   UNL     1     -11.648  12.061  68.067  1.00  0.00    -0.407 C  
HETATM   19  H   UNL     1     -12.382  12.195  71.234  1.00  0.00     0.000 HD 
BRANCH  17  20
HETATM   20  C   UNL     1     -11.067  10.080  69.734  1.00  0.00    -0.274 C  
HETATM   21  O   UNL     1      -9.842  10.190  69.812  1.00  0.00    -0.232 OA 
HETATM   22  N   UNL     1     -11.771   8.928  70.057  1.00  0.00    -0.444 N  
HETATM   23  H   UNL     1     -12.788   8.994  70.042  1.00  0.00     0.000 HD 
BRANCH  22  24
HETATM   24  C   UNL     1     -11.223   7.667  70.405  1.00  0.00    -0.244 A  
HETATM   25  C   UNL     1     -10.889   6.679  69.472  1.00  0.00    -0.339 A  
HETATM   26  C   UNL     1     -10.338   5.458  69.877  1.00  0.00    -0.377 A  
HETATM   27  C   UNL     1     -10.122   5.199  71.226  1.00  0.00    -0.278 A  
HETATM   28  C   UNL     1     -10.479   6.163  72.175  1.00  0.00    -0.237 A  
HETATM   29  C   UNL     1     -10.274   5.934  73.626  1.00  0.00    -0.226 C  
HETATM   30  C   UNL     1     -11.007   7.399  71.761  1.00  0.00    -0.264 A  
HETATM   31  O   UNL     1     -10.427   4.647  74.007  1.00  0.00    -0.215 OA 
HETATM   32  O   UNL     1     -10.030   6.837  74.407  1.00  0.00    -0.322 OA 
ENDBRANCH  22  24
ENDBRANCH  17  20
ENDBRANCH  13  14
ENDBRANCH   3  13
BRANCH   7  33
HETATM   33  C   UNL     1      -8.892  19.575  66.152  1.00  0.00    -0.309 C  
HETATM   34  O   UNL     1      -8.427  20.482  67.151  1.00  0.00    -0.428 OA 
HETATM   35  H   UNL     1      -8.685  21.353  66.872  1.00  0.00     0.000 HD 
HETATM   36  C   UNL     1     -10.404  19.693  66.032  1.00  0.00    -0.620 C  
ENDBRANCH   7  33
TORSDOF 5
ENDMDL
MODEL       40
REMARK 921   NORMALIZED FREE ENERGY PREDICTED BY IDOCK:   -6.76 KCAL/MOL
REMARK 922        TOTAL FREE ENERGY PREDICTED BY IDOCK:  -10.42 KCAL/MOL
REMARK 923 INTER-LIGAND FREE ENERGY PREDICTED BY IDOCK:   -9.03 KCAL/MOL
REMARK 924 INTRA-LIGAND FREE ENERGY PREDICTED BY IDOCK:   -1.39 KCAL/MOL
REMARK 927      BINDING AFFINITY PREDICTED BY RF-SCORE:    0.00 PKD
ROOT
HETATM    1  C   UNL     1     -10.581  16.135  66.981  1.00  0.00    -0.292 C  
HETATM    2  C   UNL     1      -9.481  15.187  66.495  1.00  0.00    -0.308 C  
HETATM    3  C   UNL     1      -9.633  14.002  67.429  1.00  0.00    -0.227 C  
HETATM    4  C   UNL     1      -8.125  15.878  66.492  1.00  0.00    -0.270 C  
HETATM    5  O   UNL     1     -11.593  16.437  70.109  1.00  0.00    -0.216 OA 
HETATM    6  C   UNL     1     -10.664  14.189  68.277  1.00  0.00    -0.249 C  
HETATM    7  C   UNL     1     -10.375  17.283  68.021  1.00  0.00    -0.353 C  
HETATM    8  N   UNL     1     -11.309  15.400  68.053  1.00  0.00    -0.339 N  
HETATM    9  C   UNL     1     -11.183  13.221  69.292  1.00  0.00    -0.208 C  
HETATM   10  O   UNL     1     -10.992  12.016  69.252  1.00  0.00    -0.211 OA 
HETATM   11  O   UNL     1     -11.893  13.780  70.297  1.00  0.00    -0.299 OA 
HETATM   12  C   UNL     1     -11.240  16.428  68.950  1.00  0.00    -0.304 C  
ENDROOT
BRANCH   3  13
HETATM   13  S   UNL     1      -8.668  12.601  67.157  1.00  0.00    -0.198 SA 
BRANCH  13  14
HETATM   14  C   UNL     1      -9.490  11.719  65.775  1.00  0.00    -0.216 C  
HETATM   15  C   UNL     1     -11.010  11.657  65.867  1.00  0.00    -0.280 C  
HETATM   16  N   UNL     1     -11.254  10.599  66.831  1.00  0.00    -0.225 NA 
HETATM   17  C   UNL     1     -10.255   9.533  66.588  1.00  0.00    -0.240 C  
HETATM   18  C   UNL     1      -9.102  10.235  65.859  1.00  0.00    -0.194 C  
HETATM   19  H   UNL     1     -12.214  10.255  66.810  1.00  0.00     0.000 HD 
BRANCH  17  20
HETATM   20  C   UNL     1      -9.952   8.816  67.934  1.00  0.00    -0.187 C  
HETATM   21  O   UNL     1      -8.823   8.373  68.154  1.00  0.00    -0.141 OA 
HETATM   22  N   UNL     1     -10.982   8.828  68.864  1.00  0.00    -0.440 N  
HETATM   23  H   UNL     1     -11.838   9.309  68.592  1.00  0.00     0.000 HD 
BRANCH  22  24
HETATM   24  C   UNL     1     -10.968   8.240  70.155  1.00  0.00    -0.222 A  
HETATM   25  C   UNL     1     -11.395   8.896  71.314  1.00  0.00    -0.371 A  
HETATM   26  C   UNL     1     -11.370   8.256  72.558  1.00  0.00    -0.455 A  
HETATM   27  C   UNL     1     -10.903   6.951  72.667  1.00  0.00    -0.290 A  
HETATM   28  C   UNL     1     -10.442   6.290  71.523  1.00  0.00    -0.266 A  
HETATM   29  C   UNL     1      -9.930   4.900  71.586  1.00  0.00    -0.190 C  
HETATM   30  C   UNL     1     -10.496   6.928  70.270  1.00  0.00    -0.227 A  
HETATM   31  O   UNL     1      -9.291   4.600  72.737  1.00  0.00    -0.127 OA 
HETATM   32  O   UNL     1     -10.044   4.114  70.661  1.00  0.00    -0.167 OA 
ENDBRANCH  22  24
ENDBRANCH  17  20
ENDBRANCH  13  14
ENDBRANCH   3  13
BRANCH   7  33
HETATM   33  C   UNL     1     -10.890  18.637  67.575  1.00  0.00    -0.317 C  
HETATM   34  O   UNL     1     -10.609  18.743  66.179  1.00  0.00    -0.436 OA 
HETATM   35  H   UNL     1     -10.932  19.592  65.900  1.00  0.00     0.000 HD 
HETATM   36  C   UNL     1     -10.193  19.766  68.316  1.00  0.00    -0.569 C  
ENDBRANCH   7  33
TORSDOF 5
ENDMDL
MODEL       41
REMARK 921   NORMALIZED FREE ENERGY PREDICTED BY IDOCK:   -6.76 KCAL/MOL
REMARK 922        TOTAL FREE ENERGY PREDICTED BY IDOCK:  -10.42 KCAL/MOL
REMARK 923 INTER-LIGAND FREE ENERGY PREDICTED BY IDOCK:   -8.96 KCAL/MOL
REMARK 924 INTRA-LIGAND FREE ENERGY PREDICTED BY IDOCK:   -1.46 KCAL/MOL
REMARK 927      BINDING AFFINITY PREDICTED BY RF-SCORE:    0.00 PKD
ROOT
HETATM    1  C   UNL     1     -10.096   6.950  72.503  1.00  0.00    -0.172 C  
HETATM    2  C   UNL     1      -9.001   7.492  71.581  1.00  0.00    -0.137 C  
HETATM    3  C   UNL     1      -9.691   8.655  70.897  1.00  0.00    -0.204 C  
HETATM    4  C   UNL     1      -8.459   6.396  70.673  1.00  0.00    -0.135 C  
HETATM    5  O   UNL     1     -13.330   6.975  71.840  1.00  0.00    -0.304 OA 
HETATM    6  C   UNL     1     -10.946   8.809  71.365  1.00  0.00    -0.289 C  
HETATM    7  C   UNL     1     -11.079   5.792  72.139  1.00  0.00    -0.327 C  
HETATM    8  N   UNL     1     -11.254   7.876  72.349  1.00  0.00    -0.322 N  
HETATM    9  C   UNL     1     -11.917   9.887  71.002  1.00  0.00    -0.365 C  
HETATM   10  O   UNL     1     -11.600  10.964  70.523  1.00  0.00    -0.322 OA 
HETATM   11  O   UNL     1     -13.214   9.584  71.233  1.00  0.00    -0.358 OA 
HETATM   12  C   UNL     1     -12.159   6.876  72.133  1.00  0.00    -0.243 C  
ENDROOT
BRANCH   3  13
HETATM   13  S   UNL     1      -8.772   9.667  69.848  1.00  0.00    -0.229 SA 
BRANCH  13  14
HETATM   14  C   UNL     1      -9.015   8.960  68.173  1.00  0.00    -0.137 C  
HETATM   15  C   UNL     1      -8.122   9.555  67.090  1.00  0.00    -0.106 C  
HETATM   16  N   UNL     1      -8.766  10.817  66.769  1.00  0.00    -0.141 NA 
HETATM   17  C   UNL     1     -10.229  10.594  66.803  1.00  0.00    -0.233 C  
HETATM   18  C   UNL     1     -10.417   9.355  67.687  1.00  0.00    -0.328 C  
HETATM   19  H   UNL     1      -8.445  11.214  65.886  1.00  0.00     0.000 HD 
BRANCH  17  20
HETATM   20  C   UNL     1     -10.926  11.919  67.227  1.00  0.00    -0.268 C  
HETATM   21  O   UNL     1     -12.046  12.191  66.791  1.00  0.00    -0.609 OA 
HETATM   22  N   UNL     1     -10.256  12.667  68.185  1.00  0.00    -0.233 N  
HETATM   23  H   UNL     1      -9.377  12.284  68.533  1.00  0.00     0.000 HD 
BRANCH  22  24
HETATM   24  C   UNL     1     -10.666  13.910  68.731  1.00  0.00    -0.262 A  
HETATM   25  C   UNL     1     -11.702  14.048  69.661  1.00  0.00    -0.368 A  
HETATM   26  C   UNL     1     -12.052  15.302  70.174  1.00  0.00    -0.394 A  
HETATM   27  C   UNL     1     -11.378  16.444  69.755  1.00  0.00    -0.176 A  
HETATM   28  C   UNL     1     -10.361  16.329  68.802  1.00  0.00    -0.261 A  
HETATM   29  C   UNL     1      -9.614  17.516  68.318  1.00  0.00    -0.299 C  
HETATM   30  C   UNL     1      -9.994  15.063  68.310  1.00  0.00    -0.225 A  
HETATM   31  O   UNL     1     -10.355  18.644  68.255  1.00  0.00    -0.374 OA 
HETATM   32  O   UNL     1      -8.447  17.464  67.971  1.00  0.00    -0.223 OA 
ENDBRANCH  22  24
ENDBRANCH  17  20
ENDBRANCH  13  14
ENDBRANCH   3  13
BRANCH   7  33
HETATM   33  C   UNL     1     -11.155   4.683  73.169  1.00  0.00    -0.289 C  
HETATM   34  O   UNL     1     -10.961   5.294  74.445  1.00  0.00    -0.405 OA 
HETATM   35  H   UNL     1     -11.008   4.598  75.090  1.00  0.00     0.000 HD 
HETATM   36  C   UNL     1     -10.072   3.640  72.942  1.00  0.00    -0.221 C  
ENDBRANCH   7  33
TORSDOF 5
ENDMDL
MODEL       42
REMARK 921   NORMALIZED FREE ENERGY PREDICTED BY IDOCK:   -6.76 KCAL/MOL
REMARK 922        TOTAL FREE ENERGY PREDICTED BY IDOCK:  -10.42 KCAL/MOL
REMARK 923 INTER-LIGAND FREE ENERGY PREDICTED BY IDOCK:   -8.96 KCAL/MOL
REMARK 924 INTRA-LIGAND FREE ENERGY PREDICTED BY IDOCK:   -1.46 KCAL/MOL
REMARK 927      BINDING AFFINITY PREDICTED BY RF-SCORE:    0.00 PKD
ROOT
HETATM    1  C   UNL     1      -9.089   9.254  65.832  1.00  0.00    -0.197 C  
HETATM    2  C   UNL     1      -8.932  10.119  67.085  1.00  0.00    -0.146 C  
HETATM    3  C   UNL     1      -9.292  11.501  66.578  1.00  0.00    -0.197 C  
HETATM    4  C   UNL     1      -7.543   9.959  67.688  1.00  0.00    -0.091 C  
HETATM    5  O   UNL     1      -8.479  10.245  62.742  1.00  0.00    -0.152 OA 
HETATM    6  C   UNL     1      -9.649  11.457  65.278  1.00  0.00    -0.228 C  
HETATM    7  C   UNL     1      -7.934   8.890  64.846  1.00  0.00    -0.129 C  
HETATM    8  N   UNL     1      -9.604  10.164  64.770  1.00  0.00    -0.294 N  
HETATM    9  C   UNL     1     -10.146  12.593  64.441  1.00  0.00    -0.256 C  
HETATM   10  O   UNL     1     -10.638  13.615  64.892  1.00  0.00    -0.359 OA 
HETATM   11  O   UNL     1     -10.004  12.419  63.109  1.00  0.00    -0.350 OA 
HETATM   12  C   UNL     1      -8.669   9.787  63.848  1.00  0.00    -0.218 C  
ENDROOT
BRANCH   3  13
HETATM   13  S   UNL     1      -9.387  12.802  67.705  1.00  0.00    -0.200 SA 
BRANCH  13  14
HETATM   14  C   UNL     1     -11.052  12.657  68.459  1.00  0.00    -0.266 C  
HETATM   15  C   UNL     1     -12.210  13.009  67.532  1.00  0.00    -0.071 C  
HETATM   16  N   UNL     1     -12.218  14.462  67.528  1.00  0.00    -0.619 NA 
HETATM   17  C   UNL     1     -11.908  14.914  68.904  1.00  0.00    -0.301 C  
HETATM   18  C   UNL     1     -11.176  13.730  69.550  1.00  0.00    -0.221 C  
HETATM   19  H   UNL     1     -13.088  14.854  67.168  1.00  0.00     0.000 HD 
BRANCH  17  20
HETATM   20  C   UNL     1     -11.175  16.283  68.826  1.00  0.00    -0.343 C  
HETATM   21  O   UNL     1     -10.847  16.865  69.862  1.00  0.00    -0.254 OA 
HETATM   22  N   UNL     1     -10.836  16.709  67.548  1.00  0.00    -0.271 N  
HETATM   23  H   UNL     1     -11.086  16.089  66.779  1.00  0.00     0.000 HD 
BRANCH  22  24
HETATM   24  C   UNL     1     -10.179  17.917  67.203  1.00  0.00    -0.353 A  
HETATM   25  C   UNL     1     -10.718  19.189  67.425  1.00  0.00    -0.578 A  
HETATM   26  C   UNL     1     -10.014  20.345  67.074  1.00  0.00    -0.568 A  
HETATM   27  C   UNL     1      -8.760  20.250  66.480  1.00  0.00    -0.280 A  
HETATM   28  C   UNL     1      -8.219  18.986  66.220  1.00  0.00    -0.294 A  
HETATM   29  C   UNL     1      -6.888  18.829  65.584  1.00  0.00    -0.254 C  
HETATM   30  C   UNL     1      -8.919  17.827  66.601  1.00  0.00    -0.283 A  
HETATM   31  O   UNL     1      -6.590  19.793  64.687  1.00  0.00    -0.341 OA 
HETATM   32  O   UNL     1      -6.150  17.890  65.825  1.00  0.00    -0.213 OA 
ENDBRANCH  22  24
ENDBRANCH  17  20
ENDBRANCH  13  14
ENDBRANCH   3  13
BRANCH   7  33
HETATM   33  C   UNL     1      -7.803   7.410  64.548  1.00  0.00    -0.129 C  
HETATM   34  O   UNL     1      -8.431   7.188  63.285  1.00  0.00    -0.360 OA 
HETATM   35  H   UNL     1      -8.349   6.260  63.099  1.00  0.00     0.000 HD 
HETATM   36  C   UNL     1      -8.494   6.567  65.608  1.00  0.00    -0.146 C  
ENDBRANCH   7  33
TORSDOF 5
ENDMDL
MODEL       43
REMARK 921   NORMALIZED FREE ENERGY PREDICTED BY IDOCK:   -6.75 KCAL/MOL
REMARK 922        TOTAL FREE ENERGY PREDICTED BY IDOCK:  -10.41 KCAL/MOL
REMARK 923 INTER-LIGAND FREE ENERGY PREDICTED BY IDOCK:   -9.48 KCAL/MOL
REMARK 924 INTRA-LIGAND FREE ENERGY PREDICTED BY IDOCK:   -0.93 KCAL/MOL
REMARK 927      BINDING AFFINITY PREDICTED BY RF-SCORE:    0.00 PKD
ROOT
HETATM    1  C   UNL     1     -11.766   8.649  70.372  1.00  0.00    -0.007 C  
HETATM    2  C   UNL     1     -10.943   9.583  69.481  1.00  0.00    -0.217 C  
HETATM    3  C   UNL     1      -9.526   9.096  69.713  1.00  0.00    -0.182 C  
HETATM    4  C   UNL     1     -11.221  11.042  69.816  1.00  0.00    -0.339 C  
HETATM    5  O   UNL     1     -10.756   7.376  73.246  1.00  0.00    -0.357 OA 
HETATM    6  C   UNL     1      -9.515   8.035  70.545  1.00  0.00    -0.166 C  
HETATM    7  C   UNL     1     -12.194   8.962  71.840  1.00  0.00    -0.445 C  
HETATM    8  N   UNL     1     -10.796   7.673  70.945  1.00  0.00    -0.237 N  
HETATM    9  C   UNL     1      -8.327   7.224  70.954  1.00  0.00    -0.116 C  
HETATM   10  O   UNL     1      -7.280   7.174  70.328  1.00  0.00    -0.068 OA 
HETATM   11  O   UNL     1      -8.482   6.533  72.105  1.00  0.00    -0.114 OA 
HETATM   12  C   UNL     1     -11.223   7.846  72.231  1.00  0.00    -0.331 C  
ENDROOT
BRANCH   3  13
HETATM   13  S   UNL     1      -8.248   9.786  68.787  1.00  0.00    -0.112 SA 
BRANCH  13  14
HETATM   14  C   UNL     1      -8.518   9.179  67.077  1.00  0.00    -0.123 C  
HETATM   15  C   UNL     1      -7.704   9.895  66.005  1.00  0.00    -0.108 C  
HETATM   16  N   UNL     1      -8.428  11.137  65.796  1.00  0.00    -0.319 NA 
HETATM   17  C   UNL     1      -9.874  10.829  65.868  1.00  0.00    -0.239 C  
HETATM   18  C   UNL     1      -9.958   9.525  66.671  1.00  0.00    -0.314 C  
HETATM   19  H   UNL     1      -8.165  11.610  64.930  1.00  0.00     0.000 HD 
BRANCH  17  20
HETATM   20  C   UNL     1     -10.625  12.080  66.407  1.00  0.00    -0.243 C  
HETATM   21  O   UNL     1     -11.857  12.087  66.450  1.00  0.00    -0.578 OA 
HETATM   22  N   UNL     1      -9.819  13.087  66.921  1.00  0.00    -0.235 N  
HETATM   23  H   UNL     1      -8.814  12.918  66.909  1.00  0.00     0.000 HD 
BRANCH  22  24
HETATM   24  C   UNL     1     -10.248  14.326  67.459  1.00  0.00    -0.240 A  
HETATM   25  C   UNL     1     -10.077  15.557  66.816  1.00  0.00    -0.268 A  
HETATM   26  C   UNL     1     -10.534  16.745  67.394  1.00  0.00    -0.310 A  
HETATM   27  C   UNL     1     -11.162  16.726  68.634  1.00  0.00    -0.170 A  
HETATM   28  C   UNL     1     -11.313  15.509  69.308  1.00  0.00    -0.330 A  
HETATM   29  C   UNL     1     -11.970  15.435  70.635  1.00  0.00    -0.356 C  
HETATM   30  C   UNL     1     -10.876  14.314  68.710  1.00  0.00    -0.265 A  
HETATM   31  O   UNL     1     -11.759  16.517  71.415  1.00  0.00    -0.359 OA 
HETATM   32  O   UNL     1     -12.610  14.464  71.000  1.00  0.00    -0.306 OA 
ENDBRANCH  22  24
ENDBRANCH  17  20
ENDBRANCH  13  14
ENDBRANCH   3  13
BRANCH   7  33
HETATM   33  C   UNL     1     -13.674   8.780  72.118  1.00  0.00    -0.447 C  
HETATM   34  O   UNL     1     -13.863   9.026  73.511  1.00  0.00    -1.068 OA 
HETATM   35  H   UNL     1     -14.790   8.912  73.684  1.00  0.00     0.000 HD 
HETATM   36  C   UNL     1     -14.129   7.366  71.791  1.00  0.00    -0.510 C  
ENDBRANCH   7  33
TORSDOF 5
ENDMDL
MODEL       44
REMARK 921   NORMALIZED FREE ENERGY PREDICTED BY IDOCK:   -6.75 KCAL/MOL
REMARK 922        TOTAL FREE ENERGY PREDICTED BY IDOCK:  -10.40 KCAL/MOL
REMARK 923 INTER-LIGAND FREE ENERGY PREDICTED BY IDOCK:   -8.90 KCAL/MOL
REMARK 924 INTRA-LIGAND FREE ENERGY PREDICTED BY IDOCK:   -1.50 KCAL/MOL
REMARK 927      BINDING AFFINITY PREDICTED BY RF-SCORE:    0.00 PKD
ROOT
HETATM    1  C   UNL     1     -12.768  14.794  70.102  1.00  0.00    -0.219 C  
HETATM    2  C   UNL     1     -11.790  15.653  69.296  1.00  0.00    -0.378 C  
HETATM    3  C   UNL     1     -11.233  14.664  68.291  1.00  0.00    -0.285 C  
HETATM    4  C   UNL     1     -10.780  16.334  70.208  1.00  0.00    -0.189 C  
HETATM    5  O   UNL     1     -12.376  11.586  70.774  1.00  0.00    -0.374 OA 
HETATM    6  C   UNL     1     -11.811  13.455  68.439  1.00  0.00    -0.366 C  
HETATM    7  C   UNL     1     -12.420  14.059  71.436  1.00  0.00    -0.438 C  
HETATM    8  N   UNL     1     -12.762  13.452  69.452  1.00  0.00     0.315 N  
HETATM    9  C   UNL     1     -11.591  12.242  67.592  1.00  0.00    -0.354 C  
HETATM   10  O   UNL     1     -11.150  12.270  66.454  1.00  0.00    -0.274 OA 
HETATM   11  O   UNL     1     -11.912  11.071  68.185  1.00  0.00    -0.610 OA 
HETATM   12  C   UNL     1     -12.566  12.772  70.621  1.00  0.00    -0.168 C  
ENDROOT
BRANCH   3  13
HETATM   13  S   UNL     1     -10.171  15.237  67.061  1.00  0.00    -0.265 SA 
BRANCH  13  14
HETATM   14  C   UNL     1      -8.584  15.568  67.920  1.00  0.00    -0.155 C  
HETATM   15  C   UNL     1      -7.342  15.445  67.045  1.00  0.00    -0.092 C  
HETATM   16  N   UNL     1      -7.123  14.011  66.959  1.00  0.00    -0.339 NA 
HETATM   17  C   UNL     1      -7.433  13.432  68.286  1.00  0.00    -0.129 C  
HETATM   18  C   UNL     1      -8.361  14.455  68.954  1.00  0.00    -0.080 C  
HETATM   19  H   UNL     1      -6.188  13.771  66.630  1.00  0.00     0.000 HD 
BRANCH  17  20
HETATM   20  C   UNL     1      -7.954  11.980  68.087  1.00  0.00    -0.152 C  
HETATM   21  O   UNL     1      -8.169  11.554  66.951  1.00  0.00    -0.156 OA 
HETATM   22  N   UNL     1      -8.035  11.210  69.240  1.00  0.00    -0.360 N  
HETATM   23  H   UNL     1      -7.740  11.655  70.108  1.00  0.00     0.000 HD 
BRANCH  22  24
HETATM   24  C   UNL     1      -8.486   9.869  69.335  1.00  0.00    -0.165 A  
HETATM   25  C   UNL     1      -7.901   8.800  68.648  1.00  0.00    -0.103 A  
HETATM   26  C   UNL     1      -8.384   7.495  68.794  1.00  0.00    -0.129 A  
HETATM   27  C   UNL     1      -9.471   7.237  69.621  1.00  0.00    -0.155 A  
HETATM   28  C   UNL     1     -10.090   8.299  70.291  1.00  0.00    -0.195 A  
HETATM   29  C   UNL     1     -11.256   8.079  71.181  1.00  0.00    -0.261 C  
HETATM   30  C   UNL     1      -9.583   9.605  70.163  1.00  0.00    -0.300 A  
HETATM   31  O   UNL     1     -12.072   7.079  70.783  1.00  0.00    -0.355 OA 
HETATM   32  O   UNL     1     -11.475   8.769  72.162  1.00  0.00    -0.354 OA 
ENDBRANCH  22  24
ENDBRANCH  17  20
ENDBRANCH  13  14
ENDBRANCH   3  13
BRANCH   7  33
HETATM   33  C   UNL     1     -13.389  14.324  72.571  1.00  0.00    -0.500 C  
HETATM   34  O   UNL     1     -14.091  13.104  72.804  1.00  0.00    -0.737 OA 
HETATM   35  H   UNL     1     -14.699  13.270  73.516  1.00  0.00     0.000 HD 
HETATM   36  C   UNL     1     -14.383  15.416  72.208  1.00  0.00    -0.576 C  
ENDBRANCH   7  33
TORSDOF 5
ENDMDL
MODEL       45
REMARK 921   NORMALIZED FREE ENERGY PREDICTED BY IDOCK:   -6.70 KCAL/MOL
REMARK 922        TOTAL FREE ENERGY PREDICTED BY IDOCK:  -10.34 KCAL/MOL
REMARK 923 INTER-LIGAND FREE ENERGY PREDICTED BY IDOCK:   -9.02 KCAL/MOL
REMARK 924 INTRA-LIGAND FREE ENERGY PREDICTED BY IDOCK:   -1.32 KCAL/MOL
REMARK 927      BINDING AFFINITY PREDICTED BY RF-SCORE:    0.00 PKD
ROOT
HETATM    1  C   UNL     1      -9.086   4.329  72.352  1.00  0.00    -0.116 C  
HETATM    2  C   UNL     1     -10.506   4.799  72.027  1.00  0.00    -0.225 C  
HETATM    3  C   UNL     1     -10.262   6.105  71.297  1.00  0.00    -0.207 C  
HETATM    4  C   UNL     1     -11.359   4.875  73.286  1.00  0.00    -0.408 C  
HETATM    5  O   UNL     1      -6.531   6.308  73.028  1.00  0.00    -0.065 OA 
HETATM    6  C   UNL     1      -8.941   6.340  71.166  1.00  0.00    -0.146 C  
HETATM    7  C   UNL     1      -8.335   4.615  73.691  1.00  0.00    -0.105 C  
HETATM    8  N   UNL     1      -8.173   5.322  71.718  1.00  0.00    -0.116 N  
HETATM    9  C   UNL     1      -8.296   7.478  70.440  1.00  0.00    -0.128 C  
HETATM   10  O   UNL     1      -8.845   8.139  69.573  1.00  0.00    -0.141 OA 
HETATM   11  O   UNL     1      -7.028   7.748  70.822  1.00  0.00    -0.045 OA 
HETATM   12  C   UNL     1      -7.428   5.514  72.847  1.00  0.00    -0.096 C  
ENDROOT
BRANCH   3  13
HETATM   13  S   UNL     1     -11.605   6.937  70.609  1.00  0.00    -0.357 SA 
BRANCH  13  14
HETATM   14  C   UNL     1     -12.093   8.177  71.869  1.00  0.00    -0.323 C  
HETATM   15  C   UNL     1     -13.509   8.722  71.719  1.00  0.00    -0.393 C  
HETATM   16  N   UNL     1     -13.390   9.696  70.648  1.00  0.00    -0.586 NA 
HETATM   17  C   UNL     1     -12.097  10.396  70.822  1.00  0.00    -0.364 C  
HETATM   18  C   UNL     1     -11.240   9.435  71.655  1.00  0.00    -0.431 C  
HETATM   19  H   UNL     1     -14.184  10.335  70.602  1.00  0.00     0.000 HD 
BRANCH  17  20
HETATM   20  C   UNL     1     -11.574  10.832  69.423  1.00  0.00    -0.308 C  
HETATM   21  O   UNL     1     -11.268   9.979  68.588  1.00  0.00    -0.206 OA 
HETATM   22  N   UNL     1     -11.596  12.198  69.175  1.00  0.00    -0.296 N  
HETATM   23  H   UNL     1     -11.960  12.792  69.919  1.00  0.00     0.000 HD 
BRANCH  22  24
HETATM   24  C   UNL     1     -11.167  12.852  67.993  1.00  0.00    -0.268 A  
HETATM   25  C   UNL     1      -9.982  13.591  67.898  1.00  0.00    -0.245 A  
HETATM   26  C   UNL     1      -9.605  14.203  66.698  1.00  0.00    -0.301 A  
HETATM   27  C   UNL     1     -10.415  14.099  65.572  1.00  0.00    -0.352 A  
HETATM   28  C   UNL     1     -11.619  13.392  65.657  1.00  0.00    -0.350 A  
HETATM   29  C   UNL     1     -12.521  13.255  64.488  1.00  0.00    -0.319 C  
HETATM   30  C   UNL     1     -11.980  12.755  66.858  1.00  0.00    -0.380 A  
HETATM   31  O   UNL     1     -12.524  14.328  63.667  1.00  0.00    -0.816 OA 
HETATM   32  O   UNL     1     -13.224  12.276  64.310  1.00  0.00    -0.785 OA 
ENDBRANCH  22  24
ENDBRANCH  17  20
ENDBRANCH  13  14
ENDBRANCH   3  13
BRANCH   7  33
HETATM   33  C   UNL     1      -7.743   3.388  74.356  1.00  0.00    -0.061 C  
HETATM   34  O   UNL     1      -6.352   3.377  74.032  1.00  0.00    -0.022 OA 
HETATM   35  H   UNL     1      -5.981   2.608  74.449  1.00  0.00     0.000 HD 
HETATM   36  C   UNL     1      -8.389   2.112  73.840  1.00  0.00    -0.058 C  
ENDBRANCH   7  33
TORSDOF 5
ENDMDL
MODEL       46
REMARK 921   NORMALIZED FREE ENERGY PREDICTED BY IDOCK:   -6.68 KCAL/MOL
REMARK 922        TOTAL FREE ENERGY PREDICTED BY IDOCK:  -10.32 KCAL/MOL
REMARK 923 INTER-LIGAND FREE ENERGY PREDICTED BY IDOCK:   -8.99 KCAL/MOL
REMARK 924 INTRA-LIGAND FREE ENERGY PREDICTED BY IDOCK:   -1.32 KCAL/MOL
REMARK 927      BINDING AFFINITY PREDICTED BY RF-SCORE:    0.00 PKD
ROOT
HETATM    1  C   UNL     1     -10.668   8.192  69.974  1.00  0.00    -0.243 C  
HETATM    2  C   UNL     1      -9.567   9.038  69.328  1.00  0.00    -0.162 C  
HETATM    3  C   UNL     1      -9.047   8.124  68.237  1.00  0.00    -0.135 C  
HETATM    4  C   UNL     1      -8.552   9.498  70.366  1.00  0.00    -0.246 C  
HETATM    5  O   UNL     1     -10.625   4.903  70.259  1.00  0.00    -0.184 OA 
HETATM    6  C   UNL     1      -9.745   6.971  68.204  1.00  0.00    -0.133 C  
HETATM    7  C   UNL     1     -10.473   7.272  71.220  1.00  0.00    -0.215 C  
HETATM    8  N   UNL     1     -10.751   6.944  69.163  1.00  0.00    -0.229 N  
HETATM    9  C   UNL     1      -9.592   5.851  67.224  1.00  0.00    -0.116 C  
HETATM   10  O   UNL     1      -9.082   5.970  66.121  1.00  0.00    -0.150 OA 
HETATM   11  O   UNL     1     -10.057   4.657  67.651  1.00  0.00    -0.134 OA 
HETATM   12  C   UNL     1     -10.691   6.113  70.245  1.00  0.00    -0.291 C  
ENDROOT
BRANCH   3  13
HETATM   13  S   UNL     1      -7.863   8.728  67.140  1.00  0.00    -0.096 SA 
BRANCH  13  14
HETATM   14  C   UNL     1      -8.817   9.323  65.691  1.00  0.00    -0.180 C  
HETATM   15  C   UNL     1      -8.294  10.610  65.062  1.00  0.00    -0.106 C  
HETATM   16  N   UNL     1      -8.784  11.650  65.949  1.00  0.00    -0.388 NA 
HETATM   17  C   UNL     1     -10.149  11.267  66.376  1.00  0.00    -0.220 C  
HETATM   18  C   UNL     1     -10.210   9.747  66.179  1.00  0.00    -0.278 C  
HETATM   19  H   UNL     1      -8.745  12.580  65.531  1.00  0.00     0.000 HD 
BRANCH  17  20
HETATM   20  C   UNL     1     -10.405  11.839  67.800  1.00  0.00    -0.194 C  
HETATM   21  O   UNL     1      -9.547  12.535  68.347  1.00  0.00    -0.217 OA 
HETATM   22  N   UNL     1     -11.671  11.606  68.320  1.00  0.00    -0.313 N  
HETATM   23  H   UNL     1     -12.322  11.093  67.726  1.00  0.00     0.000 HD 
BRANCH  22  24
HETATM   24  C   UNL     1     -12.154  12.007  69.591  1.00  0.00    -0.230 A  
HETATM   25  C   UNL     1     -12.570  11.113  70.584  1.00  0.00    -0.408 A  
HETATM   26  C   UNL     1     -13.024  11.571  71.826  1.00  0.00    -0.500 A  
HETATM   27  C   UNL     1     -13.083  12.935  72.092  1.00  0.00    -0.466 A  
HETATM   28  C   UNL     1     -12.702  13.844  71.100  1.00  0.00    -0.441 A  
HETATM   29  C   UNL     1     -12.751  15.309  71.331  1.00  0.00    -0.392 C  
HETATM   30  C   UNL     1     -12.219  13.379  69.863  1.00  0.00    -0.337 A  
HETATM   31  O   UNL     1     -13.759  15.705  72.137  1.00  0.00    -0.474 OA 
HETATM   32  O   UNL     1     -11.971  16.084  70.806  1.00  0.00    -0.385 OA 
ENDBRANCH  22  24
ENDBRANCH  17  20
ENDBRANCH  13  14
ENDBRANCH   3  13
BRANCH   7  33
HETATM   33  C   UNL     1     -11.478   7.497  72.333  1.00  0.00    -0.315 C  
HETATM   34  O   UNL     1     -11.397   6.361  73.194  1.00  0.00    -0.460 OA 
HETATM   35  H   UNL     1     -12.027   6.502  73.892  1.00  0.00     0.000 HD 
HETATM   36  C   UNL     1     -12.892   7.613  71.786  1.00  0.00    -0.357 C  
ENDBRANCH   7  33
TORSDOF 5
ENDMDL
MODEL       47
REMARK 921   NORMALIZED FREE ENERGY PREDICTED BY IDOCK:   -6.64 KCAL/MOL
REMARK 922        TOTAL FREE ENERGY PREDICTED BY IDOCK:  -10.26 KCAL/MOL
REMARK 923 INTER-LIGAND FREE ENERGY PREDICTED BY IDOCK:   -9.30 KCAL/MOL
REMARK 924 INTRA-LIGAND FREE ENERGY PREDICTED BY IDOCK:   -0.97 KCAL/MOL
REMARK 927      BINDING AFFINITY PREDICTED BY RF-SCORE:    0.00 PKD
ROOT
HETATM    1  C   UNL     1     -12.194  12.717  66.049  1.00  0.00    -0.260 C  
HETATM    2  C   UNL     1     -11.905  11.695  67.152  1.00  0.00    -0.090 C  
HETATM    3  C   UNL     1     -11.666  12.575  68.362  1.00  0.00    -0.328 C  
HETATM    4  C   UNL     1     -10.765  10.768  66.752  1.00  0.00    -0.291 C  
HETATM    5  O   UNL     1     -10.852  15.726  65.839  1.00  0.00    -0.321 OA 
HETATM    6  C   UNL     1     -11.835  13.876  68.049  1.00  0.00    -0.375 C  
HETATM    7  C   UNL     1     -11.128  13.299  65.068  1.00  0.00    -0.327 C  
HETATM    8  N   UNL     1     -12.193  14.049  66.718  1.00  0.00    -0.438 N  
HETATM    9  C   UNL     1     -11.766  15.043  68.982  1.00  0.00    -0.325 C  
HETATM   10  O   UNL     1     -11.909  14.965  70.192  1.00  0.00    -0.271 OA 
HETATM   11  O   UNL     1     -11.518  16.231  68.386  1.00  0.00    -0.357 OA 
HETATM   12  C   UNL     1     -11.344  14.619  65.812  1.00  0.00    -0.340 C  
ENDROOT
BRANCH   3  13
HETATM   13  S   UNL     1     -11.433  11.831  69.899  1.00  0.00    -0.144 SA 
BRANCH  13  14
HETATM   14  C   UNL     1     -13.124  11.502  70.528  1.00  0.00     0.292 C  
HETATM   15  C   UNL     1     -13.278  11.609  72.041  1.00  0.00    -0.338 C  
HETATM   16  N   UNL     1     -12.733  10.355  72.531  1.00  0.00     0.025 NA 
HETATM   17  C   UNL     1     -13.146   9.289  71.590  1.00  0.00    -0.382 C  
HETATM   18  C   UNL     1     -13.447  10.023  70.276  1.00  0.00     0.429 C  
HETATM   19  H   UNL     1     -12.999  10.156  73.497  1.00  0.00     0.000 HD 
BRANCH  17  20
HETATM   20  C   UNL     1     -12.058   8.178  71.585  1.00  0.00    -0.304 C  
HETATM   21  O   UNL     1     -11.317   8.040  72.559  1.00  0.00    -0.353 OA 
HETATM   22  N   UNL     1     -12.079   7.325  70.489  1.00  0.00    -0.554 N  
HETATM   23  H   UNL     1     -12.805   7.492  69.793  1.00  0.00     0.000 HD 
BRANCH  22  24
HETATM   24  C   UNL     1     -11.196   6.245  70.238  1.00  0.00    -0.388 A  
HETATM   25  C   UNL     1     -10.654   5.432  71.239  1.00  0.00    -0.276 A  
HETATM   26  C   UNL     1      -9.797   4.371  70.926  1.00  0.00    -0.266 A  
HETATM   27  C   UNL     1      -9.456   4.113  69.603  1.00  0.00    -0.259 A  
HETATM   28  C   UNL     1      -9.962   4.935  68.591  1.00  0.00    -0.195 A  
HETATM   29  C   UNL     1      -9.625   4.705  67.165  1.00  0.00    -0.176 C  
HETATM   30  C   UNL     1     -10.845   5.983  68.908  1.00  0.00    -0.400 A  
HETATM   31  O   UNL     1      -8.379   4.224  66.964  1.00  0.00    -0.101 OA 
HETATM   32  O   UNL     1     -10.394   4.966  66.256  1.00  0.00    -0.255 OA 
ENDBRANCH  22  24
ENDBRANCH  17  20
ENDBRANCH  13  14
ENDBRANCH   3  13
BRANCH   7  33
HETATM   33  C   UNL     1     -11.504  13.211  63.603  1.00  0.00    -0.323 C  
HETATM   34  O   UNL     1     -12.329  14.342  63.322  1.00  0.00    -1.118 OA 
HETATM   35  H   UNL     1     -12.565  14.286  62.403  1.00  0.00     0.000 HD 
HETATM   36  C   UNL     1     -12.280  11.937  63.306  1.00  0.00    -0.487 C  
ENDBRANCH   7  33
TORSDOF 5
ENDMDL
MODEL       48
REMARK 921   NORMALIZED FREE ENERGY PREDICTED BY IDOCK:   -6.61 KCAL/MOL
REMARK 922        TOTAL FREE ENERGY PREDICTED BY IDOCK:  -10.23 KCAL/MOL
REMARK 923 INTER-LIGAND FREE ENERGY PREDICTED BY IDOCK:   -9.08 KCAL/MOL
REMARK 924 INTRA-LIGAND FREE ENERGY PREDICTED BY IDOCK:   -1.15 KCAL/MOL
REMARK 927      BINDING AFFINITY PREDICTED BY RF-SCORE:    0.00 PKD
ROOT
HETATM    1  C   UNL     1      -8.920   5.820  66.532  1.00  0.00    -0.128 C  
HETATM    2  C   UNL     1      -9.033   7.189  67.209  1.00  0.00    -0.123 C  
HETATM    3  C   UNL     1      -8.679   6.875  68.648  1.00  0.00    -0.122 C  
HETATM    4  C   UNL     1     -10.403   7.807  66.967  1.00  0.00    -0.405 C  
HETATM    5  O   UNL     1      -9.619   2.927  67.960  1.00  0.00    -0.195 OA 
HETATM    6  C   UNL     1      -8.362   5.573  68.791  1.00  0.00    -0.102 C  
HETATM    7  C   UNL     1     -10.108   4.830  66.317  1.00  0.00    -0.291 C  
HETATM    8  N   UNL     1      -8.432   4.885  67.585  1.00  0.00    -0.104 N  
HETATM    9  C   UNL     1      -7.883   4.892  70.034  1.00  0.00    -0.066 C  
HETATM   10  O   UNL     1      -7.371   5.470  70.979  1.00  0.00    -0.078 OA 
HETATM   11  O   UNL     1      -8.068   3.554  70.054  1.00  0.00    -0.046 OA 
HETATM   12  C   UNL     1      -9.398   3.948  67.347  1.00  0.00    -0.191 C  
ENDROOT
BRANCH   3  13
HETATM   13  S   UNL     1      -8.540   8.174  69.773  1.00  0.00    -0.134 SA 
BRANCH  13  14
HETATM   14  C   UNL     1      -9.826   7.845  71.039  1.00  0.00    -0.170 C  
HETATM   15  C   UNL     1     -11.141   7.302  70.492  1.00  0.00    -0.267 C  
HETATM   16  N   UNL     1     -11.807   8.481  69.964  1.00  0.00    -0.294 NA 
HETATM   17  C   UNL     1     -11.534   9.601  70.892  1.00  0.00    -0.353 C  
HETATM   18  C   UNL     1     -10.259   9.191  71.639  1.00  0.00    -0.372 C  
HETATM   19  H   UNL     1     -12.804   8.334  69.800  1.00  0.00     0.000 HD 
BRANCH  17  20
HETATM   20  C   UNL     1     -11.522  10.929  70.082  1.00  0.00    -0.319 C  
HETATM   21  O   UNL     1     -12.027  11.946  70.561  1.00  0.00    -0.354 OA 
HETATM   22  N   UNL     1     -10.821  10.893  68.884  1.00  0.00    -0.203 N  
HETATM   23  H   UNL     1     -10.371  10.010  68.645  1.00  0.00     0.000 HD 
BRANCH  22  24
HETATM   24  C   UNL     1     -10.667  11.955  67.958  1.00  0.00    -0.209 A  
HETATM   25  C   UNL     1      -9.608  12.869  67.990  1.00  0.00    -0.221 A  
HETATM   26  C   UNL     1      -9.504  13.890  67.039  1.00  0.00    -0.256 A  
HETATM   27  C   UNL     1     -10.466  14.023  66.044  1.00  0.00    -0.307 A  
HETATM   28  C   UNL     1     -11.549  13.138  66.016  1.00  0.00    -0.393 A  
HETATM   29  C   UNL     1     -12.605  13.240  64.979  1.00  0.00    -0.423 C  
HETATM   30  C   UNL     1     -11.635  12.097  66.957  1.00  0.00    -0.406 A  
HETATM   31  O   UNL     1     -12.867  14.504  64.582  1.00  0.00    -0.614 OA 
HETATM   32  O   UNL     1     -13.208  12.269  64.556  1.00  0.00    -0.799 OA 
ENDBRANCH  22  24
ENDBRANCH  17  20
ENDBRANCH  13  14
ENDBRANCH   3  13
BRANCH   7  33
HETATM   33  C   UNL     1     -10.259   4.326  64.896  1.00  0.00    -0.175 C  
HETATM   34  O   UNL     1     -11.660   4.205  64.650  1.00  0.00    -0.839 OA 
HETATM   35  H   UNL     1     -11.754   3.889  63.758  1.00  0.00     0.000 HD 
HETATM   36  C   UNL     1      -9.599   2.968  64.717  1.00  0.00    -0.121 C  
ENDBRANCH   7  33
TORSDOF 5
ENDMDL
MODEL       49
REMARK 921   NORMALIZED FREE ENERGY PREDICTED BY IDOCK:   -6.59 KCAL/MOL
REMARK 922        TOTAL FREE ENERGY PREDICTED BY IDOCK:  -10.20 KCAL/MOL
REMARK 923 INTER-LIGAND FREE ENERGY PREDICTED BY IDOCK:   -8.89 KCAL/MOL
REMARK 924 INTRA-LIGAND FREE ENERGY PREDICTED BY IDOCK:   -1.30 KCAL/MOL
REMARK 927      BINDING AFFINITY PREDICTED BY RF-SCORE:    0.00 PKD
ROOT
HETATM    1  C   UNL     1     -11.453  15.914  67.259  1.00  0.00     0.099 C  
HETATM    2  C   UNL     1     -11.407  15.072  65.980  1.00  0.00    -0.270 C  
HETATM    3  C   UNL     1     -11.493  13.657  66.515  1.00  0.00    -0.335 C  
HETATM    4  C   UNL     1     -10.177  15.409  65.148  1.00  0.00    -0.360 C  
HETATM    5  O   UNL     1     -10.191  15.020  70.175  1.00  0.00    -0.128 OA 
HETATM    6  C   UNL     1     -11.620  13.658  67.857  1.00  0.00    -0.341 C  
HETATM    7  C   UNL     1     -10.199  16.427  68.036  1.00  0.00    -0.264 C  
HETATM    8  N   UNL     1     -11.653  14.948  68.376  1.00  0.00    -0.315 N  
HETATM    9  C   UNL     1     -11.813  12.470  68.745  1.00  0.00    -0.303 C  
HETATM   10  O   UNL     1     -12.241  11.392  68.366  1.00  0.00    -0.571 OA 
HETATM   11  O   UNL     1     -11.465  12.666  70.036  1.00  0.00    -0.169 OA 
HETATM   12  C   UNL     1     -10.628  15.446  69.129  1.00  0.00    -0.248 C  
ENDROOT
BRANCH   3  13
HETATM   13  S   UNL     1     -11.614  12.352  65.396  1.00  0.00    -0.386 SA 
BRANCH  13  14
HETATM   14  C   UNL     1      -9.883  11.952  64.942  1.00  0.00    -0.199 C  
HETATM   15  C   UNL     1      -9.728  10.804  63.951  1.00  0.00    -0.313 C  
HETATM   16  N   UNL     1      -9.902   9.617  64.770  1.00  0.00    -0.397 NA 
HETATM   17  C   UNL     1      -9.239   9.869  66.069  1.00  0.00    -0.170 C  
HETATM   18  C   UNL     1      -9.179  11.398  66.188  1.00  0.00    -0.223 C  
HETATM   19  H   UNL     1      -9.570   8.767  64.313  1.00  0.00     0.000 HD 
BRANCH  17  20
HETATM   20  C   UNL     1      -9.987   9.070  67.175  1.00  0.00    -0.224 C  
HETATM   21  O   UNL     1     -10.809   8.208  66.860  1.00  0.00    -0.250 OA 
HETATM   22  N   UNL     1      -9.575   9.321  68.477  1.00  0.00    -0.146 N  
HETATM   23  H   UNL     1      -8.819   9.994  68.595  1.00  0.00     0.000 HD 
BRANCH  22  24
HETATM   24  C   UNL     1     -10.098   8.738  69.659  1.00  0.00    -0.204 A  
HETATM   25  C   UNL     1     -10.747   9.464  70.664  1.00  0.00    -0.353 A  
HETATM   26  C   UNL     1     -11.253   8.828  71.803  1.00  0.00    -0.410 A  
HETATM   27  C   UNL     1     -11.108   7.455  71.964  1.00  0.00    -0.279 A  
HETATM   28  C   UNL     1     -10.432   6.718  70.985  1.00  0.00    -0.237 A  
HETATM   29  C   UNL     1     -10.245   5.252  71.111  1.00  0.00    -0.224 C  
HETATM   30  C   UNL     1      -9.950   7.357  69.828  1.00  0.00    -0.188 A  
HETATM   31  O   UNL     1     -10.089   4.824  72.382  1.00  0.00    -0.167 OA 
HETATM   32  O   UNL     1     -10.198   4.509  70.145  1.00  0.00    -0.210 OA 
ENDBRANCH  22  24
ENDBRANCH  17  20
ENDBRANCH  13  14
ENDBRANCH   3  13
BRANCH   7  33
HETATM   33  C   UNL     1     -10.209  17.913  68.336  1.00  0.00    -0.394 C  
HETATM   34  O   UNL     1     -10.755  18.560  67.187  1.00  0.00    -0.409 OA 
HETATM   35  H   UNL     1     -10.761  19.492  67.375  1.00  0.00     0.000 HD 
HETATM   36  C   UNL     1      -8.804  18.437  68.588  1.00  0.00    -0.306 C  
ENDBRANCH   7  33
TORSDOF 5
ENDMDL
MODEL       50
REMARK 921   NORMALIZED FREE ENERGY PREDICTED BY IDOCK:   -6.58 KCAL/MOL
REMARK 922        TOTAL FREE ENERGY PREDICTED BY IDOCK:  -10.19 KCAL/MOL
REMARK 923 INTER-LIGAND FREE ENERGY PREDICTED BY IDOCK:   -8.34 KCAL/MOL
REMARK 924 INTRA-LIGAND FREE ENERGY PREDICTED BY IDOCK:   -1.85 KCAL/MOL
REMARK 927      BINDING AFFINITY PREDICTED BY RF-SCORE:    0.00 PKD
ROOT
HETATM    1  C   UNL     1      -8.600   6.571  65.592  1.00  0.00    -0.126 C  
HETATM    2  C   UNL     1      -8.255   5.944  66.946  1.00  0.00    -0.105 C  
HETATM    3  C   UNL     1      -8.513   7.084  67.912  1.00  0.00    -0.124 C  
HETATM    4  C   UNL     1      -6.846   5.368  66.939  1.00  0.00    -0.063 C  
HETATM    5  O   UNL     1      -8.143   9.740  64.788  1.00  0.00    -0.131 OA 
HETATM    6  C   UNL     1      -8.976   8.169  67.259  1.00  0.00    -0.137 C  
HETATM    7  C   UNL     1      -7.570   7.248  64.634  1.00  0.00    -0.106 C  
HETATM    8  N   UNL     1      -9.103   7.941  65.894  1.00  0.00    -0.132 N  
HETATM    9  C   UNL     1      -9.422   9.463  67.864  1.00  0.00    -0.132 C  
HETATM   10  O   UNL     1      -9.770   9.593  69.027  1.00  0.00    -0.159 OA 
HETATM   11  O   UNL     1      -9.406  10.518  67.020  1.00  0.00    -0.153 OA 
HETATM   12  C   UNL     1      -8.289   8.553  64.984  1.00  0.00    -0.165 C  
ENDROOT
BRANCH   3  13
HETATM   13  S   UNL     1      -8.385   6.785  69.604  1.00  0.00    -0.133 SA 
BRANCH  13  14
HETATM   14  C   UNL     1      -9.826   5.725  70.010  1.00  0.00    -0.180 C  
HETATM   15  C   UNL     1     -11.008   5.856  69.056  1.00  0.00    -0.289 C  
HETATM   16  N   UNL     1     -11.655   7.086  69.478  1.00  0.00    -0.559 NA 
HETATM   17  C   UNL     1     -11.595   7.139  70.956  1.00  0.00    -0.309 C  
HETATM   18  C   UNL     1     -10.425   6.222  71.334  1.00  0.00    -0.264 C  
HETATM   19  H   UNL     1     -12.605   7.179  69.116  1.00  0.00     0.000 HD 
BRANCH  17  20
HETATM   20  C   UNL     1     -11.540   8.629  71.399  1.00  0.00    -0.293 C  
HETATM   21  O   UNL     1     -10.711   8.991  72.236  1.00  0.00    -0.270 OA 
HETATM   22  N   UNL     1     -12.386   9.490  70.713  1.00  0.00    -0.465 N  
HETATM   23  H   UNL     1     -12.958   9.077  69.977  1.00  0.00     0.000 HD 
BRANCH  22  24
HETATM   24  C   UNL     1     -12.537  10.883  70.928  1.00  0.00    -0.397 A  
HETATM   25  C   UNL     1     -13.241  11.433  72.005  1.00  0.00    -0.432 A  
HETATM   26  C   UNL     1     -13.343  12.818  72.171  1.00  0.00    -0.593 A  
HETATM   27  C   UNL     1     -12.752  13.680  71.253  1.00  0.00    -0.443 A  
HETATM   28  C   UNL     1     -12.071  13.149  70.153  1.00  0.00    -0.392 A  
HETATM   29  C   UNL     1     -11.428  14.024  69.143  1.00  0.00    -0.296 C  
HETATM   30  C   UNL     1     -11.948  11.755  70.006  1.00  0.00    -0.421 A  
HETATM   31  O   UNL     1     -12.081  15.186  68.926  1.00  0.00    -0.281 OA 
HETATM   32  O   UNL     1     -10.421  13.701  68.538  1.00  0.00    -0.237 OA 
ENDBRANCH  22  24
ENDBRANCH  17  20
ENDBRANCH  13  14
ENDBRANCH   3  13
BRANCH   7  33
HETATM   33  C   UNL     1      -7.613   6.745  63.205  1.00  0.00    -0.089 C  
HETATM   34  O   UNL     1      -8.491   7.615  62.490  1.00  0.00    -0.361 OA 
HETATM   35  H   UNL     1      -8.518   7.299  61.594  1.00  0.00     0.000 HD 
HETATM   36  C   UNL     1      -8.148   5.323  63.134  1.00  0.00    -0.104 C  
ENDBRANCH   7  33
TORSDOF 5
ENDMDL
MODEL       51
REMARK 921   NORMALIZED FREE ENERGY PREDICTED BY IDOCK:   -6.57 KCAL/MOL
REMARK 922        TOTAL FREE ENERGY PREDICTED BY IDOCK:  -10.17 KCAL/MOL
REMARK 923 INTER-LIGAND FREE ENERGY PREDICTED BY IDOCK:   -8.89 KCAL/MOL
REMARK 924 INTRA-LIGAND FREE ENERGY PREDICTED BY IDOCK:   -1.28 KCAL/MOL
REMARK 927      BINDING AFFINITY PREDICTED BY RF-SCORE:    0.00 PKD
ROOT
HETATM    1  C   UNL     1     -10.111  16.919  67.296  1.00  0.00    -0.286 C  
HETATM    2  C   UNL     1      -9.363  15.826  66.528  1.00  0.00    -0.312 C  
HETATM    3  C   UNL     1      -9.923  14.555  67.134  1.00  0.00    -0.252 C  
HETATM    4  C   UNL     1      -7.856  16.020  66.630  1.00  0.00    -0.266 C  
HETATM    5  O   UNL     1     -11.078  16.711  70.446  1.00  0.00    -0.283 OA 
HETATM    6  C   UNL     1     -10.867  14.839  68.054  1.00  0.00    -0.260 C  
HETATM    7  C   UNL     1      -9.580  17.629  68.583  1.00  0.00    -0.307 C  
HETATM    8  N   UNL     1     -11.075  16.207  68.182  1.00  0.00    -0.342 N  
HETATM    9  C   UNL     1     -11.707  13.862  68.814  1.00  0.00    -0.357 C  
HETATM   10  O   UNL     1     -11.916  12.713  68.458  1.00  0.00    -0.305 OA 
HETATM   11  O   UNL     1     -12.231  14.340  69.965  1.00  0.00    -0.323 OA 
HETATM   12  C   UNL     1     -10.707  16.889  69.307  1.00  0.00    -0.288 C  
ENDROOT
BRANCH   3  13
HETATM   13  S   UNL     1      -9.457  13.038  66.463  1.00  0.00    -0.217 SA 
BRANCH  13  14
HETATM   14  C   UNL     1      -7.793  12.702  67.158  1.00  0.00    -0.108 C  
HETATM   15  C   UNL     1      -7.026  11.577  66.472  1.00  0.00    -0.009 C  
HETATM   16  N   UNL     1      -7.620  10.371  67.022  1.00  0.00    -0.099 NA 
HETATM   17  C   UNL     1      -7.894  10.621  68.455  1.00  0.00    -0.115 C  
HETATM   18  C   UNL     1      -7.974  12.148  68.579  1.00  0.00    -0.119 C  
HETATM   19  H   UNL     1      -7.048   9.540  66.867  1.00  0.00     0.000 HD 
BRANCH  17  20
HETATM   20  C   UNL     1      -9.130   9.779  68.881  1.00  0.00    -0.148 C  
HETATM   21  O   UNL     1      -9.696   9.057  68.057  1.00  0.00    -0.148 OA 
HETATM   22  N   UNL     1      -9.447   9.820  70.232  1.00  0.00    -0.340 N  
HETATM   23  H   UNL     1      -8.842  10.386  70.826  1.00  0.00     0.000 HD 
BRANCH  22  24
HETATM   24  C   UNL     1     -10.524   9.157  70.873  1.00  0.00    -0.278 A  
HETATM   25  C   UNL     1     -11.723   9.784  71.229  1.00  0.00    -0.472 A  
HETATM   26  C   UNL     1     -12.756   9.071  71.847  1.00  0.00    -0.450 A  
HETATM   27  C   UNL     1     -12.603   7.719  72.133  1.00  0.00    -0.250 A  
HETATM   28  C   UNL     1     -11.398   7.083  71.814  1.00  0.00    -0.291 A  
HETATM   29  C   UNL     1     -11.182   5.645  72.102  1.00  0.00    -0.227 C  
HETATM   30  C   UNL     1     -10.374   7.797  71.167  1.00  0.00    -0.218 A  
HETATM   31  O   UNL     1     -11.799   5.209  73.222  1.00  0.00    -0.207 OA 
HETATM   32  O   UNL     1     -10.476   4.933  71.409  1.00  0.00    -0.182 OA 
ENDBRANCH  22  24
ENDBRANCH  17  20
ENDBRANCH  13  14
ENDBRANCH   3  13
BRANCH   7  33
HETATM   33  C   UNL     1      -9.612  19.143  68.525  1.00  0.00    -0.395 C  
HETATM   34  O   UNL     1     -10.503  19.574  69.553  1.00  0.00    -0.503 OA 
HETATM   35  H   UNL     1     -10.523  20.523  69.517  1.00  0.00     0.000 HD 
HETATM   36  C   UNL     1     -10.121  19.636  67.180  1.00  0.00    -0.533 C  
ENDBRANCH   7  33
TORSDOF 5
ENDMDL
MODEL       52
REMARK 921   NORMALIZED FREE ENERGY PREDICTED BY IDOCK:   -6.55 KCAL/MOL
REMARK 922        TOTAL FREE ENERGY PREDICTED BY IDOCK:  -10.15 KCAL/MOL
REMARK 923 INTER-LIGAND FREE ENERGY PREDICTED BY IDOCK:   -8.78 KCAL/MOL
REMARK 924 INTRA-LIGAND FREE ENERGY PREDICTED BY IDOCK:   -1.38 KCAL/MOL
REMARK 927      BINDING AFFINITY PREDICTED BY RF-SCORE:    0.00 PKD
ROOT
HETATM    1  C   UNL     1      -8.943  15.137  67.327  1.00  0.00    -0.199 C  
HETATM    2  C   UNL     1      -9.974  14.014  67.182  1.00  0.00    -0.252 C  
HETATM    3  C   UNL     1     -10.963  14.600  66.195  1.00  0.00    -0.329 C  
HETATM    4  C   UNL     1     -10.531  13.605  68.539  1.00  0.00    -0.249 C  
HETATM    5  O   UNL     1      -9.608  18.366  67.160  1.00  0.00    -0.283 OA 
HETATM    6  C   UNL     1     -10.566  15.822  65.788  1.00  0.00    -0.355 C  
HETATM    7  C   UNL     1      -8.972  16.238  68.435  1.00  0.00    -0.203 C  
HETATM    8  N   UNL     1      -9.361  16.199  66.369  1.00  0.00    -0.272 N  
HETATM    9  C   UNL     1     -11.226  16.689  64.763  1.00  0.00    -0.066 C  
HETATM   10  O   UNL     1     -11.988  16.277  63.902  1.00  0.00    -1.003 OA 
HETATM   11  O   UNL     1     -10.927  18.004  64.855  1.00  0.00    -0.776 OA 
HETATM   12  C   UNL     1      -9.291  17.204  67.292  1.00  0.00    -0.242 C  
ENDROOT
BRANCH   3  13
HETATM   13  S   UNL     1     -12.249  13.609  65.619  1.00  0.00    -0.481 SA 
BRANCH  13  14
HETATM   14  C   UNL     1     -11.874  13.326  63.846  1.00  0.00    -0.465 C  
HETATM   15  C   UNL     1     -12.660  12.192  63.196  1.00  0.00    -0.197 C  
HETATM   16  N   UNL     1     -11.971  10.995  63.646  1.00  0.00     0.190 NA 
HETATM   17  C   UNL     1     -10.519  11.289  63.648  1.00  0.00    -0.405 C  
HETATM   18  C   UNL     1     -10.429  12.818  63.740  1.00  0.00    -0.335 C  
HETATM   19  H   UNL     1     -12.207  10.170  63.094  1.00  0.00     0.000 HD 
BRANCH  17  20
HETATM   20  C   UNL     1      -9.841  10.440  64.761  1.00  0.00    -0.340 C  
HETATM   21  O   UNL     1      -8.648  10.143  64.666  1.00  0.00    -0.162 OA 
HETATM   22  N   UNL     1     -10.630  10.165  65.870  1.00  0.00    -0.053 N  
HETATM   23  H   UNL     1     -11.575  10.548  65.864  1.00  0.00     0.000 HD 
BRANCH  22  24
HETATM   24  C   UNL     1     -10.258   9.408  67.009  1.00  0.00    -0.255 A  
HETATM   25  C   UNL     1      -9.879   9.974  68.231  1.00  0.00    -0.163 A  
HETATM   26  C   UNL     1      -9.536   9.171  69.325  1.00  0.00    -0.159 A  
HETATM   27  C   UNL     1      -9.554   7.785  69.211  1.00  0.00    -0.159 A  
HETATM   28  C   UNL     1      -9.899   7.202  67.988  1.00  0.00    -0.158 A  
HETATM   29  C   UNL     1      -9.929   5.729  67.813  1.00  0.00    -0.140 C  
HETATM   30  C   UNL     1     -10.270   8.012  66.899  1.00  0.00    -0.385 A  
HETATM   31  O   UNL     1      -9.000   5.070  68.537  1.00  0.00    -0.103 OA 
HETATM   32  O   UNL     1     -10.700   5.173  67.050  1.00  0.00    -0.197 OA 
ENDBRANCH  22  24
ENDBRANCH  17  20
ENDBRANCH  13  14
ENDBRANCH   3  13
BRANCH   7  33
HETATM   33  C   UNL     1      -7.671  16.401  69.195  1.00  0.00    -0.220 C  
HETATM   34  O   UNL     1      -7.097  17.635  68.765  1.00  0.00    -0.243 OA 
HETATM   35  H   UNL     1      -6.281  17.738  69.241  1.00  0.00     0.000 HD 
HETATM   36  C   UNL     1      -6.706  15.266  68.891  1.00  0.00    -0.115 C  
ENDBRANCH   7  33
TORSDOF 5
ENDMDL
MODEL       53
REMARK 921   NORMALIZED FREE ENERGY PREDICTED BY IDOCK:   -6.55 KCAL/MOL
REMARK 922        TOTAL FREE ENERGY PREDICTED BY IDOCK:  -10.15 KCAL/MOL
REMARK 923 INTER-LIGAND FREE ENERGY PREDICTED BY IDOCK:   -9.09 KCAL/MOL
REMARK 924 INTRA-LIGAND FREE ENERGY PREDICTED BY IDOCK:   -1.06 KCAL/MOL
REMARK 927      BINDING AFFINITY PREDICTED BY RF-SCORE:    0.00 PKD
ROOT
HETATM    1  C   UNL     1      -9.567  17.720  67.313  1.00  0.00    -0.272 C  
HETATM    2  C   UNL     1     -10.129  16.333  66.987  1.00  0.00    -0.270 C  
HETATM    3  C   UNL     1      -9.220  15.415  67.780  1.00  0.00    -0.183 C  
HETATM    4  C   UNL     1     -10.179  16.104  65.483  1.00  0.00    -0.360 C  
HETATM    5  O   UNL     1      -6.388  18.401  67.885  1.00  0.00    -0.188 OA 
HETATM    6  C   UNL     1      -8.320  16.126  68.488  1.00  0.00    -0.195 C  
HETATM    7  C   UNL     1      -8.509  18.480  66.452  1.00  0.00    -0.275 C  
HETATM    8  N   UNL     1      -8.481  17.495  68.309  1.00  0.00    -0.258 N  
HETATM    9  C   UNL     1      -7.307  15.594  69.451  1.00  0.00    -0.216 C  
HETATM   10  O   UNL     1      -7.387  14.507  70.001  1.00  0.00     0.003 OA 
HETATM   11  O   UNL     1      -6.254  16.411  69.676  1.00  0.00    -0.193 OA 
HETATM   12  C   UNL     1      -7.562  18.245  67.631  1.00  0.00    -0.220 C  
ENDROOT
BRANCH   3  13
HETATM   13  S   UNL     1      -9.574  13.729  67.822  1.00  0.00    -0.227 SA 
BRANCH  13  14
HETATM   14  C   UNL     1     -11.406  13.628  67.822  1.00  0.00    -0.306 C  
HETATM   15  C   UNL     1     -12.071  14.022  69.136  1.00  0.00    -0.337 C  
HETATM   16  N   UNL     1     -11.897  12.848  69.974  1.00  0.00    -0.480 NA 
HETATM   17  C   UNL     1     -12.080  11.655  69.117  1.00  0.00    -0.251 C  
HETATM   18  C   UNL     1     -11.801  12.150  67.692  1.00  0.00    -0.316 C  
HETATM   19  H   UNL     1     -12.510  12.848  70.790  1.00  0.00     0.000 HD 
BRANCH  17  20
HETATM   20  C   UNL     1     -11.209  10.497  69.682  1.00  0.00    -0.282 C  
HETATM   21  O   UNL     1      -9.986  10.520  69.535  1.00  0.00    -0.217 OA 
HETATM   22  N   UNL     1     -11.889   9.546  70.431  1.00  0.00    -0.439 N  
HETATM   23  H   UNL     1     -12.891   9.693  70.554  1.00  0.00     0.000 HD 
BRANCH  22  24
HETATM   24  C   UNL     1     -11.337   8.393  71.043  1.00  0.00    -0.266 A  
HETATM   25  C   UNL     1     -11.248   8.213  72.428  1.00  0.00    -0.452 A  
HETATM   26  C   UNL     1     -10.704   7.044  72.971  1.00  0.00    -0.337 A  
HETATM   27  C   UNL     1     -10.226   6.039  72.138  1.00  0.00    -0.222 A  
HETATM   28  C   UNL     1     -10.276   6.215  70.752  1.00  0.00    -0.249 A  
HETATM   29  C   UNL     1      -9.776   5.176  69.819  1.00  0.00    -0.193 C  
HETATM   30  C   UNL     1     -10.850   7.380  70.209  1.00  0.00    -0.260 A  
HETATM   31  O   UNL     1      -8.714   4.484  70.286  1.00  0.00    -0.079 OA 
HETATM   32  O   UNL     1     -10.258   4.994  68.715  1.00  0.00    -0.163 OA 
ENDBRANCH  22  24
ENDBRANCH  17  20
ENDBRANCH  13  14
ENDBRANCH   3  13
BRANCH   7  33
HETATM   33  C   UNL     1      -8.894  19.900  66.089  1.00  0.00    -0.306 C  
HETATM   34  O   UNL     1      -7.731  20.704  66.286  1.00  0.00    -0.509 OA 
HETATM   35  H   UNL     1      -7.973  21.594  66.058  1.00  0.00     0.000 HD 
HETATM   36  C   UNL     1     -10.016  20.414  66.978  1.00  0.00    -0.568 C  
ENDBRANCH   7  33
TORSDOF 5
ENDMDL
MODEL       54
REMARK 921   NORMALIZED FREE ENERGY PREDICTED BY IDOCK:   -6.54 KCAL/MOL
REMARK 922        TOTAL FREE ENERGY PREDICTED BY IDOCK:  -10.14 KCAL/MOL
REMARK 923 INTER-LIGAND FREE ENERGY PREDICTED BY IDOCK:   -9.10 KCAL/MOL
REMARK 924 INTRA-LIGAND FREE ENERGY PREDICTED BY IDOCK:   -1.04 KCAL/MOL
REMARK 927      BINDING AFFINITY PREDICTED BY RF-SCORE:    0.00 PKD
ROOT
HETATM    1  C   UNL     1     -11.169   6.668  70.628  1.00  0.00    -0.317 C  
HETATM    2  C   UNL     1     -10.978   7.708  69.521  1.00  0.00    -0.108 C  
HETATM    3  C   UNL     1     -10.349   6.894  68.409  1.00  0.00    -0.190 C  
HETATM    4  C   UNL     1     -10.176   8.900  70.025  1.00  0.00    -0.214 C  
HETATM    5  O   UNL     1      -9.173   4.100  71.195  1.00  0.00    -0.114 OA 
HETATM    6  C   UNL     1     -10.237   5.599  68.767  1.00  0.00    -0.204 C  
HETATM    7  C   UNL     1     -10.152   6.392  71.781  1.00  0.00    -0.206 C  
HETATM    8  N   UNL     1     -10.738   5.366  70.042  1.00  0.00    -0.287 N  
HETATM    9  C   UNL     1      -9.742   4.469  67.921  1.00  0.00    -0.139 C  
HETATM   10  O   UNL     1      -9.716   4.485  66.701  1.00  0.00    -0.173 OA 
HETATM   11  O   UNL     1      -9.301   3.394  68.612  1.00  0.00    -0.156 OA 
HETATM   12  C   UNL     1      -9.921   5.047  71.090  1.00  0.00    -0.207 C  
ENDROOT
BRANCH   3  13
HETATM   13  S   UNL     1     -10.078   7.643  66.880  1.00  0.00    -0.279 SA 
BRANCH  13  14
HETATM   14  C   UNL     1      -8.256   7.647  66.670  1.00  0.00    -0.124 C  
HETATM   15  C   UNL     1      -7.517   8.704  67.483  1.00  0.00    -0.090 C  
HETATM   16  N   UNL     1      -7.718   9.925  66.723  1.00  0.00    -0.098 NA 
HETATM   17  C   UNL     1      -7.633   9.576  65.286  1.00  0.00    -0.111 C  
HETATM   18  C   UNL     1      -7.944   8.075  65.228  1.00  0.00    -0.124 C  
HETATM   19  H   UNL     1      -7.073  10.670  66.989  1.00  0.00     0.000 HD 
BRANCH  17  20
HETATM   20  C   UNL     1      -8.539  10.551  64.482  1.00  0.00    -0.159 C  
HETATM   21  O   UNL     1      -8.437  10.614  63.255  1.00  0.00    -0.166 OA 
HETATM   22  N   UNL     1      -9.505  11.219  65.222  1.00  0.00    -0.223 N  
HETATM   23  H   UNL     1      -9.544  11.008  66.218  1.00  0.00     0.000 HD 
BRANCH  22  24
HETATM   24  C   UNL     1     -10.444  12.164  64.736  1.00  0.00    -0.294 A  
HETATM   25  C   UNL     1     -11.488  11.846  63.860  1.00  0.00    -0.511 A  
HETATM   26  C   UNL     1     -12.391  12.822  63.426  1.00  0.00    -0.531 A  
HETATM   27  C   UNL     1     -12.259  14.139  63.852  1.00  0.00    -0.288 A  
HETATM   28  C   UNL     1     -11.202  14.483  64.701  1.00  0.00    -0.359 A  
HETATM   29  C   UNL     1     -11.013  15.874  65.180  1.00  0.00    -0.377 C  
HETATM   30  C   UNL     1     -10.313  13.492  65.157  1.00  0.00    -0.368 A  
HETATM   31  O   UNL     1     -11.380  16.817  64.286  1.00  0.00    -1.170 OA 
HETATM   32  O   UNL     1     -10.532  16.136  66.268  1.00  0.00    -0.310 OA 
ENDBRANCH  22  24
ENDBRANCH  17  20
ENDBRANCH  13  14
ENDBRANCH   3  13
BRANCH   7  33
HETATM   33  C   UNL     1     -10.756   6.411  73.171  1.00  0.00    -0.268 C  
HETATM   34  O   UNL     1     -11.659   7.516  73.211  1.00  0.00    -0.609 OA 
HETATM   35  H   UNL     1     -12.037   7.528  74.083  1.00  0.00     0.000 HD 
HETATM   36  C   UNL     1      -9.687   6.597  74.237  1.00  0.00    -0.328 C  
ENDBRANCH   7  33
TORSDOF 5
ENDMDL
MODEL       55
REMARK 921   NORMALIZED FREE ENERGY PREDICTED BY IDOCK:   -6.54 KCAL/MOL
REMARK 922        TOTAL FREE ENERGY PREDICTED BY IDOCK:  -10.14 KCAL/MOL
REMARK 923 INTER-LIGAND FREE ENERGY PREDICTED BY IDOCK:   -8.61 KCAL/MOL
REMARK 924 INTRA-LIGAND FREE ENERGY PREDICTED BY IDOCK:   -1.53 KCAL/MOL
REMARK 927      BINDING AFFINITY PREDICTED BY RF-SCORE:    0.00 PKD
ROOT
HETATM    1  C   UNL     1      -9.223   9.227  65.988  1.00  0.00    -0.206 C  
HETATM    2  C   UNL     1      -9.071  10.171  67.184  1.00  0.00    -0.149 C  
HETATM    3  C   UNL     1      -9.425  11.518  66.587  1.00  0.00    -0.193 C  
HETATM    4  C   UNL     1      -7.687  10.047  67.806  1.00  0.00    -0.090 C  
HETATM    5  O   UNL     1      -8.589  10.017  62.846  1.00  0.00    -0.157 OA 
HETATM    6  C   UNL     1      -9.773  11.392  65.291  1.00  0.00    -0.241 C  
HETATM    7  C   UNL     1      -8.061   8.799  65.035  1.00  0.00    -0.144 C  
HETATM    8  N   UNL     1      -9.727  10.069  64.866  1.00  0.00    -0.313 N  
HETATM    9  C   UNL     1     -10.261  12.472  64.379  1.00  0.00    -0.320 C  
HETATM   10  O   UNL     1     -10.753  13.523  64.760  1.00  0.00    -0.353 OA 
HETATM   11  O   UNL     1     -10.111  12.213  63.061  1.00  0.00    -0.309 OA 
HETATM   12  C   UNL     1      -8.788   9.631  63.976  1.00  0.00    -0.227 C  
ENDROOT
BRANCH   3  13
HETATM   13  S   UNL     1      -9.523  12.889  67.627  1.00  0.00    -0.205 SA 
BRANCH  13  14
HETATM   14  C   UNL     1     -11.303  13.042  68.043  1.00  0.00    -0.290 C  
HETATM   15  C   UNL     1     -11.592  13.570  69.444  1.00  0.00    -0.312 C  
HETATM   16  N   UNL     1     -11.380  12.414  70.297  1.00  0.00    -0.384 NA 
HETATM   17  C   UNL     1     -11.905  11.229  69.583  1.00  0.00    -0.360 C  
HETATM   18  C   UNL     1     -11.902  11.630  68.103  1.00  0.00    -0.315 C  
HETATM   19  H   UNL     1     -11.783  12.528  71.228  1.00  0.00     0.000 HD 
BRANCH  17  20
HETATM   20  C   UNL     1     -11.082   9.981  70.014  1.00  0.00    -0.295 C  
HETATM   21  O   UNL     1      -9.927  10.118  70.423  1.00  0.00    -0.154 OA 
HETATM   22  N   UNL     1     -11.773   8.777  70.009  1.00  0.00    -0.431 N  
HETATM   23  H   UNL     1     -12.754   8.814  69.735  1.00  0.00     0.000 HD 
BRANCH  22  24
HETATM   24  C   UNL     1     -11.256   7.500  70.344  1.00  0.00    -0.253 A  
HETATM   25  C   UNL     1     -10.867   6.544  69.399  1.00  0.00    -0.363 A  
HETATM   26  C   UNL     1     -10.351   5.305  69.794  1.00  0.00    -0.369 A  
HETATM   27  C   UNL     1     -10.226   4.995  71.144  1.00  0.00    -0.281 A  
HETATM   28  C   UNL     1     -10.640   5.926  72.103  1.00  0.00    -0.264 A  
HETATM   29  C   UNL     1     -10.532   5.642  73.554  1.00  0.00    -0.254 C  
HETATM   30  C   UNL     1     -11.132   7.181  71.701  1.00  0.00    -0.264 A  
HETATM   31  O   UNL     1     -10.717   4.344  73.877  1.00  0.00    -0.226 OA 
HETATM   32  O   UNL     1     -10.335   6.514  74.383  1.00  0.00    -0.346 OA 
ENDBRANCH  22  24
ENDBRANCH  17  20
ENDBRANCH  13  14
ENDBRANCH   3  13
BRANCH   7  33
HETATM   33  C   UNL     1      -7.932   7.302  64.833  1.00  0.00    -0.127 C  
HETATM   34  O   UNL     1      -8.284   7.039  63.475  1.00  0.00    -0.313 OA 
HETATM   35  H   UNL     1      -8.203   6.101  63.349  1.00  0.00     0.000 HD 
HETATM   36  C   UNL     1      -8.870   6.536  65.753  1.00  0.00    -0.097 C  
ENDBRANCH   7  33
TORSDOF 5
ENDMDL
MODEL       56
REMARK 921   NORMALIZED FREE ENERGY PREDICTED BY IDOCK:   -6.54 KCAL/MOL
REMARK 922        TOTAL FREE ENERGY PREDICTED BY IDOCK:  -10.13 KCAL/MOL
REMARK 923 INTER-LIGAND FREE ENERGY PREDICTED BY IDOCK:   -8.46 KCAL/MOL
REMARK 924 INTRA-LIGAND FREE ENERGY PREDICTED BY IDOCK:   -1.67 KCAL/MOL
REMARK 927      BINDING AFFINITY PREDICTED BY RF-SCORE:    0.00 PKD
ROOT
HETATM    1  C   UNL     1      -9.506   7.387  71.079  1.00  0.00    -0.157 C  
HETATM    2  C   UNL     1      -8.626   7.956  69.962  1.00  0.00    -0.135 C  
HETATM    3  C   UNL     1      -9.411   9.172  69.512  1.00  0.00    -0.163 C  
HETATM    4  C   UNL     1      -8.341   6.902  68.901  1.00  0.00    -0.121 C  
HETATM    5  O   UNL     1     -12.803   7.525  71.164  1.00  0.00    -0.302 OA 
HETATM    6  C   UNL     1     -10.523   9.327  70.258  1.00  0.00    -0.228 C  
HETATM    7  C   UNL     1     -10.585   6.275  70.887  1.00  0.00    -0.293 C  
HETATM    8  N   UNL     1     -10.635   8.347  71.236  1.00  0.00    -0.213 N  
HETATM    9  C   UNL     1     -11.512  10.447  70.178  1.00  0.00    -0.319 C  
HETATM   10  O   UNL     1     -11.272  11.542  69.695  1.00  0.00    -0.251 OA 
HETATM   11  O   UNL     1     -12.734  10.160  70.680  1.00  0.00    -0.307 OA 
HETATM   12  C   UNL     1     -11.600   7.382  71.180  1.00  0.00    -0.286 C  
ENDROOT
BRANCH   3  13
HETATM   13  S   UNL     1      -8.715  10.221  68.335  1.00  0.00    -0.134 SA 
BRANCH  13  14
HETATM   14  C   UNL     1      -9.413   9.667  66.732  1.00  0.00    -0.161 C  
HETATM   15  C   UNL     1      -8.727  10.244  65.499  1.00  0.00    -0.162 C  
HETATM   16  N   UNL     1      -9.274  11.586  65.398  1.00  0.00    -0.364 NA 
HETATM   17  C   UNL     1     -10.707  11.513  65.762  1.00  0.00    -0.271 C  
HETATM   18  C   UNL     1     -10.832  10.239  66.607  1.00  0.00    -0.115 C  
HETATM   19  H   UNL     1      -9.118  12.011  64.483  1.00  0.00     0.000 HD 
BRANCH  17  20
HETATM   20  C   UNL     1     -11.129  12.868  66.400  1.00  0.00    -0.285 C  
HETATM   21  O   UNL     1     -12.228  13.357  66.132  1.00  0.00    -0.416 OA 
HETATM   22  N   UNL     1     -10.250  13.386  67.341  1.00  0.00    -0.235 N  
HETATM   23  H   UNL     1      -9.416  12.835  67.539  1.00  0.00     0.000 HD 
BRANCH  22  24
HETATM   24  C   UNL     1     -10.392  14.603  68.056  1.00  0.00    -0.235 A  
HETATM   25  C   UNL     1      -9.792  15.807  67.671  1.00  0.00    -0.232 A  
HETATM   26  C   UNL     1      -9.981  16.978  68.412  1.00  0.00    -0.289 A  
HETATM   27  C   UNL     1     -10.765  16.964  69.560  1.00  0.00    -0.205 A  
HETATM   28  C   UNL     1     -11.346  15.762  69.978  1.00  0.00    -0.354 A  
HETATM   29  C   UNL     1     -12.187  15.691  71.198  1.00  0.00    -0.413 C  
HETATM   30  C   UNL     1     -11.176  14.593  69.215  1.00  0.00    -0.306 A  
HETATM   31  O   UNL     1     -11.800  16.532  72.182  1.00  0.00    -0.501 OA 
HETATM   32  O   UNL     1     -13.118  14.913  71.312  1.00  0.00    -0.332 OA 
ENDBRANCH  22  24
ENDBRANCH  17  20
ENDBRANCH  13  14
ENDBRANCH   3  13
BRANCH   7  33
HETATM   33  C   UNL     1     -10.468   5.110  71.850  1.00  0.00    -0.207 C  
HETATM   34  O   UNL     1     -11.314   5.409  72.960  1.00  0.00    -0.320 OA 
HETATM   35  H   UNL     1     -11.240   4.679  73.564  1.00  0.00     0.000 HD 
HETATM   36  C   UNL     1      -9.038   4.938  72.340  1.00  0.00    -0.144 C  
ENDBRANCH   7  33
TORSDOF 5
ENDMDL
MODEL       57
REMARK 921   NORMALIZED FREE ENERGY PREDICTED BY IDOCK:   -6.53 KCAL/MOL
REMARK 922        TOTAL FREE ENERGY PREDICTED BY IDOCK:  -10.13 KCAL/MOL
REMARK 923 INTER-LIGAND FREE ENERGY PREDICTED BY IDOCK:   -8.73 KCAL/MOL
REMARK 924 INTRA-LIGAND FREE ENERGY PREDICTED BY IDOCK:   -1.40 KCAL/MOL
REMARK 927      BINDING AFFINITY PREDICTED BY RF-SCORE:    0.00 PKD
ROOT
HETATM    1  C   UNL     1     -10.515   5.179  70.784  1.00  0.00    -0.193 C  
HETATM    2  C   UNL     1     -11.173   6.216  69.870  1.00  0.00    -0.484 C  
HETATM    3  C   UNL     1     -10.482   5.971  68.543  1.00  0.00    -0.234 C  
HETATM    4  C   UNL     1     -11.045   7.617  70.452  1.00  0.00    -0.270 C  
HETATM    5  O   UNL     1      -7.386   4.150  70.557  1.00  0.00    -0.041 OA 
HETATM    6  C   UNL     1      -9.613   4.944  68.638  1.00  0.00    -0.154 C  
HETATM    7  C   UNL     1      -9.276   5.451  71.696  1.00  0.00    -0.166 C  
HETATM    8  N   UNL     1      -9.602   4.388  69.912  1.00  0.00    -0.188 N  
HETATM    9  C   UNL     1      -8.800   4.346  67.534  1.00  0.00    -0.108 C  
HETATM   10  O   UNL     1      -9.069   4.453  66.348  1.00  0.00    -0.117 OA 
HETATM   11  O   UNL     1      -7.707   3.664  67.941  1.00  0.00    -0.068 OA 
HETATM   12  C   UNL     1      -8.526   4.516  70.744  1.00  0.00    -0.091 C  
ENDROOT
BRANCH   3  13
HETATM   13  S   UNL     1     -11.016   6.839  67.154  1.00  0.00    -0.318 SA 
BRANCH  13  14
HETATM   14  C   UNL     1      -9.540   7.762  66.574  1.00  0.00    -0.201 C  
HETATM   15  C   UNL     1      -8.497   8.045  67.649  1.00  0.00    -0.131 C  
HETATM   16  N   UNL     1      -9.052   9.174  68.377  1.00  0.00    -0.133 NA 
HETATM   17  C   UNL     1      -9.692  10.072  67.389  1.00  0.00    -0.161 C  
HETATM   18  C   UNL     1      -9.988   9.176  66.179  1.00  0.00    -0.338 C  
HETATM   19  H   UNL     1      -8.361   9.650  68.957  1.00  0.00     0.000 HD 
BRANCH  17  20
HETATM   20  C   UNL     1     -10.881  10.803  68.077  1.00  0.00    -0.255 C  
HETATM   21  O   UNL     1     -11.872  11.120  67.417  1.00  0.00    -0.570 OA 
HETATM   22  N   UNL     1     -10.778  10.949  69.454  1.00  0.00    -0.274 N  
HETATM   23  H   UNL     1      -9.944  10.560  69.893  1.00  0.00     0.000 HD 
BRANCH  22  24
HETATM   24  C   UNL     1     -11.711  11.583  70.312  1.00  0.00    -0.289 A  
HETATM   25  C   UNL     1     -12.588  10.893  71.156  1.00  0.00    -0.532 A  
HETATM   26  C   UNL     1     -13.477  11.577  71.991  1.00  0.00    -0.298 A  
HETATM   27  C   UNL     1     -13.516  12.967  71.987  1.00  0.00    -0.568 A  
HETATM   28  C   UNL     1     -12.669  13.674  71.126  1.00  0.00    -0.432 A  
HETATM   29  C   UNL     1     -12.674  15.156  71.080  1.00  0.00    -0.392 C  
HETATM   30  C   UNL     1     -11.757  12.982  70.309  1.00  0.00    -0.192 A  
HETATM   31  O   UNL     1     -13.886  15.710  71.299  1.00  0.00    -0.573 OA 
HETATM   32  O   UNL     1     -11.677  15.810  70.826  1.00  0.00    -0.333 OA 
ENDBRANCH  22  24
ENDBRANCH  17  20
ENDBRANCH  13  14
ENDBRANCH   3  13
BRANCH   7  33
HETATM   33  C   UNL     1      -9.455   5.037  73.143  1.00  0.00    -0.134 C  
HETATM   34  O   UNL     1      -8.691   3.845  73.327  1.00  0.00    -0.090 OA 
HETATM   35  H   UNL     1      -8.804   3.586  74.234  1.00  0.00     0.000 HD 
HETATM   36  C   UNL     1     -10.915   4.751  73.460  1.00  0.00    -0.398 C  
ENDBRANCH   7  33
TORSDOF 5
ENDMDL
MODEL       58
REMARK 921   NORMALIZED FREE ENERGY PREDICTED BY IDOCK:   -6.53 KCAL/MOL
REMARK 922        TOTAL FREE ENERGY PREDICTED BY IDOCK:  -10.12 KCAL/MOL
REMARK 923 INTER-LIGAND FREE ENERGY PREDICTED BY IDOCK:   -8.48 KCAL/MOL
REMARK 924 INTRA-LIGAND FREE ENERGY PREDICTED BY IDOCK:   -1.64 KCAL/MOL
REMARK 927      BINDING AFFINITY PREDICTED BY RF-SCORE:    0.00 PKD
ROOT
HETATM    1  C   UNL     1      -8.350   7.178  66.922  1.00  0.00    -0.118 C  
HETATM    2  C   UNL     1      -9.562   7.634  67.739  1.00  0.00    -0.169 C  
HETATM    3  C   UNL     1     -10.005   6.352  68.415  1.00  0.00    -0.141 C  
HETATM    4  C   UNL     1     -10.590   8.324  66.853  1.00  0.00    -0.302 C  
HETATM    5  O   UNL     1      -8.000   4.205  65.530  1.00  0.00    -0.095 OA 
HETATM    6  C   UNL     1      -9.178   5.334  68.101  1.00  0.00    -0.113 C  
HETATM    7  C   UNL     1      -8.397   6.732  65.426  1.00  0.00    -0.123 C  
HETATM    8  N   UNL     1      -8.147   5.741  67.262  1.00  0.00    -0.102 N  
HETATM    9  C   UNL     1      -9.231   3.935  68.627  1.00  0.00    -0.151 C  
HETATM   10  O   UNL     1      -9.785   3.613  69.666  1.00  0.00    -0.188 OA 
HETATM   11  O   UNL     1      -8.617   3.015  67.852  1.00  0.00    -0.084 OA 
HETATM   12  C   UNL     1      -8.076   5.335  65.960  1.00  0.00    -0.110 C  
ENDROOT
BRANCH   3  13
HETATM   13  S   UNL     1     -11.285   6.419  69.567  1.00  0.00    -0.394 SA 
BRANCH  13  14
HETATM   14  C   UNL     1     -10.474   6.852  71.154  1.00  0.00    -0.212 C  
HETATM   15  C   UNL     1     -11.412   6.934  72.353  1.00  0.00    -0.259 C  
HETATM   16  N   UNL     1     -12.051   8.229  72.201  1.00  0.00    -0.345 NA 
HETATM   17  C   UNL     1     -11.028   9.178  71.706  1.00  0.00    -0.359 C  
HETATM   18  C   UNL     1      -9.960   8.295  71.049  1.00  0.00    -0.226 C  
HETATM   19  H   UNL     1     -12.509   8.549  73.055  1.00  0.00     0.000 HD 
BRANCH  17  20
HETATM   20  C   UNL     1     -11.729  10.261  70.838  1.00  0.00    -0.379 C  
HETATM   21  O   UNL     1     -12.939  10.460  70.963  1.00  0.00    -0.368 OA 
HETATM   22  N   UNL     1     -10.889  11.025  70.040  1.00  0.00    -0.463 N  
HETATM   23  H   UNL     1      -9.892  10.819  70.097  1.00  0.00     0.000 HD 
BRANCH  22  24
HETATM   24  C   UNL     1     -11.273  12.062  69.152  1.00  0.00    -0.246 A  
HETATM   25  C   UNL     1     -11.561  13.369  69.559  1.00  0.00    -0.352 A  
HETATM   26  C   UNL     1     -11.921  14.353  68.632  1.00  0.00    -0.332 A  
HETATM   27  C   UNL     1     -12.013  14.043  67.280  1.00  0.00    -0.448 A  
HETATM   28  C   UNL     1     -11.761  12.733  66.858  1.00  0.00    -0.447 A  
HETATM   29  C   UNL     1     -11.850  12.349  65.428  1.00  0.00    -0.406 C  
HETATM   30  C   UNL     1     -11.371  11.755  67.790  1.00  0.00    -0.358 A  
HETATM   31  O   UNL     1     -12.798  13.018  64.737  1.00  0.00    -0.708 OA 
HETATM   32  O   UNL     1     -11.154  11.479  64.936  1.00  0.00    -0.284 OA 
ENDBRANCH  22  24
ENDBRANCH  17  20
ENDBRANCH  13  14
ENDBRANCH   3  13
BRANCH   7  33
HETATM   33  C   UNL     1      -7.391   7.427  64.530  1.00  0.00    -0.087 C  
HETATM   34  O   UNL     1      -6.291   6.531  64.377  1.00  0.00    -0.036 OA 
HETATM   35  H   UNL     1      -5.660   6.966  63.815  1.00  0.00     0.000 HD 
HETATM   36  C   UNL     1      -6.900   8.725  65.150  1.00  0.00    -0.075 C  
ENDBRANCH   7  33
TORSDOF 5
ENDMDL
MODEL       59
REMARK 921   NORMALIZED FREE ENERGY PREDICTED BY IDOCK:   -6.51 KCAL/MOL
REMARK 922        TOTAL FREE ENERGY PREDICTED BY IDOCK:  -10.10 KCAL/MOL
REMARK 923 INTER-LIGAND FREE ENERGY PREDICTED BY IDOCK:   -8.26 KCAL/MOL
REMARK 924 INTRA-LIGAND FREE ENERGY PREDICTED BY IDOCK:   -1.84 KCAL/MOL
REMARK 927      BINDING AFFINITY PREDICTED BY RF-SCORE:    0.00 PKD
ROOT
HETATM    1  C   UNL     1      -9.851   6.428  72.036  1.00  0.00    -0.156 C  
HETATM    2  C   UNL     1      -8.942   6.463  70.804  1.00  0.00    -0.144 C  
HETATM    3  C   UNL     1      -9.403   7.719  70.091  1.00  0.00    -0.153 C  
HETATM    4  C   UNL     1      -9.037   5.163  70.017  1.00  0.00    -0.163 C  
HETATM    5  O   UNL     1     -12.971   7.502  72.133  1.00  0.00    -0.204 OA 
HETATM    6  C   UNL     1     -10.368   8.343  70.795  1.00  0.00    -0.195 C  
HETATM    7  C   UNL     1     -11.202   5.650  72.127  1.00  0.00    -0.288 C  
HETATM    8  N   UNL     1     -10.663   7.676  71.979  1.00  0.00    -0.218 N  
HETATM    9  C   UNL     1     -11.022   9.648  70.467  1.00  0.00    -0.313 C  
HETATM   10  O   UNL     1     -10.534  10.496  69.737  1.00  0.00    -0.244 OA 
HETATM   11  O   UNL     1     -12.231   9.835  71.040  1.00  0.00    -0.312 OA 
HETATM   12  C   UNL     1     -11.854   7.034  72.165  1.00  0.00    -0.275 C  
ENDROOT
BRANCH   3  13
HETATM   13  S   UNL     1      -8.545   8.241  68.690  1.00  0.00    -0.133 SA 
BRANCH  13  14
HETATM   14  C   UNL     1      -6.927   8.833  69.317  1.00  0.00    -0.058 C  
HETATM   15  C   UNL     1      -7.003   9.718  70.556  1.00  0.00    -0.126 C  
HETATM   16  N   UNL     1      -7.397  11.013  70.030  1.00  0.00    -0.420 NA 
HETATM   17  C   UNL     1      -6.688  11.208  68.745  1.00  0.00    -0.067 C  
HETATM   18  C   UNL     1      -6.333   9.792  68.274  1.00  0.00    -0.055 C  
HETATM   19  H   UNL     1      -7.238  11.776  70.690  1.00  0.00     0.000 HD 
BRANCH  17  20
HETATM   20  C   UNL     1      -7.568  12.097  67.819  1.00  0.00    -0.131 C  
HETATM   21  O   UNL     1      -7.050  12.716  66.888  1.00  0.00     0.005 OA 
HETATM   22  N   UNL     1      -8.935  12.035  68.054  1.00  0.00    -0.181 N  
HETATM   23  H   UNL     1      -9.243  11.411  68.799  1.00  0.00     0.000 HD 
BRANCH  22  24
HETATM   24  C   UNL     1      -9.947  12.749  67.364  1.00  0.00    -0.212 A  
HETATM   25  C   UNL     1     -10.465  13.976  67.794  1.00  0.00    -0.236 A  
HETATM   26  C   UNL     1     -11.456  14.639  67.062  1.00  0.00    -0.379 A  
HETATM   27  C   UNL     1     -11.956  14.080  65.891  1.00  0.00    -0.424 A  
HETATM   28  C   UNL     1     -11.474  12.838  65.464  1.00  0.00    -0.372 A  
HETATM   29  C   UNL     1     -11.978  12.196  64.225  1.00  0.00    -0.380 C  
HETATM   30  C   UNL     1     -10.458  12.189  66.188  1.00  0.00    -0.281 A  
HETATM   31  O   UNL     1     -13.281  12.441  63.970  1.00  0.00    -0.748 OA 
HETATM   32  O   UNL     1     -11.283  11.480  63.526  1.00  0.00    -0.413 OA 
ENDBRANCH  22  24
ENDBRANCH  17  20
ENDBRANCH  13  14
ENDBRANCH   3  13
BRANCH   7  33
HETATM   33  C   UNL     1     -11.327   4.744  73.336  1.00  0.00    -0.312 C  
HETATM   34  O   UNL     1     -10.796   5.467  74.446  1.00  0.00    -0.402 OA 
HETATM   35  H   UNL     1     -10.875   4.898  75.204  1.00  0.00     0.000 HD 
HETATM   36  C   UNL     1     -10.537   3.458  73.148  1.00  0.00    -0.270 C  
ENDBRANCH   7  33
TORSDOF 5
ENDMDL
MODEL       60
REMARK 921   NORMALIZED FREE ENERGY PREDICTED BY IDOCK:   -6.49 KCAL/MOL
REMARK 922        TOTAL FREE ENERGY PREDICTED BY IDOCK:  -10.07 KCAL/MOL
REMARK 923 INTER-LIGAND FREE ENERGY PREDICTED BY IDOCK:   -8.61 KCAL/MOL
REMARK 924 INTRA-LIGAND FREE ENERGY PREDICTED BY IDOCK:   -1.46 KCAL/MOL
REMARK 927      BINDING AFFINITY PREDICTED BY RF-SCORE:    0.00 PKD
ROOT
HETATM    1  C   UNL     1      -9.240   3.899  69.094  1.00  0.00    -0.156 C  
HETATM    2  C   UNL     1     -10.146   4.582  70.122  1.00  0.00    -0.220 C  
HETATM    3  C   UNL     1     -10.490   5.891  69.439  1.00  0.00    -0.275 C  
HETATM    4  C   UNL     1      -9.456   4.685  71.476  1.00  0.00    -0.214 C  
HETATM    5  O   UNL     1      -7.165   5.453  67.051  1.00  0.00    -0.075 OA 
HETATM    6  C   UNL     1      -9.935   5.951  68.212  1.00  0.00    -0.146 C  
HETATM    7  C   UNL     1      -7.681   3.982  69.082  1.00  0.00    -0.053 C  
HETATM    8  N   UNL     1      -9.219   4.799  67.907  1.00  0.00    -0.117 N  
HETATM    9  C   UNL     1     -10.105   7.038  67.198  1.00  0.00    -0.217 C  
HETATM   10  O   UNL     1     -11.035   7.829  67.189  1.00  0.00    -0.245 OA 
HETATM   11  O   UNL     1      -9.127   7.103  66.268  1.00  0.00    -0.162 OA 
HETATM   12  C   UNL     1      -7.857   4.805  67.804  1.00  0.00    -0.086 C  
ENDROOT
BRANCH   3  13
HETATM   13  S   UNL     1     -11.626   6.947  70.190  1.00  0.00    -0.248 SA 
BRANCH  13  14
HETATM   14  C   UNL     1     -10.613   8.086  71.211  1.00  0.00    -0.209 C  
HETATM   15  C   UNL     1     -11.411   9.059  72.071  1.00  0.00    -0.338 C  
HETATM   16  N   UNL     1     -11.822  10.090  71.133  1.00  0.00    -0.369 NA 
HETATM   17  C   UNL     1     -10.694  10.322  70.202  1.00  0.00    -0.278 C  
HETATM   18  C   UNL     1      -9.862   9.034  70.265  1.00  0.00    -0.227 C  
HETATM   19  H   UNL     1     -12.138  10.943  71.593  1.00  0.00     0.000 HD 
BRANCH  17  20
HETATM   20  C   UNL     1     -11.266  10.766  68.826  1.00  0.00    -0.272 C  
HETATM   21  O   UNL     1     -12.452  11.086  68.727  1.00  0.00    -0.468 OA 
HETATM   22  N   UNL     1     -10.337  10.880  67.800  1.00  0.00    -0.179 N  
HETATM   23  H   UNL     1      -9.368  10.673  68.036  1.00  0.00     0.000 HD 
BRANCH  22  24
HETATM   24  C   UNL     1     -10.597  11.253  66.457  1.00  0.00    -0.266 A  
HETATM   25  C   UNL     1     -10.033  10.614  65.347  1.00  0.00    -0.343 A  
HETATM   26  C   UNL     1     -10.339  11.021  64.045  1.00  0.00    -0.436 A  
HETATM   27  C   UNL     1     -11.208  12.085  63.828  1.00  0.00    -0.516 A  
HETATM   28  C   UNL     1     -11.757  12.757  64.925  1.00  0.00    -0.394 A  
HETATM   29  C   UNL     1     -12.685  13.900  64.749  1.00  0.00    -0.211 C  
HETATM   30  C   UNL     1     -11.467  12.326  66.233  1.00  0.00    -0.435 A  
HETATM   31  O   UNL     1     -12.420  14.662  63.665  1.00  0.00    -0.754 OA 
HETATM   32  O   UNL     1     -13.580  14.149  65.537  1.00  0.00    -0.568 OA 
ENDBRANCH  22  24
ENDBRANCH  17  20
ENDBRANCH  13  14
ENDBRANCH   3  13
BRANCH   7  33
HETATM   33  C   UNL     1      -6.979   2.641  69.003  1.00  0.00    -0.044 C  
HETATM   34  O   UNL     1      -6.782   2.363  67.616  1.00  0.00    -0.038 OA 
HETATM   35  H   UNL     1      -6.342   1.522  67.567  1.00  0.00     0.000 HD 
HETATM   36  C   UNL     1      -7.821   1.537  69.622  1.00  0.00    -0.047 C  
ENDBRANCH   7  33
TORSDOF 5
ENDMDL
MODEL       61
REMARK 921   NORMALIZED FREE ENERGY PREDICTED BY IDOCK:   -6.47 KCAL/MOL
REMARK 922        TOTAL FREE ENERGY PREDICTED BY IDOCK:  -10.05 KCAL/MOL
REMARK 923 INTER-LIGAND FREE ENERGY PREDICTED BY IDOCK:   -8.36 KCAL/MOL
REMARK 924 INTRA-LIGAND FREE ENERGY PREDICTED BY IDOCK:   -1.69 KCAL/MOL
REMARK 927      BINDING AFFINITY PREDICTED BY RF-SCORE:    0.00 PKD
ROOT
HETATM    1  C   UNL     1      -9.216   9.077  65.808  1.00  0.00    -0.232 C  
HETATM    2  C   UNL     1      -9.099   9.951  67.059  1.00  0.00    -0.156 C  
HETATM    3  C   UNL     1      -9.529  11.312  66.551  1.00  0.00    -0.193 C  
HETATM    4  C   UNL     1      -7.703   9.862  67.660  1.00  0.00    -0.091 C  
HETATM    5  O   UNL     1      -8.663  10.091  62.716  1.00  0.00    -0.166 OA 
HETATM    6  C   UNL     1      -9.887  11.248  65.252  1.00  0.00    -0.246 C  
HETATM    7  C   UNL     1      -8.046   8.769  64.821  1.00  0.00    -0.151 C  
HETATM    8  N   UNL     1      -9.778   9.958  64.746  1.00  0.00    -0.292 N  
HETATM    9  C   UNL     1     -10.442  12.356  64.414  1.00  0.00    -0.344 C  
HETATM   10  O   UNL     1     -10.983  13.353  64.865  1.00  0.00    -0.311 OA 
HETATM   11  O   UNL     1     -10.294  12.187  63.082  1.00  0.00    -0.389 OA 
HETATM   12  C   UNL     1      -8.827   9.626  63.822  1.00  0.00    -0.231 C  
ENDROOT
BRANCH   3  13
HETATM   13  S   UNL     1      -9.686  12.609  67.676  1.00  0.00    -0.202 SA 
BRANCH  13  14
HETATM   14  C   UNL     1     -11.482  12.710  68.036  1.00  0.00    -0.318 C  
HETATM   15  C   UNL     1     -11.830  13.256  69.416  1.00  0.00    -0.329 C  
HETATM   16  N   UNL     1     -11.606  12.126  70.300  1.00  0.00    -0.529 NA 
HETATM   17  C   UNL     1     -12.070  10.909  69.595  1.00  0.00    -0.329 C  
HETATM   18  C   UNL     1     -12.036  11.280  68.107  1.00  0.00    -0.182 C  
HETATM   19  H   UNL     1     -12.040  12.244  71.215  1.00  0.00     0.000 HD 
BRANCH  17  20
HETATM   20  C   UNL     1     -11.219   9.699  70.076  1.00  0.00    -0.231 C  
HETATM   21  O   UNL     1     -10.049   9.870  70.424  1.00  0.00    -0.267 OA 
HETATM   22  N   UNL     1     -11.900   8.494  70.185  1.00  0.00    -0.406 N  
HETATM   23  H   UNL     1     -12.892   8.507  69.952  1.00  0.00     0.000 HD 
BRANCH  22  24
HETATM   24  C   UNL     1     -11.359   7.246  70.586  1.00  0.00    -0.284 A  
HETATM   25  C   UNL     1     -11.375   6.778  71.905  1.00  0.00    -0.306 A  
HETATM   26  C   UNL     1     -10.836   5.530  72.236  1.00  0.00    -0.297 A  
HETATM   27  C   UNL     1     -10.258   4.732  71.255  1.00  0.00    -0.229 A  
HETATM   28  C   UNL     1     -10.204   5.198  69.937  1.00  0.00    -0.361 A  
HETATM   29  C   UNL     1      -9.594   4.389  68.854  1.00  0.00    -0.163 C  
HETATM   30  C   UNL     1     -10.772   6.441  69.603  1.00  0.00    -0.339 A  
HETATM   31  O   UNL     1      -8.550   3.631  69.254  1.00  0.00    -0.067 OA 
HETATM   32  O   UNL     1      -9.980   4.437  67.698  1.00  0.00    -0.141 OA 
ENDBRANCH  22  24
ENDBRANCH  17  20
ENDBRANCH  13  14
ENDBRANCH   3  13
BRANCH   7  33
HETATM   33  C   UNL     1      -7.841   7.297  64.524  1.00  0.00    -0.121 C  
HETATM   34  O   UNL     1      -8.387   7.060  63.227  1.00  0.00    -0.339 OA 
HETATM   35  H   UNL     1      -8.259   6.137  63.041  1.00  0.00     0.000 HD 
HETATM   36  C   UNL     1      -8.561   6.423  65.539  1.00  0.00    -0.115 C  
ENDBRANCH   7  33
TORSDOF 5
ENDMDL
MODEL       62
REMARK 921   NORMALIZED FREE ENERGY PREDICTED BY IDOCK:   -6.47 KCAL/MOL
REMARK 922        TOTAL FREE ENERGY PREDICTED BY IDOCK:  -10.04 KCAL/MOL
REMARK 923 INTER-LIGAND FREE ENERGY PREDICTED BY IDOCK:   -8.81 KCAL/MOL
REMARK 924 INTRA-LIGAND FREE ENERGY PREDICTED BY IDOCK:   -1.23 KCAL/MOL
REMARK 927      BINDING AFFINITY PREDICTED BY RF-SCORE:    0.00 PKD
ROOT
HETATM    1  C   UNL     1      -8.038   6.315  70.686  1.00  0.00    -0.113 C  
HETATM    2  C   UNL     1      -9.287   6.980  70.101  1.00  0.00    -0.162 C  
HETATM    3  C   UNL     1     -10.406   6.319  70.881  1.00  0.00    -0.205 C  
HETATM    4  C   UNL     1      -9.331   6.823  68.587  1.00  0.00    -0.131 C  
HETATM    5  O   UNL     1      -7.868   3.205  71.779  1.00  0.00    -0.055 OA 
HETATM    6  C   UNL     1      -9.912   5.462  71.796  1.00  0.00    -0.183 C  
HETATM    7  C   UNL     1      -7.334   5.054  70.090  1.00  0.00    -0.059 C  
HETATM    8  N   UNL     1      -8.522   5.430  71.783  1.00  0.00    -0.125 N  
HETATM    9  C   UNL     1     -10.686   4.680  72.809  1.00  0.00    -0.204 C  
HETATM   10  O   UNL     1     -11.808   4.972  73.191  1.00  0.00    -0.279 OA 
HETATM   11  O   UNL     1     -10.052   3.586  73.286  1.00  0.00    -0.123 OA 
HETATM   12  C   UNL     1      -7.832   4.336  71.346  1.00  0.00    -0.080 C  
ENDROOT
BRANCH   3  13
HETATM   13  S   UNL     1     -12.022   6.872  70.646  1.00  0.00    -0.291 SA 
BRANCH  13  14
HETATM   14  C   UNL     1     -12.280   8.149  71.937  1.00  0.00    -0.331 C  
HETATM   15  C   UNL     1     -13.591   8.918  71.826  1.00  0.00    -0.412 C  
HETATM   16  N   UNL     1     -13.337   9.882  70.770  1.00  0.00    -0.605 NA 
HETATM   17  C   UNL     1     -11.945  10.361  70.927  1.00  0.00    -0.377 C  
HETATM   18  C   UNL     1     -11.238   9.258  71.726  1.00  0.00    -0.413 C  
HETATM   19  H   UNL     1     -14.018  10.641  70.752  1.00  0.00     0.000 HD 
BRANCH  17  20
HETATM   20  C   UNL     1     -11.384  10.734  69.525  1.00  0.00    -0.289 C  
HETATM   21  O   UNL     1     -10.981   9.849  68.769  1.00  0.00    -0.223 OA 
HETATM   22  N   UNL     1     -11.485  12.074  69.178  1.00  0.00    -0.277 N  
HETATM   23  H   UNL     1     -11.924  12.692  69.860  1.00  0.00     0.000 HD 
BRANCH  22  24
HETATM   24  C   UNL     1     -11.043  12.674  67.971  1.00  0.00    -0.251 A  
HETATM   25  C   UNL     1      -9.801  13.301  67.823  1.00  0.00    -0.224 A  
HETATM   26  C   UNL     1      -9.416  13.864  66.601  1.00  0.00    -0.296 A  
HETATM   27  C   UNL     1     -10.274  13.821  65.508  1.00  0.00    -0.332 A  
HETATM   28  C   UNL     1     -11.533  13.227  65.646  1.00  0.00    -0.342 A  
HETATM   29  C   UNL     1     -12.487  13.160  64.513  1.00  0.00    -0.342 C  
HETATM   30  C   UNL     1     -11.904  12.638  66.869  1.00  0.00    -0.425 A  
HETATM   31  O   UNL     1     -12.424  14.219  63.677  1.00  0.00    -0.816 OA 
HETATM   32  O   UNL     1     -13.282  12.246  64.375  1.00  0.00    -0.806 OA 
ENDBRANCH  22  24
ENDBRANCH  17  20
ENDBRANCH  13  14
ENDBRANCH   3  13
BRANCH   7  33
HETATM   33  C   UNL     1      -5.842   5.209  69.872  1.00  0.00    -0.017 C  
HETATM   34  O   UNL     1      -5.249   3.950  70.190  1.00  0.00    -0.003 OA 
HETATM   35  H   UNL     1      -4.314   4.047  70.053  1.00  0.00     0.000 HD 
HETATM   36  C   UNL     1      -5.258   6.282  70.778  1.00  0.00    -0.014 C  
ENDBRANCH   7  33
TORSDOF 5
ENDMDL
MODEL       63
REMARK 921   NORMALIZED FREE ENERGY PREDICTED BY IDOCK:   -6.45 KCAL/MOL
REMARK 922        TOTAL FREE ENERGY PREDICTED BY IDOCK:  -10.02 KCAL/MOL
REMARK 923 INTER-LIGAND FREE ENERGY PREDICTED BY IDOCK:   -8.86 KCAL/MOL
REMARK 924 INTRA-LIGAND FREE ENERGY PREDICTED BY IDOCK:   -1.16 KCAL/MOL
REMARK 927      BINDING AFFINITY PREDICTED BY RF-SCORE:    0.00 PKD
ROOT
HETATM    1  C   UNL     1     -12.245  12.860  65.964  1.00  0.00    -0.366 C  
HETATM    2  C   UNL     1     -11.975  11.937  67.155  1.00  0.00    -0.045 C  
HETATM    3  C   UNL     1     -11.658  12.917  68.267  1.00  0.00    -0.335 C  
HETATM    4  C   UNL     1     -10.893  10.918  66.822  1.00  0.00    -0.283 C  
HETATM    5  O   UNL     1     -10.763  15.761  65.428  1.00  0.00    -0.368 OA 
HETATM    6  C   UNL     1     -11.772  14.188  67.832  1.00  0.00    -0.367 C  
HETATM    7  C   UNL     1     -11.179  13.289  64.906  1.00  0.00    -0.338 C  
HETATM    8  N   UNL     1     -12.159  14.249  66.498  1.00  0.00    -0.441 N  
HETATM    9  C   UNL     1     -11.620  15.435  68.643  1.00  0.00    -0.359 C  
HETATM   10  O   UNL     1     -11.732  15.482  69.858  1.00  0.00    -0.303 OA 
HETATM   11  O   UNL     1     -11.331  16.545  67.928  1.00  0.00    -0.218 OA 
HETATM   12  C   UNL     1     -11.309  14.684  65.522  1.00  0.00    -0.341 C  
ENDROOT
BRANCH   3  13
HETATM   13  S   UNL     1     -11.419  12.314  69.864  1.00  0.00    -0.025 SA 
BRANCH  13  14
HETATM   14  C   UNL     1     -13.099  11.904  70.474  1.00  0.00     0.441 C  
HETATM   15  C   UNL     1     -13.277  12.007  71.984  1.00  0.00    -0.375 C  
HETATM   16  N   UNL     1     -12.677  10.782  72.485  1.00  0.00     0.196 NA 
HETATM   17  C   UNL     1     -13.026   9.695  71.542  1.00  0.00    -0.395 C  
HETATM   18  C   UNL     1     -13.346  10.410  70.222  1.00  0.00     0.257 C  
HETATM   19  H   UNL     1     -12.944  10.573  73.447  1.00  0.00     0.000 HD 
BRANCH  17  20
HETATM   20  C   UNL     1     -11.884   8.639  71.553  1.00  0.00    -0.306 C  
HETATM   21  O   UNL     1     -10.807   8.904  72.091  1.00  0.00    -0.355 OA 
HETATM   22  N   UNL     1     -12.215   7.394  71.035  1.00  0.00    -0.434 N  
HETATM   23  H   UNL     1     -13.172   7.277  70.704  1.00  0.00     0.000 HD 
BRANCH  22  24
HETATM   24  C   UNL     1     -11.361   6.268  70.919  1.00  0.00    -0.325 A  
HETATM   25  C   UNL     1     -10.771   5.858  69.719  1.00  0.00    -0.411 A  
HETATM   26  C   UNL     1      -9.925   4.745  69.672  1.00  0.00    -0.297 A  
HETATM   27  C   UNL     1      -9.664   4.013  70.824  1.00  0.00    -0.263 A  
HETATM   28  C   UNL     1     -10.271   4.388  72.027  1.00  0.00    -0.233 A  
HETATM   29  C   UNL     1     -10.030   3.638  73.284  1.00  0.00    -0.129 C  
HETATM   30  C   UNL     1     -11.098   5.525  72.076  1.00  0.00    -0.249 A  
HETATM   31  O   UNL     1      -9.846   2.312  73.106  1.00  0.00    -0.097 OA 
HETATM   32  O   UNL     1     -10.038   4.170  74.380  1.00  0.00    -0.148 OA 
ENDBRANCH  22  24
ENDBRANCH  17  20
ENDBRANCH  13  14
ENDBRANCH   3  13
BRANCH   7  33
HETATM   33  C   UNL     1     -11.601  13.078  63.466  1.00  0.00    -0.412 C  
HETATM   34  O   UNL     1     -12.403  14.202  63.104  1.00  0.00    -1.125 OA 
HETATM   35  H   UNL     1     -12.667  14.070  62.201  1.00  0.00     0.000 HD 
HETATM   36  C   UNL     1     -12.420  11.806  63.309  1.00  0.00    -0.411 C  
ENDBRANCH   7  33
TORSDOF 5
ENDMDL
MODEL       64
REMARK 921   NORMALIZED FREE ENERGY PREDICTED BY IDOCK:   -6.45 KCAL/MOL
REMARK 922        TOTAL FREE ENERGY PREDICTED BY IDOCK:  -10.02 KCAL/MOL
REMARK 923 INTER-LIGAND FREE ENERGY PREDICTED BY IDOCK:   -8.23 KCAL/MOL
REMARK 924 INTRA-LIGAND FREE ENERGY PREDICTED BY IDOCK:   -1.79 KCAL/MOL
REMARK 927      BINDING AFFINITY PREDICTED BY RF-SCORE:    0.00 PKD
ROOT
HETATM    1  C   UNL     1      -8.338   9.430  67.642  1.00  0.00    -0.119 C  
HETATM    2  C   UNL     1      -9.718   8.920  68.065  1.00  0.00    -0.181 C  
HETATM    3  C   UNL     1      -9.389   7.606  68.745  1.00  0.00    -0.148 C  
HETATM    4  C   UNL     1     -10.664   8.849  66.874  1.00  0.00    -0.153 C  
HETATM    5  O   UNL     1      -5.800   7.527  66.728  1.00  0.00    -0.036 OA 
HETATM    6  C   UNL     1      -8.056   7.399  68.768  1.00  0.00    -0.128 C  
HETATM    7  C   UNL     1      -7.687   9.189  66.243  1.00  0.00    -0.096 C  
HETATM    8  N   UNL     1      -7.357   8.447  68.181  1.00  0.00    -0.094 N  
HETATM    9  C   UNL     1      -7.332   6.263  69.417  1.00  0.00    -0.091 C  
HETATM   10  O   UNL     1      -7.797   5.572  70.310  1.00  0.00    -0.089 OA 
HETATM   11  O   UNL     1      -6.092   6.031  68.933  1.00  0.00    -0.028 OA 
HETATM   12  C   UNL     1      -6.697   8.296  66.995  1.00  0.00    -0.062 C  
ENDROOT
BRANCH   3  13
HETATM   13  S   UNL     1     -10.655   6.728  69.516  1.00  0.00    -0.248 SA 
BRANCH  13  14
HETATM   14  C   UNL     1     -10.485   7.118  71.300  1.00  0.00    -0.205 C  
HETATM   15  C   UNL     1     -11.751   6.916  72.125  1.00  0.00    -0.288 C  
HETATM   16  N   UNL     1     -12.545   8.096  71.831  1.00  0.00    -0.322 NA 
HETATM   17  C   UNL     1     -11.619   9.248  71.747  1.00  0.00    -0.388 C  
HETATM   18  C   UNL     1     -10.250   8.629  71.438  1.00  0.00    -0.324 C  
HETATM   19  H   UNL     1     -13.302   8.243  72.500  1.00  0.00     0.000 HD 
BRANCH  17  20
HETATM   20  C   UNL     1     -12.204  10.287  70.747  1.00  0.00    -0.350 C  
HETATM   21  O   UNL     1     -13.404  10.260  70.465  1.00  0.00    -0.253 OA 
HETATM   22  N   UNL     1     -11.322  11.269  70.319  1.00  0.00    -0.491 N  
HETATM   23  H   UNL     1     -10.377  11.232  70.700  1.00  0.00     0.000 HD 
BRANCH  22  24
HETATM   24  C   UNL     1     -11.597  12.318  69.406  1.00  0.00    -0.314 A  
HETATM   25  C   UNL     1     -11.865  13.636  69.792  1.00  0.00    -0.392 A  
HETATM   26  C   UNL     1     -12.117  14.632  68.842  1.00  0.00    -0.251 A  
HETATM   27  C   UNL     1     -12.117  14.324  67.486  1.00  0.00    -0.347 A  
HETATM   28  C   UNL     1     -11.882  13.005  67.083  1.00  0.00    -0.431 A  
HETATM   29  C   UNL     1     -11.877  12.623  65.650  1.00  0.00    -0.437 C  
HETATM   30  C   UNL     1     -11.603  12.013  68.040  1.00  0.00    -0.407 A  
HETATM   31  O   UNL     1     -12.743  13.326  64.889  1.00  0.00    -0.635 OA 
HETATM   32  O   UNL     1     -11.178  11.726  65.210  1.00  0.00    -0.307 OA 
ENDBRANCH  22  24
ENDBRANCH  17  20
ENDBRANCH  13  14
ENDBRANCH   3  13
BRANCH   7  33
HETATM   33  C   UNL     1      -7.175  10.443  65.561  1.00  0.00    -0.138 C  
HETATM   34  O   UNL     1      -8.196  11.431  65.702  1.00  0.00    -0.369 OA 
HETATM   35  H   UNL     1      -7.875  12.217  65.274  1.00  0.00     0.000 HD 
HETATM   36  C   UNL     1      -6.910  10.201  64.084  1.00  0.00    -0.102 C  
ENDBRANCH   7  33
TORSDOF 5
ENDMDL
MODEL       65
REMARK 921   NORMALIZED FREE ENERGY PREDICTED BY IDOCK:   -6.45 KCAL/MOL
REMARK 922        TOTAL FREE ENERGY PREDICTED BY IDOCK:  -10.02 KCAL/MOL
REMARK 923 INTER-LIGAND FREE ENERGY PREDICTED BY IDOCK:   -9.31 KCAL/MOL
REMARK 924 INTRA-LIGAND FREE ENERGY PREDICTED BY IDOCK:   -0.71 KCAL/MOL
REMARK 927      BINDING AFFINITY PREDICTED BY RF-SCORE:    0.00 PKD
ROOT
HETATM    1  C   UNL     1      -9.079   5.824  67.078  1.00  0.00    -0.114 C  
HETATM    2  C   UNL     1      -9.400   7.098  67.864  1.00  0.00    -0.128 C  
HETATM    3  C   UNL     1      -9.128   6.680  69.295  1.00  0.00    -0.138 C  
HETATM    4  C   UNL     1     -10.808   7.590  67.557  1.00  0.00    -0.232 C  
HETATM    5  O   UNL     1      -9.556   2.744  68.167  1.00  0.00    -0.196 OA 
HETATM    6  C   UNL     1      -8.678   5.411  69.346  1.00  0.00    -0.105 C  
HETATM    7  C   UNL     1     -10.126   4.740  66.668  1.00  0.00    -0.276 C  
HETATM    8  N   UNL     1      -8.574   4.844  68.081  1.00  0.00    -0.102 N  
HETATM    9  C   UNL     1      -8.226   4.663  70.560  1.00  0.00    -0.085 C  
HETATM   10  O   UNL     1      -7.859   5.193  71.596  1.00  0.00    -0.103 OA 
HETATM   11  O   UNL     1      -8.258   3.317  70.441  1.00  0.00    -0.051 OA 
HETATM   12  C   UNL     1      -9.405   3.839  67.672  1.00  0.00    -0.195 C  
ENDROOT
BRANCH   3  13
HETATM   13  S   UNL     1      -9.228   7.867  70.541  1.00  0.00    -0.158 SA 
BRANCH  13  14
HETATM   14  C   UNL     1     -10.477   7.217  71.717  1.00  0.00    -0.197 C  
HETATM   15  C   UNL     1     -11.673   6.530  71.069  1.00  0.00    -0.343 C  
HETATM   16  N   UNL     1     -12.506   7.635  70.627  1.00  0.00    -0.521 NA 
HETATM   17  C   UNL     1     -12.440   8.688  71.666  1.00  0.00    -0.335 C  
HETATM   18  C   UNL     1     -11.135   8.411  72.422  1.00  0.00    -0.431 C  
HETATM   19  H   UNL     1     -13.461   7.351  70.409  1.00  0.00     0.000 HD 
BRANCH  17  20
HETATM   20  C   UNL     1     -12.621  10.074  70.984  1.00  0.00    -0.367 C  
HETATM   21  O   UNL     1     -13.400  10.899  71.465  1.00  0.00    -0.328 OA 
HETATM   22  N   UNL     1     -11.779  10.327  69.910  1.00  0.00    -0.372 N  
HETATM   23  H   UNL     1     -11.113   9.594  69.668  1.00  0.00     0.000 HD 
BRANCH  22  24
HETATM   24  C   UNL     1     -11.747  11.500  69.113  1.00  0.00    -0.329 A  
HETATM   25  C   UNL     1     -11.555  11.496  67.727  1.00  0.00    -0.338 A  
HETATM   26  C   UNL     1     -11.548  12.687  66.995  1.00  0.00    -0.431 A  
HETATM   27  C   UNL     1     -11.719  13.908  67.638  1.00  0.00    -0.403 A  
HETATM   28  C   UNL     1     -11.880  13.934  69.027  1.00  0.00    -0.397 A  
HETATM   29  C   UNL     1     -12.062  15.210  69.762  1.00  0.00    -0.319 C  
HETATM   30  C   UNL     1     -11.915  12.732  69.756  1.00  0.00    -0.362 A  
HETATM   31  O   UNL     1     -11.392  16.253  69.227  1.00  0.00    -0.325 OA 
HETATM   32  O   UNL     1     -12.726  15.294  70.781  1.00  0.00    -0.375 OA 
ENDBRANCH  22  24
ENDBRANCH  17  20
ENDBRANCH  13  14
ENDBRANCH   3  13
BRANCH   7  33
HETATM   33  C   UNL     1     -10.105   4.369  65.198  1.00  0.00    -0.176 C  
HETATM   34  O   UNL     1     -11.462   4.159  64.809  1.00  0.00    -0.923 OA 
HETATM   35  H   UNL     1     -11.449   3.926  63.887  1.00  0.00     0.000 HD 
HETATM   36  C   UNL     1      -9.312   3.093  64.961  1.00  0.00    -0.148 C  
ENDBRANCH   7  33
TORSDOF 5
ENDMDL
MODEL       66
REMARK 921   NORMALIZED FREE ENERGY PREDICTED BY IDOCK:   -6.44 KCAL/MOL
REMARK 922        TOTAL FREE ENERGY PREDICTED BY IDOCK:  -10.00 KCAL/MOL
REMARK 923 INTER-LIGAND FREE ENERGY PREDICTED BY IDOCK:   -8.37 KCAL/MOL
REMARK 924 INTRA-LIGAND FREE ENERGY PREDICTED BY IDOCK:   -1.63 KCAL/MOL
REMARK 927      BINDING AFFINITY PREDICTED BY RF-SCORE:    0.00 PKD
ROOT
HETATM    1  C   UNL     1      -9.076   4.038  67.368  1.00  0.00    -0.150 C  
HETATM    2  C   UNL     1      -9.877   4.235  68.658  1.00  0.00    -0.118 C  
HETATM    3  C   UNL     1     -10.205   5.714  68.618  1.00  0.00    -0.200 C  
HETATM    4  C   UNL     1      -9.093   3.747  69.868  1.00  0.00    -0.188 C  
HETATM    5  O   UNL     1      -7.075   6.282  66.005  1.00  0.00    -0.064 OA 
HETATM    6  C   UNL     1      -9.734   6.280  67.489  1.00  0.00    -0.117 C  
HETATM    7  C   UNL     1      -7.519   4.097  67.266  1.00  0.00    -0.073 C  
HETATM    8  N   UNL     1      -9.094   5.355  66.671  1.00  0.00    -0.121 N  
HETATM    9  C   UNL     1      -9.921   7.695  67.043  1.00  0.00    -0.240 C  
HETATM   10  O   UNL     1     -10.812   8.428  67.442  1.00  0.00    -0.213 OA 
HETATM   11  O   UNL     1      -9.007   8.134  66.149  1.00  0.00    -0.161 OA 
HETATM   12  C   UNL     1      -7.743   5.385  66.471  1.00  0.00    -0.099 C  
ENDROOT
BRANCH   3  13
HETATM   13  S   UNL     1     -11.238   6.370  69.833  1.00  0.00    -0.437 SA 
BRANCH  13  14
HETATM   14  C   UNL     1     -10.104   7.040  71.109  1.00  0.00    -0.187 C  
HETATM   15  C   UNL     1     -10.771   7.416  72.427  1.00  0.00    -0.253 C  
HETATM   16  N   UNL     1     -11.389   8.700  72.146  1.00  0.00    -0.359 NA 
HETATM   17  C   UNL     1     -10.462   9.462  71.279  1.00  0.00    -0.315 C  
HETATM   18  C   UNL     1      -9.580   8.397  70.616  1.00  0.00    -0.195 C  
HETATM   19  H   UNL     1     -11.651   9.209  72.990  1.00  0.00     0.000 HD 
BRANCH  17  20
HETATM   20  C   UNL     1     -11.295  10.406  70.365  1.00  0.00    -0.337 C  
HETATM   21  O   UNL     1     -12.524  10.317  70.348  1.00  0.00    -0.276 OA 
HETATM   22  N   UNL     1     -10.572  11.386  69.699  1.00  0.00    -0.447 N  
HETATM   23  H   UNL     1      -9.567  11.409  69.871  1.00  0.00     0.000 HD 
BRANCH  22  24
HETATM   24  C   UNL     1     -11.085  12.358  68.803  1.00  0.00    -0.262 A  
HETATM   25  C   UNL     1     -11.419  13.664  69.179  1.00  0.00    -0.346 A  
HETATM   26  C   UNL     1     -11.909  14.582  68.245  1.00  0.00    -0.347 A  
HETATM   27  C   UNL     1     -12.085  14.207  66.917  1.00  0.00    -0.466 A  
HETATM   28  C   UNL     1     -11.786  12.897  66.530  1.00  0.00    -0.473 A  
HETATM   29  C   UNL     1     -11.961  12.444  65.128  1.00  0.00    -0.400 C  
HETATM   30  C   UNL     1     -11.268  11.985  67.467  1.00  0.00    -0.357 A  
HETATM   31  O   UNL     1     -12.998  13.025  64.488  1.00  0.00    -0.707 OA 
HETATM   32  O   UNL     1     -11.253  11.594  64.618  1.00  0.00    -0.308 OA 
ENDBRANCH  22  24
ENDBRANCH  17  20
ENDBRANCH  13  14
ENDBRANCH   3  13
BRANCH   7  33
HETATM   33  C   UNL     1      -6.887   2.906  66.574  1.00  0.00    -0.052 C  
HETATM   34  O   UNL     1      -6.422   3.368  65.305  1.00  0.00    -0.034 OA 
HETATM   35  H   UNL     1      -6.026   2.621  64.872  1.00  0.00     0.000 HD 
HETATM   36  C   UNL     1      -7.896   1.788  66.363  1.00  0.00    -0.071 C  
ENDBRANCH   7  33
TORSDOF 5
ENDMDL
MODEL       67
REMARK 921   NORMALIZED FREE ENERGY PREDICTED BY IDOCK:   -6.41 KCAL/MOL
REMARK 922        TOTAL FREE ENERGY PREDICTED BY IDOCK:   -9.97 KCAL/MOL
REMARK 923 INTER-LIGAND FREE ENERGY PREDICTED BY IDOCK:   -9.31 KCAL/MOL
REMARK 924 INTRA-LIGAND FREE ENERGY PREDICTED BY IDOCK:   -0.66 KCAL/MOL
REMARK 927      BINDING AFFINITY PREDICTED BY RF-SCORE:    0.00 PKD
ROOT
HETATM    1  C   UNL     1      -8.015   5.120  71.190  1.00  0.00    -0.103 C  
HETATM    2  C   UNL     1      -9.506   5.058  70.849  1.00  0.00    -0.222 C  
HETATM    3  C   UNL     1      -9.888   6.523  70.779  1.00  0.00    -0.184 C  
HETATM    4  C   UNL     1     -10.263   4.208  71.859  1.00  0.00    -0.180 C  
HETATM    5  O   UNL     1      -6.580   7.438  73.053  1.00  0.00    -0.063 OA 
HETATM    6  C   UNL     1      -8.813   7.310  70.987  1.00  0.00    -0.144 C  
HETATM    7  C   UNL     1      -7.426   5.057  72.635  1.00  0.00    -0.095 C  
HETATM    8  N   UNL     1      -7.656   6.567  71.191  1.00  0.00    -0.089 N  
HETATM    9  C   UNL     1      -8.762   8.803  70.919  1.00  0.00    -0.194 C  
HETATM   10  O   UNL     1      -9.575   9.492  70.322  1.00  0.00    -0.233 OA 
HETATM   11  O   UNL     1      -7.733   9.366  71.591  1.00  0.00    -0.294 OA 
HETATM   12  C   UNL     1      -7.038   6.520  72.409  1.00  0.00    -0.077 C  
ENDROOT
BRANCH   3  13
HETATM   13  S   UNL     1     -11.482   6.943  70.275  1.00  0.00    -0.306 SA 
BRANCH  13  14
HETATM   14  C   UNL     1     -12.495   6.881  71.803  1.00  0.00    -0.356 C  
HETATM   15  C   UNL     1     -14.002   6.898  71.575  1.00  0.00    -0.148 C  
HETATM   16  N   UNL     1     -14.293   8.296  71.308  1.00  0.00    -0.648 NA 
HETATM   17  C   UNL     1     -13.441   9.110  72.205  1.00  0.00    -0.486 C  
HETATM   18  C   UNL     1     -12.272   8.189  72.576  1.00  0.00    -0.335 C  
HETATM   19  H   UNL     1     -15.286   8.519  71.394  1.00  0.00     0.000 HD 
BRANCH  17  20
HETATM   20  C   UNL     1     -13.125  10.461  71.503  1.00  0.00    -0.431 C  
HETATM   21  O   UNL     1     -12.757  10.471  70.326  1.00  0.00    -0.310 OA 
HETATM   22  N   UNL     1     -13.396  11.601  72.247  1.00  0.00    -0.546 N  
HETATM   23  H   UNL     1     -13.785  11.456  73.179  1.00  0.00     0.000 HD 
BRANCH  22  24
HETATM   24  C   UNL     1     -13.189  12.945  71.848  1.00  0.00    -0.423 A  
HETATM   25  C   UNL     1     -13.732  14.049  72.515  1.00  0.00    -0.651 A  
HETATM   26  C   UNL     1     -13.479  15.354  72.079  1.00  0.00    -0.564 A  
HETATM   27  C   UNL     1     -12.688  15.578  70.958  1.00  0.00    -0.526 A  
HETATM   28  C   UNL     1     -12.164  14.486  70.259  1.00  0.00    -0.391 A  
HETATM   29  C   UNL     1     -11.318  14.671  69.054  1.00  0.00    -0.277 C  
HETATM   30  C   UNL     1     -12.397  13.177  70.717  1.00  0.00    -0.404 A  
HETATM   31  O   UNL     1     -11.655  15.742  68.305  1.00  0.00    -0.361 OA 
HETATM   32  O   UNL     1     -10.425  13.898  68.752  1.00  0.00    -0.237 OA 
ENDBRANCH  22  24
ENDBRANCH  17  20
ENDBRANCH  13  14
ENDBRANCH   3  13
BRANCH   7  33
HETATM   33  C   UNL     1      -6.331   4.026  72.825  1.00  0.00    -0.017 C  
HETATM   34  O   UNL     1      -5.548   4.459  73.938  1.00  0.00    -0.008 OA 
HETATM   35  H   UNL     1      -4.862   3.812  74.056  1.00  0.00     0.000 HD 
HETATM   36  C   UNL     1      -5.442   3.929  71.594  1.00  0.00    -0.007 C  
ENDBRANCH   7  33
TORSDOF 5
ENDMDL
MODEL       68
REMARK 921   NORMALIZED FREE ENERGY PREDICTED BY IDOCK:   -6.40 KCAL/MOL
REMARK 922        TOTAL FREE ENERGY PREDICTED BY IDOCK:   -9.95 KCAL/MOL
REMARK 923 INTER-LIGAND FREE ENERGY PREDICTED BY IDOCK:   -9.28 KCAL/MOL
REMARK 924 INTRA-LIGAND FREE ENERGY PREDICTED BY IDOCK:   -0.67 KCAL/MOL
REMARK 927      BINDING AFFINITY PREDICTED BY RF-SCORE:    0.00 PKD
ROOT
HETATM    1  C   UNL     1      -9.400   3.570  69.862  1.00  0.00    -0.177 C  
HETATM    2  C   UNL     1      -9.745   4.830  70.662  1.00  0.00    -0.271 C  
HETATM    3  C   UNL     1     -10.170   5.801  69.579  1.00  0.00    -0.239 C  
HETATM    4  C   UNL     1      -8.574   5.259  71.536  1.00  0.00    -0.132 C  
HETATM    5  O   UNL     1      -8.120   3.536  66.819  1.00  0.00    -0.090 OA 
HETATM    6  C   UNL     1     -10.137   5.212  68.367  1.00  0.00    -0.138 C  
HETATM    7  C   UNL     1      -7.972   3.198  69.353  1.00  0.00    -0.058 C  
HETATM    8  N   UNL     1      -9.739   3.883  68.444  1.00  0.00    -0.099 N  
HETATM    9  C   UNL     1     -10.559   5.811  67.062  1.00  0.00    -0.300 C  
HETATM   10  O   UNL     1     -11.318   6.760  66.956  1.00  0.00    -0.337 OA 
HETATM   11  O   UNL     1     -10.022   5.223  65.970  1.00  0.00    -0.164 OA 
HETATM   12  C   UNL     1      -8.535   3.463  67.955  1.00  0.00    -0.090 C  
ENDROOT
BRANCH   3  13
HETATM   13  S   UNL     1     -10.789   7.342  70.041  1.00  0.00    -0.241 SA 
BRANCH  13  14
HETATM   14  C   UNL     1     -11.645   7.052  71.636  1.00  0.00    -0.285 C  
HETATM   15  C   UNL     1     -13.128   6.717  71.518  1.00  0.00    -0.182 C  
HETATM   16  N   UNL     1     -13.754   8.008  71.291  1.00  0.00    -0.572 NA 
HETATM   17  C   UNL     1     -13.051   9.001  72.135  1.00  0.00    -0.435 C  
HETATM   18  C   UNL     1     -11.676   8.378  72.409  1.00  0.00    -0.452 C  
HETATM   19  H   UNL     1     -14.762   7.995  71.451  1.00  0.00     0.000 HD 
BRANCH  17  20
HETATM   20  C   UNL     1     -13.109  10.386  71.430  1.00  0.00    -0.413 C  
HETATM   21  O   UNL     1     -13.192  10.447  70.202  1.00  0.00    -0.086 OA 
HETATM   22  N   UNL     1     -13.175  11.486  72.275  1.00  0.00    -0.506 N  
HETATM   23  H   UNL     1     -13.190  11.292  73.276  1.00  0.00     0.000 HD 
BRANCH  22  24
HETATM   24  C   UNL     1     -13.225  12.849  71.891  1.00  0.00    -0.423 A  
HETATM   25  C   UNL     1     -14.125  13.777  72.426  1.00  0.00    -0.593 A  
HETATM   26  C   UNL     1     -14.116  15.115  72.015  1.00  0.00    -0.659 A  
HETATM   27  C   UNL     1     -13.212  15.546  71.051  1.00  0.00    -0.539 A  
HETATM   28  C   UNL     1     -12.325  14.625  70.481  1.00  0.00    -0.400 A  
HETATM   29  C   UNL     1     -11.345  15.033  69.445  1.00  0.00    -0.297 C  
HETATM   30  C   UNL     1     -12.320  13.288  70.917  1.00  0.00    -0.413 A  
HETATM   31  O   UNL     1     -11.786  16.011  68.625  1.00  0.00    -0.382 OA 
HETATM   32  O   UNL     1     -10.255  14.501  69.325  1.00  0.00    -0.203 OA 
ENDBRANCH  22  24
ENDBRANCH  17  20
ENDBRANCH  13  14
ENDBRANCH   3  13
BRANCH   7  33
HETATM   33  C   UNL     1      -7.521   1.796  69.711  1.00  0.00    -0.042 C  
HETATM   34  O   UNL     1      -7.916   1.571  71.065  1.00  0.00    -0.038 OA 
HETATM   35  H   UNL     1      -7.633   0.692  71.289  1.00  0.00     0.000 HD 
HETATM   36  C   UNL     1      -6.011   1.653  69.599  1.00  0.00    -0.023 C  
ENDBRANCH   7  33
TORSDOF 5
ENDMDL
MODEL       69
REMARK 921   NORMALIZED FREE ENERGY PREDICTED BY IDOCK:   -6.37 KCAL/MOL
REMARK 922        TOTAL FREE ENERGY PREDICTED BY IDOCK:   -9.92 KCAL/MOL
REMARK 923 INTER-LIGAND FREE ENERGY PREDICTED BY IDOCK:   -8.90 KCAL/MOL
REMARK 924 INTRA-LIGAND FREE ENERGY PREDICTED BY IDOCK:   -1.02 KCAL/MOL
REMARK 927      BINDING AFFINITY PREDICTED BY RF-SCORE:    0.00 PKD
ROOT
HETATM    1  C   UNL     1      -9.240  16.435  66.589  1.00  0.00    -0.253 C  
HETATM    2  C   UNL     1      -9.327  15.484  67.785  1.00  0.00    -0.195 C  
HETATM    3  C   UNL     1     -10.043  14.283  67.200  1.00  0.00    -0.254 C  
HETATM    4  C   UNL     1      -9.996  16.160  68.974  1.00  0.00    -0.242 C  
HETATM    5  O   UNL     1     -11.492  16.686  64.188  1.00  0.00    -1.131 OA 
HETATM    6  C   UNL     1     -10.289  14.465  65.887  1.00  0.00    -0.314 C  
HETATM    7  C   UNL     1     -10.275  17.559  66.265  1.00  0.00    -0.356 C  
HETATM    8  N   UNL     1      -9.809  15.687  65.432  1.00  0.00    -0.281 N  
HETATM    9  C   UNL     1     -10.904  13.482  64.941  1.00  0.00    -0.362 C  
HETATM   10  O   UNL     1     -10.935  12.276  65.128  1.00  0.00    -0.286 OA 
HETATM   11  O   UNL     1     -11.452  14.029  63.834  1.00  0.00    -0.182 OA 
HETATM   12  C   UNL     1     -10.649  16.696  65.058  1.00  0.00    -0.091 C  
ENDROOT
BRANCH   3  13
HETATM   13  S   UNL     1     -10.241  12.877  68.176  1.00  0.00    -0.242 SA 
BRANCH  13  14
HETATM   14  C   UNL     1     -12.016  12.866  68.640  1.00  0.00    -0.247 C  
HETATM   15  C   UNL     1     -12.321  13.423  70.026  1.00  0.00    -0.226 C  
HETATM   16  N   UNL     1     -11.968  12.333  70.919  1.00  0.00    -0.377 NA 
HETATM   17  C   UNL     1     -12.387  11.070  70.271  1.00  0.00    -0.328 C  
HETATM   18  C   UNL     1     -12.464  11.404  68.776  1.00  0.00     0.396 C  
HETATM   19  H   UNL     1     -12.356  12.446  71.857  1.00  0.00     0.000 HD 
BRANCH  17  20
HETATM   20  C   UNL     1     -11.429   9.933  70.726  1.00  0.00    -0.354 C  
HETATM   21  O   UNL     1     -10.212  10.127  70.747  1.00  0.00    -0.066 OA 
HETATM   22  N   UNL     1     -12.046   8.782  71.197  1.00  0.00    -0.340 N  
HETATM   23  H   UNL     1     -13.065   8.784  71.212  1.00  0.00     0.000 HD 
BRANCH  22  24
HETATM   24  C   UNL     1     -11.406   7.603  71.658  1.00  0.00    -0.251 A  
HETATM   25  C   UNL     1     -11.310   7.247  73.007  1.00  0.00    -0.246 A  
HETATM   26  C   UNL     1     -10.677   6.062  73.399  1.00  0.00    -0.282 A  
HETATM   27  C   UNL     1     -10.117   5.217  72.447  1.00  0.00    -0.227 A  
HETATM   28  C   UNL     1     -10.176   5.574  71.095  1.00  0.00    -0.285 A  
HETATM   29  C   UNL     1      -9.590   4.711  70.041  1.00  0.00    -0.188 C  
HETATM   30  C   UNL     1     -10.837   6.752  70.704  1.00  0.00    -0.292 A  
HETATM   31  O   UNL     1      -8.479   4.047  70.427  1.00  0.00    -0.063 OA 
HETATM   32  O   UNL     1     -10.051   4.642  68.915  1.00  0.00    -0.139 OA 
ENDBRANCH  22  24
ENDBRANCH  17  20
ENDBRANCH  13  14
ENDBRANCH   3  13
BRANCH   7  33
HETATM   33  C   UNL     1      -9.666  18.927  66.030  1.00  0.00    -0.162 C  
HETATM   34  O   UNL     1      -8.249  18.750  66.023  1.00  0.00    -0.458 OA 
HETATM   35  H   UNL     1      -7.868  19.608  65.877  1.00  0.00     0.000 HD 
HETATM   36  C   UNL     1     -10.045  19.900  67.136  1.00  0.00    -0.573 C  
ENDBRANCH   7  33
TORSDOF 5
ENDMDL
MODEL       70
REMARK 921   NORMALIZED FREE ENERGY PREDICTED BY IDOCK:   -6.36 KCAL/MOL
REMARK 922        TOTAL FREE ENERGY PREDICTED BY IDOCK:   -9.91 KCAL/MOL
REMARK 923 INTER-LIGAND FREE ENERGY PREDICTED BY IDOCK:   -7.94 KCAL/MOL
REMARK 924 INTRA-LIGAND FREE ENERGY PREDICTED BY IDOCK:   -1.97 KCAL/MOL
REMARK 927      BINDING AFFINITY PREDICTED BY RF-SCORE:    0.00 PKD
ROOT
HETATM    1  C   UNL     1      -8.121   4.811  65.750  1.00  0.00    -0.111 C  
HETATM    2  C   UNL     1      -7.890   4.702  67.259  1.00  0.00    -0.090 C  
HETATM    3  C   UNL     1      -8.284   6.081  67.753  1.00  0.00    -0.112 C  
HETATM    4  C   UNL     1      -6.467   4.254  67.564  1.00  0.00    -0.042 C  
HETATM    5  O   UNL     1      -7.700   7.547  63.950  1.00  0.00    -0.114 OA 
HETATM    6  C   UNL     1      -8.718   6.848  66.733  1.00  0.00    -0.122 C  
HETATM    7  C   UNL     1      -7.026   5.194  64.704  1.00  0.00    -0.050 C  
HETATM    8  N   UNL     1      -8.700   6.166  65.523  1.00  0.00    -0.134 N  
HETATM    9  C   UNL     1      -9.267   8.237  66.821  1.00  0.00    -0.169 C  
HETATM   10  O   UNL     1      -9.733   8.728  67.837  1.00  0.00    -0.149 OA 
HETATM   11  O   UNL     1      -9.205   8.945  65.671  1.00  0.00    -0.218 OA 
HETATM   12  C   UNL     1      -7.822   6.489  64.527  1.00  0.00    -0.112 C  
ENDROOT
BRANCH   3  13
HETATM   13  S   UNL     1      -8.313   6.379  69.450  1.00  0.00    -0.123 SA 
BRANCH  13  14
HETATM   14  C   UNL     1      -9.816   5.521  70.057  1.00  0.00    -0.198 C  
HETATM   15  C   UNL     1     -11.019   5.595  69.124  1.00  0.00    -0.118 C  
HETATM   16  N   UNL     1     -11.553   6.926  69.356  1.00  0.00    -0.590 NA 
HETATM   17  C   UNL     1     -11.433   7.209  70.805  1.00  0.00    -0.305 C  
HETATM   18  C   UNL     1     -10.324   6.270  71.297  1.00  0.00    -0.255 C  
HETATM   19  H   UNL     1     -12.505   7.039  69.008  1.00  0.00     0.000 HD 
BRANCH  17  20
HETATM   20  C   UNL     1     -11.245   8.741  71.000  1.00  0.00    -0.273 C  
HETATM   21  O   UNL     1     -10.494   9.161  71.882  1.00  0.00    -0.348 OA 
HETATM   22  N   UNL     1     -11.875   9.545  70.060  1.00  0.00    -0.457 N  
HETATM   23  H   UNL     1     -12.394   9.068  69.324  1.00  0.00     0.000 HD 
BRANCH  22  24
HETATM   24  C   UNL     1     -11.873  10.963  70.018  1.00  0.00    -0.347 A  
HETATM   25  C   UNL     1     -11.208  11.712  69.040  1.00  0.00    -0.323 A  
HETATM   26  C   UNL     1     -11.254  13.110  69.045  1.00  0.00    -0.309 A  
HETATM   27  C   UNL     1     -11.956  13.786  70.036  1.00  0.00    -0.407 A  
HETATM   28  C   UNL     1     -12.600  13.055  71.040  1.00  0.00    -0.386 A  
HETATM   29  C   UNL     1     -13.358  13.727  72.123  1.00  0.00    -0.476 C  
HETATM   30  C   UNL     1     -12.574  11.648  71.016  1.00  0.00    -0.431 A  
HETATM   31  O   UNL     1     -12.841  14.916  72.500  1.00  0.00    -0.325 OA 
HETATM   32  O   UNL     1     -14.338  13.227  72.649  1.00  0.00    -0.679 OA 
ENDBRANCH  22  24
ENDBRANCH  17  20
ENDBRANCH  13  14
ENDBRANCH   3  13
BRANCH   7  33
HETATM   33  C   UNL     1      -6.909   4.237  63.535  1.00  0.00    -0.044 C  
HETATM   34  O   UNL     1      -7.749   4.748  62.500  1.00  0.00    -0.057 OA 
HETATM   35  H   UNL     1      -7.676   4.148  61.767  1.00  0.00     0.000 HD 
HETATM   36  C   UNL     1      -7.374   2.839  63.914  1.00  0.00    -0.065 C  
ENDBRANCH   7  33
TORSDOF 5
ENDMDL
MODEL       71
REMARK 921   NORMALIZED FREE ENERGY PREDICTED BY IDOCK:   -6.33 KCAL/MOL
REMARK 922        TOTAL FREE ENERGY PREDICTED BY IDOCK:   -9.87 KCAL/MOL
REMARK 923 INTER-LIGAND FREE ENERGY PREDICTED BY IDOCK:   -8.86 KCAL/MOL
REMARK 924 INTRA-LIGAND FREE ENERGY PREDICTED BY IDOCK:   -1.01 KCAL/MOL
REMARK 927      BINDING AFFINITY PREDICTED BY RF-SCORE:    0.00 PKD
ROOT
HETATM    1  C   UNL     1      -8.993   5.376  67.875  1.00  0.00    -0.108 C  
HETATM    2  C   UNL     1     -10.079   6.405  68.202  1.00  0.00    -0.167 C  
HETATM    3  C   UNL     1     -10.630   5.894  69.518  1.00  0.00    -0.308 C  
HETATM    4  C   UNL     1     -11.073   6.533  67.055  1.00  0.00    -0.411 C  
HETATM    5  O   UNL     1      -9.112   2.168  68.644  1.00  0.00    -0.115 OA 
HETATM    6  C   UNL     1      -9.960   4.797  69.925  1.00  0.00    -0.236 C  
HETATM    7  C   UNL     1      -9.199   4.113  66.980  1.00  0.00    -0.173 C  
HETATM    8  N   UNL     1      -8.947   4.448  69.040  1.00  0.00    -0.101 N  
HETATM    9  C   UNL     1     -10.150   4.049  71.206  1.00  0.00    -0.062 C  
HETATM   10  O   UNL     1     -10.666   4.520  72.207  1.00  0.00    -0.151 OA 
HETATM   11  O   UNL     1      -9.709   2.771  71.187  1.00  0.00    -0.155 OA 
HETATM   12  C   UNL     1      -9.017   3.318  68.276  1.00  0.00    -0.140 C  
ENDROOT
BRANCH   3  13
HETATM   13  S   UNL     1     -11.809   6.838  70.348  1.00  0.00    -0.265 SA 
BRANCH  13  14
HETATM   14  C   UNL     1     -10.843   7.972  71.418  1.00  0.00    -0.231 C  
HETATM   15  C   UNL     1     -11.677   8.961  72.225  1.00  0.00    -0.280 C  
HETATM   16  N   UNL     1     -12.020   9.989  71.258  1.00  0.00    -0.376 NA 
HETATM   17  C   UNL     1     -10.838  10.201  70.392  1.00  0.00    -0.301 C  
HETATM   18  C   UNL     1     -10.028   8.904  70.511  1.00  0.00    -0.243 C  
HETATM   19  H   UNL     1     -12.352  10.850  71.695  1.00  0.00     0.000 HD 
BRANCH  17  20
HETATM   20  C   UNL     1     -11.325  10.643  68.983  1.00  0.00    -0.277 C  
HETATM   21  O   UNL     1     -12.487  11.023  68.825  1.00  0.00    -0.468 OA 
HETATM   22  N   UNL     1     -10.349  10.683  67.997  1.00  0.00    -0.170 N  
HETATM   23  H   UNL     1      -9.402  10.431  68.281  1.00  0.00     0.000 HD 
BRANCH  22  24
HETATM   24  C   UNL     1     -10.529  11.038  66.636  1.00  0.00    -0.256 A  
HETATM   25  C   UNL     1      -9.893  10.391  65.571  1.00  0.00    -0.332 A  
HETATM   26  C   UNL     1     -10.124  10.779  64.247  1.00  0.00    -0.427 A  
HETATM   27  C   UNL     1     -10.986  11.833  63.965  1.00  0.00    -0.451 A  
HETATM   28  C   UNL     1     -11.606  12.512  65.019  1.00  0.00    -0.392 A  
HETATM   29  C   UNL     1     -12.531  13.646  64.772  1.00  0.00    -0.350 C  
HETATM   30  C   UNL     1     -11.393  12.100  66.347  1.00  0.00    -0.411 A  
HETATM   31  O   UNL     1     -12.207  14.396  63.697  1.00  0.00    -0.593 OA 
HETATM   32  O   UNL     1     -13.475  13.896  65.502  1.00  0.00    -0.657 OA 
ENDBRANCH  22  24
ENDBRANCH  17  20
ENDBRANCH  13  14
ENDBRANCH   3  13
BRANCH   7  33
HETATM   33  C   UNL     1      -8.179   3.954  65.870  1.00  0.00    -0.105 C  
HETATM   34  O   UNL     1      -7.176   3.063  66.359  1.00  0.00    -0.063 OA 
HETATM   35  H   UNL     1      -6.537   2.963  65.663  1.00  0.00     0.000 HD 
HETATM   36  C   UNL     1      -7.537   5.285  65.513  1.00  0.00    -0.082 C  
ENDBRANCH   7  33
TORSDOF 5
ENDMDL
MODEL       72
REMARK 921   NORMALIZED FREE ENERGY PREDICTED BY IDOCK:   -6.28 KCAL/MOL
REMARK 922        TOTAL FREE ENERGY PREDICTED BY IDOCK:   -9.80 KCAL/MOL
REMARK 923 INTER-LIGAND FREE ENERGY PREDICTED BY IDOCK:   -8.60 KCAL/MOL
REMARK 924 INTRA-LIGAND FREE ENERGY PREDICTED BY IDOCK:   -1.20 KCAL/MOL
REMARK 927      BINDING AFFINITY PREDICTED BY RF-SCORE:    0.00 PKD
ROOT
HETATM    1  C   UNL     1     -11.050   6.994  71.705  1.00  0.00    -0.235 C  
HETATM    2  C   UNL     1     -10.352   8.356  71.737  1.00  0.00    -0.333 C  
HETATM    3  C   UNL     1      -9.997   8.578  70.280  1.00  0.00    -0.183 C  
HETATM    4  C   UNL     1      -9.194   8.353  72.725  1.00  0.00    -0.311 C  
HETATM    5  O   UNL     1     -10.313   4.523  69.643  1.00  0.00    -0.099 OA 
HETATM    6  C   UNL     1     -10.447   7.563  69.517  1.00  0.00    -0.226 C  
HETATM    7  C   UNL     1     -10.345   5.623  71.955  1.00  0.00    -0.261 C  
HETATM    8  N   UNL     1     -11.121   6.606  70.267  1.00  0.00    -0.298 N  
HETATM    9  C   UNL     1     -10.366   7.450  68.027  1.00  0.00    -0.199 C  
HETATM   10  O   UNL     1     -10.217   8.399  67.274  1.00  0.00    -0.227 OA 
HETATM   11  O   UNL     1     -10.461   6.190  67.549  1.00  0.00    -0.178 OA 
HETATM   12  C   UNL     1     -10.606   5.357  70.471  1.00  0.00    -0.242 C  
ENDROOT
BRANCH   3  13
HETATM   13  S   UNL     1      -9.302  10.085  69.815  1.00  0.00    -0.158 SA 
BRANCH  13  14
HETATM   14  C   UNL     1      -7.490   9.800  69.836  1.00  0.00    -0.141 C  
HETATM   15  C   UNL     1      -6.642  11.066  69.874  1.00  0.00    -0.142 C  
HETATM   16  N   UNL     1      -6.662  11.535  68.500  1.00  0.00    -0.063 NA 
HETATM   17  C   UNL     1      -6.587  10.347  67.620  1.00  0.00    -0.066 C  
HETATM   18  C   UNL     1      -7.089   9.185  68.487  1.00  0.00    -0.072 C  
HETATM   19  H   UNL     1      -5.932  12.221  68.304  1.00  0.00     0.000 HD 
BRANCH  17  20
HETATM   20  C   UNL     1      -7.338  10.659  66.295  1.00  0.00    -0.137 C  
HETATM   21  O   UNL     1      -6.803  10.413  65.212  1.00  0.00    -0.135 OA 
HETATM   22  N   UNL     1      -8.645  11.105  66.438  1.00  0.00    -0.169 N  
HETATM   23  H   UNL     1      -9.001  11.180  67.390  1.00  0.00     0.000 HD 
BRANCH  22  24
HETATM   24  C   UNL     1      -9.537  11.468  65.397  1.00  0.00    -0.224 A  
HETATM   25  C   UNL     1      -9.538  10.875  64.129  1.00  0.00    -0.321 A  
HETATM   26  C   UNL     1     -10.453  11.268  63.148  1.00  0.00    -0.293 A  
HETATM   27  C   UNL     1     -11.379  12.272  63.412  1.00  0.00    -0.508 A  
HETATM   28  C   UNL     1     -11.372  12.898  64.663  1.00  0.00    -0.361 A  
HETATM   29  C   UNL     1     -12.334  13.977  64.994  1.00  0.00    -0.441 C  
HETATM   30  C   UNL     1     -10.468  12.480  65.656  1.00  0.00    -0.299 A  
HETATM   31  O   UNL     1     -12.665  14.761  63.945  1.00  0.00    -0.794 OA 
HETATM   32  O   UNL     1     -12.755  14.160  66.123  1.00  0.00    -0.442 OA 
ENDBRANCH  22  24
ENDBRANCH  17  20
ENDBRANCH  13  14
ENDBRANCH   3  13
BRANCH   7  33
HETATM   33  C   UNL     1     -11.023   4.746  72.989  1.00  0.00    -0.272 C  
HETATM   34  O   UNL     1     -12.384   5.169  73.058  1.00  0.00    -0.444 OA 
HETATM   35  H   UNL     1     -12.809   4.619  73.706  1.00  0.00     0.000 HD 
HETATM   36  C   UNL     1     -10.378   4.904  74.358  1.00  0.00    -0.325 C  
ENDBRANCH   7  33
TORSDOF 5
ENDMDL
MODEL       73
REMARK 921   NORMALIZED FREE ENERGY PREDICTED BY IDOCK:   -6.27 KCAL/MOL
REMARK 922        TOTAL FREE ENERGY PREDICTED BY IDOCK:   -9.78 KCAL/MOL
REMARK 923 INTER-LIGAND FREE ENERGY PREDICTED BY IDOCK:   -8.89 KCAL/MOL
REMARK 924 INTRA-LIGAND FREE ENERGY PREDICTED BY IDOCK:   -0.90 KCAL/MOL
REMARK 927      BINDING AFFINITY PREDICTED BY RF-SCORE:    0.00 PKD
ROOT
HETATM    1  C   UNL     1      -9.950   4.558  68.239  1.00  0.00    -0.028 C  
HETATM    2  C   UNL     1      -9.779   5.170  69.631  1.00  0.00    -0.255 C  
HETATM    3  C   UNL     1      -9.866   6.657  69.351  1.00  0.00    -0.151 C  
HETATM    4  C   UNL     1      -8.498   4.678  70.291  1.00  0.00    -0.090 C  
HETATM    5  O   UNL     1      -8.895   5.914  65.419  1.00  0.00    -0.144 OA 
HETATM    6  C   UNL     1     -10.098   6.885  68.042  1.00  0.00    -0.166 C  
HETATM    7  C   UNL     1      -8.777   4.165  67.286  1.00  0.00    -0.113 C  
HETATM    8  N   UNL     1     -10.209   5.703  67.320  1.00  0.00    -0.183 N  
HETATM    9  C   UNL     1     -10.326   8.209  67.385  1.00  0.00    -0.281 C  
HETATM   10  O   UNL     1     -10.691   9.214  67.973  1.00  0.00    -0.218 OA 
HETATM   11  O   UNL     1     -10.086   8.230  66.055  1.00  0.00    -0.050 OA 
HETATM   12  C   UNL     1      -9.261   5.324  66.412  1.00  0.00    -0.144 C  
ENDROOT
BRANCH   3  13
HETATM   13  S   UNL     1      -9.861   7.756  70.678  1.00  0.00    -0.181 SA 
BRANCH  13  14
HETATM   14  C   UNL     1     -11.167   7.139  71.810  1.00  0.00    -0.246 C  
HETATM   15  C   UNL     1     -12.451   6.689  71.123  1.00  0.00    -0.198 C  
HETATM   16  N   UNL     1     -13.140   7.935  70.831  1.00  0.00    -0.519 NA 
HETATM   17  C   UNL     1     -12.924   8.844  71.980  1.00  0.00    -0.399 C  
HETATM   18  C   UNL     1     -11.655   8.319  72.663  1.00  0.00    -0.419 C  
HETATM   19  H   UNL     1     -14.127   7.801  70.611  1.00  0.00     0.000 HD 
BRANCH  17  20
HETATM   20  C   UNL     1     -12.933  10.311  71.463  1.00  0.00    -0.453 C  
HETATM   21  O   UNL     1     -13.531  11.182  72.096  1.00  0.00    -0.380 OA 
HETATM   22  N   UNL     1     -12.145  10.557  70.346  1.00  0.00    -0.304 N  
HETATM   23  H   UNL     1     -11.626   9.765  69.969  1.00  0.00     0.000 HD 
BRANCH  22  24
HETATM   24  C   UNL     1     -11.988  11.796  69.674  1.00  0.00    -0.312 A  
HETATM   25  C   UNL     1     -11.919  13.032  70.326  1.00  0.00    -0.360 A  
HETATM   26  C   UNL     1     -11.749  14.220  69.607  1.00  0.00    -0.362 A  
HETATM   27  C   UNL     1     -11.659  14.195  68.220  1.00  0.00    -0.356 A  
HETATM   28  C   UNL     1     -11.759  12.971  67.549  1.00  0.00    -0.421 A  
HETATM   29  C   UNL     1     -11.675  12.889  66.070  1.00  0.00    -0.404 C  
HETATM   30  C   UNL     1     -11.902  11.776  68.278  1.00  0.00    -0.340 A  
HETATM   31  O   UNL     1     -12.198  13.957  65.429  1.00  0.00    -0.393 OA 
HETATM   32  O   UNL     1     -11.209  11.924  65.490  1.00  0.00    -0.317 OA 
ENDBRANCH  22  24
ENDBRANCH  17  20
ENDBRANCH  13  14
ENDBRANCH   3  13
BRANCH   7  33
HETATM   33  C   UNL     1      -8.853   2.752  66.743  1.00  0.00    -0.142 C  
HETATM   34  O   UNL     1      -9.844   2.760  65.716  1.00  0.00    -0.362 OA 
HETATM   35  H   UNL     1      -9.892   1.874  65.375  1.00  0.00     0.000 HD 
HETATM   36  C   UNL     1      -9.259   1.763  67.825  1.00  0.00    -0.194 C  
ENDBRANCH   7  33
TORSDOF 5
ENDMDL
MODEL       74
REMARK 921   NORMALIZED FREE ENERGY PREDICTED BY IDOCK:   -6.24 KCAL/MOL
REMARK 922        TOTAL FREE ENERGY PREDICTED BY IDOCK:   -9.74 KCAL/MOL
REMARK 923 INTER-LIGAND FREE ENERGY PREDICTED BY IDOCK:   -8.29 KCAL/MOL
REMARK 924 INTRA-LIGAND FREE ENERGY PREDICTED BY IDOCK:   -1.45 KCAL/MOL
REMARK 927      BINDING AFFINITY PREDICTED BY RF-SCORE:    0.00 PKD
ROOT
HETATM    1  C   UNL     1     -11.823  12.379  65.035  1.00  0.00    -0.388 C  
HETATM    2  C   UNL     1     -10.836  11.271  64.658  1.00  0.00    -0.335 C  
HETATM    3  C   UNL     1     -10.470  10.683  66.006  1.00  0.00    -0.183 C  
HETATM    4  C   UNL     1      -9.687  11.823  63.825  1.00  0.00    -0.255 C  
HETATM    5  O   UNL     1     -11.705  14.177  67.801  1.00  0.00    -0.332 OA 
HETATM    6  C   UNL     1     -11.154  11.293  66.996  1.00  0.00    -0.293 C  
HETATM    7  C   UNL     1     -11.440  13.874  65.272  1.00  0.00    -0.319 C  
HETATM    8  N   UNL     1     -12.010  12.274  66.510  1.00  0.00    -0.298 N  
HETATM    9  C   UNL     1     -11.132  10.948  68.451  1.00  0.00    -0.262 C  
HETATM   10  O   UNL     1     -10.789   9.863  68.895  1.00  0.00    -0.218 OA 
HETATM   11  O   UNL     1     -11.518  11.946  69.276  1.00  0.00    -0.262 OA 
HETATM   12  C   UNL     1     -11.785  13.602  66.738  1.00  0.00    -0.392 C  
ENDROOT
BRANCH   3  13
HETATM   13  S   UNL     1      -9.464   9.285  66.059  1.00  0.00    -0.264 SA 
BRANCH  13  14
HETATM   14  C   UNL     1      -7.752   9.935  66.166  1.00  0.00    -0.107 C  
HETATM   15  C   UNL     1      -6.662   8.938  65.791  1.00  0.00    -0.068 C  
HETATM   16  N   UNL     1      -6.537   8.105  66.975  1.00  0.00    -0.057 NA 
HETATM   17  C   UNL     1      -6.678   8.985  68.157  1.00  0.00    -0.065 C  
HETATM   18  C   UNL     1      -7.440  10.213  67.643  1.00  0.00    -0.090 C  
HETATM   19  H   UNL     1      -5.675   7.559  66.987  1.00  0.00     0.000 HD 
BRANCH  17  20
HETATM   20  C   UNL     1      -7.302   8.161  69.320  1.00  0.00    -0.077 C  
HETATM   21  O   UNL     1      -7.037   6.963  69.435  1.00  0.00    -0.074 OA 
HETATM   22  N   UNL     1      -8.047   8.890  70.237  1.00  0.00    -0.109 N  
HETATM   23  H   UNL     1      -8.114   9.894  70.077  1.00  0.00     0.000 HD 
BRANCH  22  24
HETATM   24  C   UNL     1      -8.726   8.382  71.374  1.00  0.00    -0.172 A  
HETATM   25  C   UNL     1      -8.252   8.507  72.684  1.00  0.00    -0.129 A  
HETATM   26  C   UNL     1      -8.976   7.995  73.767  1.00  0.00    -0.288 A  
HETATM   27  C   UNL     1     -10.183   7.338  73.557  1.00  0.00    -0.404 A  
HETATM   28  C   UNL     1     -10.657   7.175  72.250  1.00  0.00    -0.244 A  
HETATM   29  C   UNL     1     -11.935   6.477  71.971  1.00  0.00    -0.326 C  
HETATM   30  C   UNL     1      -9.939   7.715  71.168  1.00  0.00    -0.188 A  
HETATM   31  O   UNL     1     -12.210   5.469  72.827  1.00  0.00    -0.133 OA 
HETATM   32  O   UNL     1     -12.651   6.767  71.028  1.00  0.00    -0.347 OA 
ENDBRANCH  22  24
ENDBRANCH  17  20
ENDBRANCH  13  14
ENDBRANCH   3  13
BRANCH   7  33
HETATM   33  C   UNL     1     -12.275  14.870  64.493  1.00  0.00    -0.382 C  
HETATM   34  O   UNL     1     -12.536  14.280  63.219  1.00  0.00    -1.133 OA 
HETATM   35  H   UNL     1     -13.059  14.904  62.731  1.00  0.00     0.000 HD 
HETATM   36  C   UNL     1     -11.532  16.182  64.295  1.00  0.00    -0.099 C  
ENDBRANCH   7  33
TORSDOF 5
ENDMDL
MODEL       75
REMARK 921   NORMALIZED FREE ENERGY PREDICTED BY IDOCK:   -6.22 KCAL/MOL
REMARK 922        TOTAL FREE ENERGY PREDICTED BY IDOCK:   -9.72 KCAL/MOL
REMARK 923 INTER-LIGAND FREE ENERGY PREDICTED BY IDOCK:   -8.15 KCAL/MOL
REMARK 924 INTRA-LIGAND FREE ENERGY PREDICTED BY IDOCK:   -1.57 KCAL/MOL
REMARK 927      BINDING AFFINITY PREDICTED BY RF-SCORE:    0.00 PKD
ROOT
HETATM    1  C   UNL     1      -8.186   9.709  65.245  1.00  0.00    -0.131 C  
HETATM    2  C   UNL     1      -7.339  10.408  66.311  1.00  0.00    -0.128 C  
HETATM    3  C   UNL     1      -8.277  11.484  66.823  1.00  0.00    -0.164 C  
HETATM    4  C   UNL     1      -6.014  10.884  65.732  1.00  0.00    -0.094 C  
HETATM    5  O   UNL     1     -10.438  11.180  63.332  1.00  0.00    -0.364 OA 
HETATM    6  C   UNL     1      -9.476  11.404  66.212  1.00  0.00    -0.209 C  
HETATM    7  C   UNL     1      -8.171  10.056  63.723  1.00  0.00    -0.161 C  
HETATM    8  N   UNL     1      -9.527  10.357  65.300  1.00  0.00    -0.215 N  
HETATM    9  C   UNL     1     -10.688  12.233  66.495  1.00  0.00    -0.246 C  
HETATM   10  O   UNL     1     -10.880  12.835  67.540  1.00  0.00    -0.231 OA 
HETATM   11  O   UNL     1     -11.586  12.287  65.486  1.00  0.00    -0.354 OA 
HETATM   12  C   UNL     1      -9.591  10.578  63.953  1.00  0.00    -0.309 C  
ENDROOT
BRANCH   3  13
HETATM   13  S   UNL     1      -7.781  12.452  68.160  1.00  0.00    -0.149 SA 
BRANCH  13  14
HETATM   14  C   UNL     1      -7.111  13.987  67.413  1.00  0.00    -0.073 C  
HETATM   15  C   UNL     1      -6.407  14.922  68.390  1.00  0.00    -0.105 C  
HETATM   16  N   UNL     1      -7.499  15.598  69.067  1.00  0.00    -0.165 NA 
HETATM   17  C   UNL     1      -8.552  15.865  68.061  1.00  0.00    -0.164 C  
HETATM   18  C   UNL     1      -8.295  14.845  66.945  1.00  0.00    -0.212 C  
HETATM   19  H   UNL     1      -7.201  16.439  69.562  1.00  0.00     0.000 HD 
BRANCH  17  20
HETATM   20  C   UNL     1      -9.936  15.852  68.771  1.00  0.00    -0.220 C  
HETATM   21  O   UNL     1     -10.825  16.621  68.400  1.00  0.00    -0.336 OA 
HETATM   22  N   UNL     1     -10.107  14.864  69.731  1.00  0.00    -0.444 N  
HETATM   23  H   UNL     1      -9.322  14.231  69.880  1.00  0.00     0.000 HD 
BRANCH  22  24
HETATM   24  C   UNL     1     -11.260  14.642  70.526  1.00  0.00    -0.099 A  
HETATM   25  C   UNL     1     -12.169  13.602  70.307  1.00  0.00    -0.423 A  
HETATM   26  C   UNL     1     -13.283  13.428  71.136  1.00  0.00    -0.176 A  
HETATM   27  C   UNL     1     -13.514  14.301  72.193  1.00  0.00    -0.524 A  
HETATM   28  C   UNL     1     -12.633  15.366  72.408  1.00  0.00    -0.461 A  
HETATM   29  C   UNL     1     -12.837  16.328  73.518  1.00  0.00    -0.464 C  
HETATM   30  C   UNL     1     -11.500  15.521  71.589  1.00  0.00    -0.496 A  
HETATM   31  O   UNL     1     -14.135  16.570  73.805  1.00  0.00    -0.025 OA 
HETATM   32  O   UNL     1     -11.913  16.879  74.090  1.00  0.00    -0.325 OA 
ENDBRANCH  22  24
ENDBRANCH  17  20
ENDBRANCH  13  14
ENDBRANCH   3  13
BRANCH   7  33
HETATM   33  C   UNL     1      -7.964   8.865  62.807  1.00  0.00    -0.147 C  
HETATM   34  O   UNL     1      -9.259   8.457  62.367  1.00  0.00    -0.443 OA 
HETATM   35  H   UNL     1      -9.129   7.710  61.793  1.00  0.00     0.000 HD 
HETATM   36  C   UNL     1      -7.295   7.713  63.539  1.00  0.00    -0.090 C  
ENDBRANCH   7  33
TORSDOF 5
ENDMDL
MODEL       76
REMARK 921   NORMALIZED FREE ENERGY PREDICTED BY IDOCK:   -6.21 KCAL/MOL
REMARK 922        TOTAL FREE ENERGY PREDICTED BY IDOCK:   -9.71 KCAL/MOL
REMARK 923 INTER-LIGAND FREE ENERGY PREDICTED BY IDOCK:   -8.80 KCAL/MOL
REMARK 924 INTRA-LIGAND FREE ENERGY PREDICTED BY IDOCK:   -0.91 KCAL/MOL
REMARK 927      BINDING AFFINITY PREDICTED BY RF-SCORE:    0.00 PKD
ROOT
HETATM    1  C   UNL     1     -10.170   9.001  71.036  1.00  0.00    -0.277 C  
HETATM    2  C   UNL     1      -9.131   8.983  69.911  1.00  0.00    -0.176 C  
HETATM    3  C   UNL     1      -9.540  10.173  69.066  1.00  0.00    -0.196 C  
HETATM    4  C   UNL     1      -9.108   7.631  69.211  1.00  0.00    -0.145 C  
HETATM    5  O   UNL     1     -13.306   9.981  70.718  1.00  0.00    -0.350 OA 
HETATM    6  C   UNL     1     -10.592  10.812  69.616  1.00  0.00    -0.175 C  
HETATM    7  C   UNL     1     -11.504   8.189  71.033  1.00  0.00    -0.301 C  
HETATM    8  N   UNL     1     -11.000  10.217  70.804  1.00  0.00    -0.307 N  
HETATM    9  C   UNL     1     -11.237  12.071  69.129  1.00  0.00    -0.246 C  
HETATM   10  O   UNL     1     -10.692  12.883  68.399  1.00  0.00    -0.240 OA 
HETATM   11  O   UNL     1     -12.506  12.258  69.553  1.00  0.00    -0.015 OA 
HETATM   12  C   UNL     1     -12.189   9.551  70.904  1.00  0.00    -0.254 C  
ENDROOT
BRANCH   3  13
HETATM   13  S   UNL     1      -8.546  10.628  67.734  1.00  0.00    -0.123 SA 
BRANCH  13  14
HETATM   14  C   UNL     1      -8.997   9.468  66.386  1.00  0.00    -0.154 C  
HETATM   15  C   UNL     1      -8.030   9.446  65.208  1.00  0.00    -0.110 C  
HETATM   16  N   UNL     1      -8.383  10.635  64.451  1.00  0.00    -0.338 NA 
HETATM   17  C   UNL     1      -9.857  10.769  64.491  1.00  0.00    -0.310 C  
HETATM   18  C   UNL     1     -10.289   9.978  65.732  1.00  0.00    -0.191 C  
HETATM   19  H   UNL     1      -8.011  10.626  63.501  1.00  0.00     0.000 HD 
BRANCH  17  20
HETATM   20  C   UNL     1     -10.223  12.279  64.411  1.00  0.00    -0.314 C  
HETATM   21  O   UNL     1     -10.919  12.694  63.483  1.00  0.00    -0.441 OA 
HETATM   22  N   UNL     1      -9.815  13.051  65.490  1.00  0.00    -0.449 N  
HETATM   23  H   UNL     1      -9.324  12.566  66.240  1.00  0.00     0.000 HD 
BRANCH  22  24
HETATM   24  C   UNL     1     -10.011  14.446  65.658  1.00  0.00    -0.337 A  
HETATM   25  C   UNL     1     -10.836  15.221  64.836  1.00  0.00    -0.444 A  
HETATM   26  C   UNL     1     -10.999  16.592  65.061  1.00  0.00    -0.172 A  
HETATM   27  C   UNL     1     -10.328  17.216  66.107  1.00  0.00    -0.327 A  
HETATM   28  C   UNL     1      -9.474  16.463  66.920  1.00  0.00    -0.249 A  
HETATM   29  C   UNL     1      -8.732  17.081  68.046  1.00  0.00    -0.218 C  
HETATM   30  C   UNL     1      -9.335  15.079  66.707  1.00  0.00    -0.271 A  
HETATM   31  O   UNL     1      -8.356  18.358  67.822  1.00  0.00    -0.255 OA 
HETATM   32  O   UNL     1      -8.453  16.471  69.064  1.00  0.00    -0.240 OA 
ENDBRANCH  22  24
ENDBRANCH  17  20
ENDBRANCH  13  14
ENDBRANCH   3  13
BRANCH   7  33
HETATM   33  C   UNL     1     -11.740   7.362  72.281  1.00  0.00    -0.286 C  
HETATM   34  O   UNL     1     -12.493   8.179  73.178  1.00  0.00    -0.605 OA 
HETATM   35  H   UNL     1     -12.640   7.660  73.961  1.00  0.00     0.000 HD 
HETATM   36  C   UNL     1     -10.428   6.968  72.941  1.00  0.00    -0.283 C  
ENDBRANCH   7  33
TORSDOF 5
ENDMDL
MODEL       77
REMARK 921   NORMALIZED FREE ENERGY PREDICTED BY IDOCK:   -6.19 KCAL/MOL
REMARK 922        TOTAL FREE ENERGY PREDICTED BY IDOCK:   -9.68 KCAL/MOL
REMARK 923 INTER-LIGAND FREE ENERGY PREDICTED BY IDOCK:   -7.96 KCAL/MOL
REMARK 924 INTRA-LIGAND FREE ENERGY PREDICTED BY IDOCK:   -1.71 KCAL/MOL
REMARK 927      BINDING AFFINITY PREDICTED BY RF-SCORE:    0.00 PKD
ROOT
HETATM    1  C   UNL     1     -12.153  13.600  69.512  1.00  0.00    -0.314 C  
HETATM    2  C   UNL     1     -10.810  13.723  68.788  1.00  0.00    -0.281 C  
HETATM    3  C   UNL     1     -10.295  12.298  68.805  1.00  0.00    -0.135 C  
HETATM    4  C   UNL     1      -9.927  14.771  69.450  1.00  0.00    -0.096 C  
HETATM    5  O   UNL     1     -12.811  11.485  71.960  1.00  0.00    -0.350 OA 
HETATM    6  C   UNL     1     -11.189  11.472  69.384  1.00  0.00    -0.259 C  
HETATM    7  C   UNL     1     -12.369  13.834  71.041  1.00  0.00    -0.452 C  
HETATM    8  N   UNL     1     -12.335  12.146  69.788  1.00  0.00    -0.098 N  
HETATM    9  C   UNL     1     -11.087   9.986  69.520  1.00  0.00    -0.238 C  
HETATM   10  O   UNL     1     -10.376   9.279  68.823  1.00  0.00    -0.201 OA 
HETATM   11  O   UNL     1     -11.847   9.453  70.502  1.00  0.00    -0.243 OA 
HETATM   12  C   UNL     1     -12.634  12.329  71.109  1.00  0.00    -0.253 C  
ENDROOT
BRANCH   3  13
HETATM   13  S   UNL     1      -8.839  11.930  67.959  1.00  0.00    -0.183 SA 
BRANCH  13  14
HETATM   14  C   UNL     1      -9.302  11.948  66.185  1.00  0.00    -0.219 C  
HETATM   15  C   UNL     1     -10.724  11.485  65.888  1.00  0.00    -0.272 C  
HETATM   16  N   UNL     1     -10.637  10.037  65.963  1.00  0.00    -0.056 NA 
HETATM   17  C   UNL     1      -9.344   9.635  65.364  1.00  0.00    -0.259 C  
HETATM   18  C   UNL     1      -8.461  10.886  65.462  1.00  0.00    -0.115 C  
HETATM   19  H   UNL     1     -11.435   9.568  65.534  1.00  0.00     0.000 HD 
BRANCH  17  20
HETATM   20  C   UNL     1      -8.857   8.330  66.057  1.00  0.00    -0.168 C  
HETATM   21  O   UNL     1      -7.708   8.259  66.495  1.00  0.00    -0.090 OA 
HETATM   22  N   UNL     1      -9.824   7.350  66.233  1.00  0.00    -0.442 N  
HETATM   23  H   UNL     1     -10.764   7.570  65.906  1.00  0.00     0.000 HD 
BRANCH  22  24
HETATM   24  C   UNL     1      -9.641   6.073  66.822  1.00  0.00    -0.149 A  
HETATM   25  C   UNL     1      -9.486   4.892  66.088  1.00  0.00    -0.165 A  
HETATM   26  C   UNL     1      -9.295   3.662  66.728  1.00  0.00    -0.210 A  
HETATM   27  C   UNL     1      -9.268   3.590  68.116  1.00  0.00    -0.228 A  
HETATM   28  C   UNL     1      -9.453   4.756  68.867  1.00  0.00    -0.209 A  
HETATM   29  C   UNL     1      -9.438   4.733  70.350  1.00  0.00    -0.172 C  
HETATM   30  C   UNL     1      -9.617   5.994  68.219  1.00  0.00    -0.126 A  
HETATM   31  O   UNL     1      -9.940   3.601  70.888  1.00  0.00    -0.149 OA 
HETATM   32  O   UNL     1      -9.043   5.672  71.019  1.00  0.00    -0.142 OA 
ENDBRANCH  22  24
ENDBRANCH  17  20
ENDBRANCH  13  14
ENDBRANCH   3  13
BRANCH   7  33
HETATM   33  C   UNL     1     -13.492  14.795  71.379  1.00  0.00    -0.404 C  
HETATM   34  O   UNL     1     -13.624  15.679  70.266  1.00  0.00    -0.691 OA 
HETATM   35  H   UNL     1     -14.327  16.282  70.478  1.00  0.00     0.000 HD 
HETATM   36  C   UNL     1     -13.173  15.602  72.627  1.00  0.00    -0.592 C  
ENDBRANCH   7  33
TORSDOF 5
ENDMDL
MODEL       78
REMARK 921   NORMALIZED FREE ENERGY PREDICTED BY IDOCK:   -6.17 KCAL/MOL
REMARK 922        TOTAL FREE ENERGY PREDICTED BY IDOCK:   -9.66 KCAL/MOL
REMARK 923 INTER-LIGAND FREE ENERGY PREDICTED BY IDOCK:   -7.70 KCAL/MOL
REMARK 924 INTRA-LIGAND FREE ENERGY PREDICTED BY IDOCK:   -1.96 KCAL/MOL
REMARK 927      BINDING AFFINITY PREDICTED BY RF-SCORE:    0.00 PKD
ROOT
HETATM    1  C   UNL     1      -7.336   5.435  68.545  1.00  0.00    -0.075 C  
HETATM    2  C   UNL     1      -7.519   5.992  69.959  1.00  0.00    -0.083 C  
HETATM    3  C   UNL     1      -8.487   7.137  69.739  1.00  0.00    -0.137 C  
HETATM    4  C   UNL     1      -6.177   6.350  70.583  1.00  0.00    -0.039 C  
HETATM    5  O   UNL     1      -7.398   7.221  65.770  1.00  0.00    -0.071 OA 
HETATM    6  C   UNL     1      -8.853   7.212  68.444  1.00  0.00    -0.127 C  
HETATM    7  C   UNL     1      -6.193   5.846  67.563  1.00  0.00    -0.033 C  
HETATM    8  N   UNL     1      -8.259   6.218  67.676  1.00  0.00    -0.117 N  
HETATM    9  C   UNL     1      -9.850   8.152  67.842  1.00  0.00    -0.169 C  
HETATM   10  O   UNL     1     -10.724   8.723  68.475  1.00  0.00    -0.168 OA 
HETATM   11  O   UNL     1      -9.715   8.346  66.512  1.00  0.00    -0.224 OA 
HETATM   12  C   UNL     1      -7.304   6.505  66.742  1.00  0.00    -0.079 C  
ENDROOT
BRANCH   3  13
HETATM   13  S   UNL     1      -9.096   7.986  71.110  1.00  0.00    -0.155 SA 
BRANCH  13  14
HETATM   14  C   UNL     1     -10.297   6.836  71.885  1.00  0.00    -0.197 C  
HETATM   15  C   UNL     1     -11.165   6.056  70.904  1.00  0.00    -0.265 C  
HETATM   16  N   UNL     1     -12.177   7.017  70.503  1.00  0.00    -0.607 NA 
HETATM   17  C   UNL     1     -12.542   7.809  71.699  1.00  0.00    -0.332 C  
HETATM   18  C   UNL     1     -11.339   7.674  72.640  1.00  0.00    -0.423 C  
HETATM   19  H   UNL     1     -12.984   6.580  70.054  1.00  0.00     0.000 HD 
BRANCH  17  20
HETATM   20  C   UNL     1     -12.970   9.233  71.243  1.00  0.00    -0.277 C  
HETATM   21  O   UNL     1     -14.160   9.554  71.262  1.00  0.00    -0.171 OA 
HETATM   22  N   UNL     1     -11.930  10.103  70.944  1.00  0.00    -0.336 N  
HETATM   23  H   UNL     1     -10.984   9.740  71.057  1.00  0.00     0.000 HD 
BRANCH  22  24
HETATM   24  C   UNL     1     -12.046  11.444  70.498  1.00  0.00    -0.394 A  
HETATM   25  C   UNL     1     -11.677  11.874  69.219  1.00  0.00    -0.389 A  
HETATM   26  C   UNL     1     -11.829  13.210  68.833  1.00  0.00    -0.361 A  
HETATM   27  C   UNL     1     -12.342  14.145  69.726  1.00  0.00    -0.350 A  
HETATM   28  C   UNL     1     -12.686  13.739  71.020  1.00  0.00    -0.416 A  
HETATM   29  C   UNL     1     -13.232  14.697  72.012  1.00  0.00    -0.351 C  
HETATM   30  C   UNL     1     -12.558  12.389  71.394  1.00  0.00    -0.299 A  
HETATM   31  O   UNL     1     -12.737  15.948  71.900  1.00  0.00    -0.445 OA 
HETATM   32  O   UNL     1     -14.027  14.368  72.876  1.00  0.00    -0.564 OA 
ENDBRANCH  22  24
ENDBRANCH  17  20
ENDBRANCH  13  14
ENDBRANCH   3  13
BRANCH   7  33
HETATM   33  C   UNL     1      -5.427   4.683  66.965  1.00  0.00    -0.013 C  
HETATM   34  O   UNL     1      -5.513   4.821  65.547  1.00  0.00    -0.012 OA 
HETATM   35  H   UNL     1      -5.033   4.092  65.172  1.00  0.00     0.000 HD 
HETATM   36  C   UNL     1      -6.033   3.350  67.377  1.00  0.00    -0.024 C  
ENDBRANCH   7  33
TORSDOF 5
ENDMDL
MODEL       79
REMARK 921   NORMALIZED FREE ENERGY PREDICTED BY IDOCK:   -6.16 KCAL/MOL
REMARK 922        TOTAL FREE ENERGY PREDICTED BY IDOCK:   -9.64 KCAL/MOL
REMARK 923 INTER-LIGAND FREE ENERGY PREDICTED BY IDOCK:   -8.37 KCAL/MOL
REMARK 924 INTRA-LIGAND FREE ENERGY PREDICTED BY IDOCK:   -1.27 KCAL/MOL
REMARK 927      BINDING AFFINITY PREDICTED BY RF-SCORE:    0.00 PKD
ROOT
HETATM    1  C   UNL     1     -10.751   9.707  68.793  1.00  0.00    -0.206 C  
HETATM    2  C   UNL     1     -10.164  10.652  67.741  1.00  0.00    -0.212 C  
HETATM    3  C   UNL     1      -8.933   9.900  67.275  1.00  0.00    -0.135 C  
HETATM    4  C   UNL     1      -9.931  12.040  68.322  1.00  0.00    -0.203 C  
HETATM    5  O   UNL     1      -8.996   7.736  70.776  1.00  0.00    -0.145 OA 
HETATM    6  C   UNL     1      -8.837   8.707  67.895  1.00  0.00    -0.137 C  
HETATM    7  C   UNL     1     -10.462   9.787  70.326  1.00  0.00    -0.345 C  
HETATM    8  N   UNL     1      -9.892   8.490  68.774  1.00  0.00    -0.168 N  
HETATM    9  C   UNL     1      -7.812   7.645  67.651  1.00  0.00    -0.123 C  
HETATM   10  O   UNL     1      -7.152   7.549  66.629  1.00  0.00    -0.074 OA 
HETATM   11  O   UNL     1      -7.646   6.774  68.671  1.00  0.00    -0.100 OA 
HETATM   12  C   UNL     1      -9.708   8.471  70.127  1.00  0.00    -0.170 C  
ENDROOT
BRANCH   3  13
HETATM   13  S   UNL     1      -8.016  10.540  65.964  1.00  0.00    -0.152 SA 
BRANCH  13  14
HETATM   14  C   UNL     1      -8.731   9.769  64.461  1.00  0.00    -0.198 C  
HETATM   15  C   UNL     1      -8.154  10.274  63.144  1.00  0.00    -0.158 C  
HETATM   16  N   UNL     1      -8.824  11.547  62.941  1.00  0.00    -0.596 NA 
HETATM   17  C   UNL     1     -10.227  11.390  63.386  1.00  0.00    -0.411 C  
HETATM   18  C   UNL     1     -10.200  10.202  64.356  1.00  0.00     0.083 C  
HETATM   19  H   UNL     1      -8.747  11.889  61.983  1.00  0.00     0.000 HD 
BRANCH  17  20
HETATM   20  C   UNL     1     -10.741  12.762  63.910  1.00  0.00    -0.409 C  
HETATM   21  O   UNL     1     -11.919  13.082  63.743  1.00  0.00    -0.448 OA 
HETATM   22  N   UNL     1      -9.827  13.500  64.651  1.00  0.00    -0.600 N  
HETATM   23  H   UNL     1      -8.910  13.080  64.795  1.00  0.00     0.000 HD 
BRANCH  22  24
HETATM   24  C   UNL     1     -10.038  14.778  65.228  1.00  0.00    -0.354 A  
HETATM   25  C   UNL     1     -10.738  15.812  64.597  1.00  0.00    -0.136 A  
HETATM   26  C   UNL     1     -10.924  17.048  65.226  1.00  0.00    -0.010 A  
HETATM   27  C   UNL     1     -10.400  17.277  66.493  1.00  0.00    -0.308 A  
HETATM   28  C   UNL     1      -9.669  16.266  67.126  1.00  0.00    -0.240 A  
HETATM   29  C   UNL     1      -9.086  16.461  68.475  1.00  0.00    -0.223 C  
HETATM   30  C   UNL     1      -9.509  15.015  66.502  1.00  0.00    -0.306 A  
HETATM   31  O   UNL     1      -8.677  17.724  68.721  1.00  0.00    -0.275 OA 
HETATM   32  O   UNL     1      -8.953  15.549  69.273  1.00  0.00    -0.236 OA 
ENDBRANCH  22  24
ENDBRANCH  17  20
ENDBRANCH  13  14
ENDBRANCH   3  13
BRANCH   7  33
HETATM   33  C   UNL     1     -11.700   9.801  71.201  1.00  0.00    -0.385 C  
HETATM   34  O   UNL     1     -12.467   8.652  70.844  1.00  0.00    -0.482 OA 
HETATM   35  H   UNL     1     -13.243   8.661  71.393  1.00  0.00     0.000 HD 
HETATM   36  C   UNL     1     -12.531  11.053  70.965  1.00  0.00    -0.512 C  
ENDBRANCH   7  33
TORSDOF 5
ENDMDL
MODEL       80
REMARK 921   NORMALIZED FREE ENERGY PREDICTED BY IDOCK:   -6.13 KCAL/MOL
REMARK 922        TOTAL FREE ENERGY PREDICTED BY IDOCK:   -9.60 KCAL/MOL
REMARK 923 INTER-LIGAND FREE ENERGY PREDICTED BY IDOCK:   -8.64 KCAL/MOL
REMARK 924 INTRA-LIGAND FREE ENERGY PREDICTED BY IDOCK:   -0.97 KCAL/MOL
REMARK 927      BINDING AFFINITY PREDICTED BY RF-SCORE:    0.00 PKD
ROOT
HETATM    1  C   UNL     1     -11.343   7.220  69.939  1.00  0.00    -0.117 C  
HETATM    2  C   UNL     1     -10.764   8.586  69.561  1.00  0.00    -0.181 C  
HETATM    3  C   UNL     1      -9.903   8.257  68.359  1.00  0.00    -0.172 C  
HETATM    4  C   UNL     1     -10.056   9.227  70.747  1.00  0.00    -0.358 C  
HETATM    5  O   UNL     1      -9.790   4.328  69.584  1.00  0.00    -0.213 OA 
HETATM    6  C   UNL     1      -9.994   6.948  68.047  1.00  0.00    -0.154 C  
HETATM    7  C   UNL     1     -10.725   6.249  70.996  1.00  0.00    -0.313 C  
HETATM    8  N   UNL     1     -10.858   6.270  68.898  1.00  0.00    -0.300 N  
HETATM    9  C   UNL     1      -9.361   6.252  66.884  1.00  0.00    -0.136 C  
HETATM   10  O   UNL     1      -8.982   6.816  65.870  1.00  0.00    -0.147 OA 
HETATM   11  O   UNL     1      -9.219   4.917  67.032  1.00  0.00    -0.116 OA 
HETATM   12  C   UNL     1     -10.404   5.350  69.800  1.00  0.00    -0.305 C  
ENDROOT
BRANCH   3  13
HETATM   13  S   UNL     1      -9.148   9.546  67.499  1.00  0.00    -0.130 SA 
BRANCH  13  14
HETATM   14  C   UNL     1     -10.286   9.922  66.111  1.00  0.00    -0.207 C  
HETATM   15  C   UNL     1      -9.601  10.329  64.811  1.00  0.00    -0.307 C  
HETATM   16  N   UNL     1      -9.237  11.718  65.034  1.00  0.00    -0.422 NA 
HETATM   17  C   UNL     1     -10.343  12.354  65.785  1.00  0.00    -0.263 C  
HETATM   18  C   UNL     1     -11.072  11.191  66.470  1.00  0.00    -0.233 C  
HETATM   19  H   UNL     1      -9.008  12.212  64.171  1.00  0.00     0.000 HD 
BRANCH  17  20
HETATM   20  C   UNL     1      -9.755  13.486  66.675  1.00  0.00    -0.280 C  
HETATM   21  O   UNL     1      -9.555  13.284  67.874  1.00  0.00    -0.203 OA 
HETATM   22  N   UNL     1      -9.385  14.644  66.004  1.00  0.00    -0.487 N  
HETATM   23  H   UNL     1      -9.520  14.649  64.993  1.00  0.00     0.000 HD 
BRANCH  22  24
HETATM   24  C   UNL     1      -8.839  15.820  66.577  1.00  0.00    -0.310 A  
HETATM   25  C   UNL     1      -7.476  15.998  66.841  1.00  0.00    -0.253 A  
HETATM   26  C   UNL     1      -6.996  17.189  67.397  1.00  0.00    -0.181 A  
HETATM   27  C   UNL     1      -7.874  18.220  67.712  1.00  0.00    -0.245 A  
HETATM   28  C   UNL     1      -9.244  18.048  67.485  1.00  0.00    -0.253 A  
HETATM   29  C   UNL     1     -10.223  19.114  67.808  1.00  0.00    -0.403 C  
HETATM   30  C   UNL     1      -9.718  16.860  66.901  1.00  0.00    -0.264 A  
HETATM   31  O   UNL     1      -9.893  19.855  68.888  1.00  0.00    -0.376 OA 
HETATM   32  O   UNL     1     -11.251  19.278  67.175  1.00  0.00    -0.324 OA 
ENDBRANCH  22  24
ENDBRANCH  17  20
ENDBRANCH  13  14
ENDBRANCH   3  13
BRANCH   7  33
HETATM   33  C   UNL     1     -11.702   5.757  72.046  1.00  0.00    -0.110 C  
HETATM   34  O   UNL     1     -12.601   6.834  72.306  1.00  0.00    -0.527 OA 
HETATM   35  H   UNL     1     -13.213   6.525  72.965  1.00  0.00     0.000 HD 
HETATM   36  C   UNL     1     -10.986   5.377  73.333  1.00  0.00    -0.349 C  
ENDBRANCH   7  33
TORSDOF 5
ENDMDL
MODEL       81
REMARK 921   NORMALIZED FREE ENERGY PREDICTED BY IDOCK:   -6.12 KCAL/MOL
REMARK 922        TOTAL FREE ENERGY PREDICTED BY IDOCK:   -9.60 KCAL/MOL
REMARK 923 INTER-LIGAND FREE ENERGY PREDICTED BY IDOCK:   -8.39 KCAL/MOL
REMARK 924 INTRA-LIGAND FREE ENERGY PREDICTED BY IDOCK:   -1.20 KCAL/MOL
REMARK 927      BINDING AFFINITY PREDICTED BY RF-SCORE:    0.00 PKD
ROOT
HETATM    1  C   UNL     1     -10.260  13.708  66.680  1.00  0.00    -0.276 C  
HETATM    2  C   UNL     1     -10.699  12.864  67.879  1.00  0.00    -0.235 C  
HETATM    3  C   UNL     1     -10.670  11.456  67.319  1.00  0.00    -0.241 C  
HETATM    4  C   UNL     1     -12.034  13.347  68.429  1.00  0.00    -0.359 C  
HETATM    5  O   UNL     1     -10.928  13.023  63.520  1.00  0.00    -0.296 OA 
HETATM    6  C   UNL     1     -10.242  11.458  66.040  1.00  0.00    -0.245 C  
HETATM    7  C   UNL     1     -11.231  14.390  65.664  1.00  0.00    -0.323 C  
HETATM    8  N   UNL     1      -9.933  12.738  65.596  1.00  0.00    -0.263 N  
HETATM    9  C   UNL     1     -10.001  10.266  65.169  1.00  0.00    -0.325 C  
HETATM   10  O   UNL     1      -9.808   9.136  65.588  1.00  0.00    -0.264 OA 
HETATM   11  O   UNL     1     -10.021  10.522  63.842  1.00  0.00    -0.325 OA 
HETATM   12  C   UNL     1     -10.691  13.375  64.655  1.00  0.00    -0.411 C  
ENDROOT
BRANCH   3  13
HETATM   13  S   UNL     1     -10.968  10.132  68.381  1.00  0.00    -0.221 SA 
BRANCH  13  14
HETATM   14  C   UNL     1      -9.861  10.415  69.815  1.00  0.00    -0.091 C  
HETATM   15  C   UNL     1      -8.384  10.147  69.549  1.00  0.00    -0.168 C  
HETATM   16  N   UNL     1      -8.279   8.700  69.615  1.00  0.00    -0.112 NA 
HETATM   17  C   UNL     1      -9.165   8.237  70.708  1.00  0.00    -0.153 C  
HETATM   18  C   UNL     1     -10.190   9.365  70.886  1.00  0.00    -0.373 C  
HETATM   19  H   UNL     1      -7.318   8.375  69.720  1.00  0.00     0.000 HD 
BRANCH  17  20
HETATM   20  C   UNL     1      -9.685   6.813  70.360  1.00  0.00    -0.175 C  
HETATM   21  O   UNL     1     -10.865   6.524  70.562  1.00  0.00    -0.238 OA 
HETATM   22  N   UNL     1      -8.773   5.982  69.724  1.00  0.00    -0.129 N  
HETATM   23  H   UNL     1      -7.852   6.376  69.532  1.00  0.00     0.000 HD 
BRANCH  22  24
HETATM   24  C   UNL     1      -8.988   4.642  69.313  1.00  0.00    -0.097 A  
HETATM   25  C   UNL     1      -9.151   3.572  70.199  1.00  0.00    -0.202 A  
HETATM   26  C   UNL     1      -9.374   2.273  69.731  1.00  0.00    -0.161 A  
HETATM   27  C   UNL     1      -9.426   2.018  68.365  1.00  0.00    -0.227 A  
HETATM   28  C   UNL     1      -9.234   3.070  67.464  1.00  0.00    -0.233 A  
HETATM   29  C   UNL     1      -9.274   2.851  65.997  1.00  0.00    -0.095 C  
HETATM   30  C   UNL     1      -9.037   4.379  67.939  1.00  0.00    -0.154 A  
HETATM   31  O   UNL     1      -8.802   1.648  65.607  1.00  0.00    -0.118 OA 
HETATM   32  O   UNL     1      -9.664   3.701  65.215  1.00  0.00    -0.173 OA 
ENDBRANCH  22  24
ENDBRANCH  17  20
ENDBRANCH  13  14
ENDBRANCH   3  13
BRANCH   7  33
HETATM   33  C   UNL     1     -10.970  15.866  65.436  1.00  0.00    -0.285 C  
HETATM   34  O   UNL     1     -11.190  16.112  64.047  1.00  0.00    -1.164 OA 
HETATM   35  H   UNL     1     -11.026  17.037  63.905  1.00  0.00     0.000 HD 
HETATM   36  C   UNL     1      -9.538  16.236  65.791  1.00  0.00    -0.266 C  
ENDBRANCH   7  33
TORSDOF 5
ENDMDL
MODEL       82
REMARK 921   NORMALIZED FREE ENERGY PREDICTED BY IDOCK:   -6.10 KCAL/MOL
REMARK 922        TOTAL FREE ENERGY PREDICTED BY IDOCK:   -9.56 KCAL/MOL
REMARK 923 INTER-LIGAND FREE ENERGY PREDICTED BY IDOCK:   -7.99 KCAL/MOL
REMARK 924 INTRA-LIGAND FREE ENERGY PREDICTED BY IDOCK:   -1.57 KCAL/MOL
REMARK 927      BINDING AFFINITY PREDICTED BY RF-SCORE:    0.00 PKD
ROOT
HETATM    1  C   UNL     1      -9.437  16.334  67.976  1.00  0.00    -0.223 C  
HETATM    2  C   UNL     1     -10.628  15.965  67.087  1.00  0.00    -0.316 C  
HETATM    3  C   UNL     1     -10.632  14.451  67.154  1.00  0.00    -0.277 C  
HETATM    4  C   UNL     1     -10.487  16.582  65.702  1.00  0.00    -0.341 C  
HETATM    5  O   UNL     1      -6.681  14.548  68.310  1.00  0.00    -0.096 OA 
HETATM    6  C   UNL     1      -9.659  14.005  67.974  1.00  0.00    -0.217 C  
HETATM    7  C   UNL     1      -7.983  16.584  67.464  1.00  0.00    -0.176 C  
HETATM    8  N   UNL     1      -8.935  15.049  68.539  1.00  0.00    -0.179 N  
HETATM    9  C   UNL     1      -9.389  12.587  68.364  1.00  0.00    -0.149 C  
HETATM   10  O   UNL     1     -10.211  11.687  68.294  1.00  0.00    -0.186 OA 
HETATM   11  O   UNL     1      -8.133  12.349  68.804  1.00  0.00    -0.058 OA 
HETATM   12  C   UNL     1      -7.634  15.288  68.199  1.00  0.00    -0.115 C  
ENDROOT
BRANCH   3  13
HETATM   13  S   UNL     1     -11.915  13.588  66.394  1.00  0.00    -0.418 SA 
BRANCH  13  14
HETATM   14  C   UNL     1     -11.513  13.618  64.604  1.00  0.00    -0.365 C  
HETATM   15  C   UNL     1     -12.260  12.590  63.762  1.00  0.00    -0.525 C  
HETATM   16  N   UNL     1     -11.544  11.352  64.014  1.00  0.00    -0.350 NA 
HETATM   17  C   UNL     1     -10.101  11.677  64.089  1.00  0.00    -0.297 C  
HETATM   18  C   UNL     1     -10.054  13.170  64.437  1.00  0.00    -0.224 C  
HETATM   19  H   UNL     1     -11.752  10.626  63.328  1.00  0.00     0.000 HD 
BRANCH  17  20
HETATM   20  C   UNL     1      -9.412  10.670  65.054  1.00  0.00    -0.243 C  
HETATM   21  O   UNL     1      -8.323  10.950  65.559  1.00  0.00    -0.154 OA 
HETATM   22  N   UNL     1     -10.154   9.541  65.370  1.00  0.00    -0.337 N  
HETATM   23  H   UNL     1     -11.083   9.473  64.955  1.00  0.00     0.000 HD 
BRANCH  22  24
HETATM   24  C   UNL     1      -9.756   8.471  66.211  1.00  0.00    -0.229 A  
HETATM   25  C   UNL     1      -8.727   7.575  65.898  1.00  0.00    -0.170 A  
HETATM   26  C   UNL     1      -8.371   6.546  66.776  1.00  0.00    -0.111 A  
HETATM   27  C   UNL     1      -9.047   6.387  67.981  1.00  0.00    -0.113 A  
HETATM   28  C   UNL     1     -10.099   7.253  68.297  1.00  0.00    -0.193 A  
HETATM   29  C   UNL     1     -10.855   7.123  69.566  1.00  0.00    -0.225 C  
HETATM   30  C   UNL     1     -10.435   8.303  67.423  1.00  0.00    -0.353 A  
HETATM   31  O   UNL     1     -10.990   5.851  69.998  1.00  0.00    -0.337 OA 
HETATM   32  O   UNL     1     -11.343   8.080  70.143  1.00  0.00    -0.204 OA 
ENDBRANCH  22  24
ENDBRANCH  17  20
ENDBRANCH  13  14
ENDBRANCH   3  13
BRANCH   7  33
HETATM   33  C   UNL     1      -7.365  17.886  67.934  1.00  0.00    -0.222 C  
HETATM   34  O   UNL     1      -6.852  17.647  69.244  1.00  0.00    -0.252 OA 
HETATM   35  H   UNL     1      -6.465  18.464  69.539  1.00  0.00     0.000 HD 
HETATM   36  C   UNL     1      -8.398  19.000  67.994  1.00  0.00    -0.335 C  
ENDBRANCH   7  33
TORSDOF 5
ENDMDL
MODEL       83
REMARK 921   NORMALIZED FREE ENERGY PREDICTED BY IDOCK:   -6.09 KCAL/MOL
REMARK 922        TOTAL FREE ENERGY PREDICTED BY IDOCK:   -9.56 KCAL/MOL
REMARK 923 INTER-LIGAND FREE ENERGY PREDICTED BY IDOCK:   -8.35 KCAL/MOL
REMARK 924 INTRA-LIGAND FREE ENERGY PREDICTED BY IDOCK:   -1.20 KCAL/MOL
REMARK 927      BINDING AFFINITY PREDICTED BY RF-SCORE:    0.00 PKD
ROOT
HETATM    1  C   UNL     1     -10.688   7.478  70.073  1.00  0.00    -0.240 C  
HETATM    2  C   UNL     1     -10.589   9.004  70.154  1.00  0.00    -0.250 C  
HETATM    3  C   UNL     1     -10.088   9.375  68.772  1.00  0.00    -0.193 C  
HETATM    4  C   UNL     1      -9.720   9.433  71.328  1.00  0.00    -0.210 C  
HETATM    5  O   UNL     1      -8.692   5.529  68.307  1.00  0.00    -0.100 OA 
HETATM    6  C   UNL     1      -9.963   8.279  67.997  1.00  0.00    -0.185 C  
HETATM    7  C   UNL     1      -9.567   6.485  70.516  1.00  0.00    -0.180 C  
HETATM    8  N   UNL     1     -10.340   7.121  68.668  1.00  0.00    -0.183 N  
HETATM    9  C   UNL     1      -9.575   8.235  66.553  1.00  0.00    -0.244 C  
HETATM   10  O   UNL     1      -9.669   9.181  65.788  1.00  0.00    -0.274 OA 
HETATM   11  O   UNL     1      -9.087   7.047  66.134  1.00  0.00    -0.162 OA 
HETATM   12  C   UNL     1      -9.430   6.168  69.025  1.00  0.00    -0.127 C  
ENDROOT
BRANCH   3  13
HETATM   13  S   UNL     1      -9.956  11.042  68.356  1.00  0.00    -0.193 SA 
BRANCH  13  14
HETATM   14  C   UNL     1     -11.614  11.506  67.724  1.00  0.00    -0.267 C  
HETATM   15  C   UNL     1     -11.655  11.888  66.248  1.00  0.00    -0.246 C  
HETATM   16  N   UNL     1     -11.147  13.249  66.232  1.00  0.00    -0.287 NA 
HETATM   17  C   UNL     1     -11.683  13.941  67.425  1.00  0.00    -0.389 C  
HETATM   18  C   UNL     1     -12.035  12.815  68.406  1.00  0.00    -0.275 C  
HETATM   19  H   UNL     1     -11.354  13.740  65.361  1.00  0.00     0.000 HD 
BRANCH  17  20
HETATM   20  C   UNL     1     -10.661  15.023  67.876  1.00  0.00    -0.259 C  
HETATM   21  O   UNL     1      -9.738  14.718  68.634  1.00  0.00    -0.213 OA 
HETATM   22  N   UNL     1     -10.807  16.269  67.282  1.00  0.00    -0.267 N  
HETATM   23  H   UNL     1     -11.559  16.365  66.601  1.00  0.00     0.000 HD 
BRANCH  22  24
HETATM   24  C   UNL     1     -10.019  17.423  67.525  1.00  0.00    -0.298 A  
HETATM   25  C   UNL     1     -10.163  18.241  68.651  1.00  0.00    -0.377 A  
HETATM   26  C   UNL     1      -9.345  19.360  68.841  1.00  0.00    -0.417 A  
HETATM   27  C   UNL     1      -8.376  19.689  67.900  1.00  0.00    -0.349 A  
HETATM   28  C   UNL     1      -8.240  18.901  66.752  1.00  0.00    -0.287 A  
HETATM   29  C   UNL     1      -7.225  19.212  65.715  1.00  0.00    -0.248 C  
HETATM   30  C   UNL     1      -9.046  17.761  66.579  1.00  0.00    -0.281 A  
HETATM   31  O   UNL     1      -6.988  20.531  65.555  1.00  0.00    -0.244 OA 
HETATM   32  O   UNL     1      -6.686  18.350  65.043  1.00  0.00    -0.473 OA 
ENDBRANCH  22  24
ENDBRANCH  17  20
ENDBRANCH  13  14
ENDBRANCH   3  13
BRANCH   7  33
HETATM   33  C   UNL     1     -10.030   5.394  71.461  1.00  0.00    -0.181 C  
HETATM   34  O   UNL     1     -10.232   4.224  70.669  1.00  0.00    -0.140 OA 
HETATM   35  H   UNL     1     -10.522   3.540  71.261  1.00  0.00     0.000 HD 
HETATM   36  C   UNL     1     -11.335   5.770  72.145  1.00  0.00    -0.317 C  
ENDBRANCH   7  33
TORSDOF 5
ENDMDL
MODEL       84
REMARK 921   NORMALIZED FREE ENERGY PREDICTED BY IDOCK:   -6.08 KCAL/MOL
REMARK 922        TOTAL FREE ENERGY PREDICTED BY IDOCK:   -9.54 KCAL/MOL
REMARK 923 INTER-LIGAND FREE ENERGY PREDICTED BY IDOCK:   -8.14 KCAL/MOL
REMARK 924 INTRA-LIGAND FREE ENERGY PREDICTED BY IDOCK:   -1.39 KCAL/MOL
REMARK 927      BINDING AFFINITY PREDICTED BY RF-SCORE:    0.00 PKD
ROOT
HETATM    1  C   UNL     1     -10.157  14.222  65.670  1.00  0.00    -0.341 C  
HETATM    2  C   UNL     1      -9.784  13.399  66.906  1.00  0.00    -0.253 C  
HETATM    3  C   UNL     1      -9.723  11.988  66.356  1.00  0.00    -0.225 C  
HETATM    4  C   UNL     1     -10.769  13.641  68.042  1.00  0.00    -0.258 C  
HETATM    5  O   UNL     1     -12.076  13.179  63.195  1.00  0.00    -0.541 OA 
HETATM    6  C   UNL     1      -9.962  11.981  65.029  1.00  0.00    -0.233 C  
HETATM    7  C   UNL     1     -11.613  14.614  65.265  1.00  0.00    -0.354 C  
HETATM    8  N   UNL     1     -10.182  13.260  64.532  1.00  0.00    -0.359 N  
HETATM    9  C   UNL     1      -9.913  10.800  64.111  1.00  0.00    -0.343 C  
HETATM   10  O   UNL     1      -9.307   9.768  64.352  1.00  0.00    -0.263 OA 
HETATM   11  O   UNL     1     -10.612  10.945  62.964  1.00  0.00    -0.116 OA 
HETATM   12  C   UNL     1     -11.412  13.657  64.088  1.00  0.00    -0.329 C  
ENDROOT
BRANCH   3  13
HETATM   13  S   UNL     1      -9.191  10.715  67.389  1.00  0.00    -0.142 SA 
BRANCH  13  14
HETATM   14  C   UNL     1      -7.445  11.119  67.781  1.00  0.00    -0.095 C  
HETATM   15  C   UNL     1      -6.433  10.055  67.373  1.00  0.00    -0.068 C  
HETATM   16  N   UNL     1      -6.549   9.052  68.416  1.00  0.00    -0.059 NA 
HETATM   17  C   UNL     1      -6.741   9.762  69.701  1.00  0.00    -0.055 C  
HETATM   18  C   UNL     1      -7.292  11.139  69.309  1.00  0.00    -0.097 C  
HETATM   19  H   UNL     1      -5.761   8.404  68.435  1.00  0.00     0.000 HD 
BRANCH  17  20
HETATM   20  C   UNL     1      -7.592   8.866  70.645  1.00  0.00    -0.099 C  
HETATM   21  O   UNL     1      -7.308   8.790  71.842  1.00  0.00    -0.225 OA 
HETATM   22  N   UNL     1      -8.714   8.286  70.069  1.00  0.00    -0.132 N  
HETATM   23  H   UNL     1      -8.888   8.502  69.088  1.00  0.00     0.000 HD 
BRANCH  22  24
HETATM   24  C   UNL     1      -9.644   7.423  70.702  1.00  0.00    -0.171 A  
HETATM   25  C   UNL     1      -9.373   6.089  71.026  1.00  0.00    -0.175 A  
HETATM   26  C   UNL     1     -10.329   5.291  71.664  1.00  0.00    -0.281 A  
HETATM   27  C   UNL     1     -11.580   5.810  71.979  1.00  0.00    -0.226 A  
HETATM   28  C   UNL     1     -11.880   7.132  71.634  1.00  0.00    -0.340 A  
HETATM   29  C   UNL     1     -13.200   7.733  71.942  1.00  0.00    -0.266 C  
HETATM   30  C   UNL     1     -10.906   7.939  71.017  1.00  0.00    -0.253 A  
HETATM   31  O   UNL     1     -14.229   6.861  71.881  1.00  0.00    -0.309 OA 
HETATM   32  O   UNL     1     -13.343   8.918  72.189  1.00  0.00    -0.378 OA 
ENDBRANCH  22  24
ENDBRANCH  17  20
ENDBRANCH  13  14
ENDBRANCH   3  13
BRANCH   7  33
HETATM   33  C   UNL     1     -11.814  16.090  64.986  1.00  0.00     0.393 C  
HETATM   34  O   UNL     1     -12.030  16.217  63.581  1.00  0.00    -1.375 OA 
HETATM   35  H   UNL     1     -12.156  17.143  63.406  1.00  0.00     0.000 HD 
HETATM   36  C   UNL     1     -10.589  16.900  65.381  1.00  0.00    -0.177 C  
ENDBRANCH   7  33
TORSDOF 5
ENDMDL
MODEL       85
REMARK 921   NORMALIZED FREE ENERGY PREDICTED BY IDOCK:   -6.08 KCAL/MOL
REMARK 922        TOTAL FREE ENERGY PREDICTED BY IDOCK:   -9.53 KCAL/MOL
REMARK 923 INTER-LIGAND FREE ENERGY PREDICTED BY IDOCK:   -7.77 KCAL/MOL
REMARK 924 INTRA-LIGAND FREE ENERGY PREDICTED BY IDOCK:   -1.76 KCAL/MOL
REMARK 927      BINDING AFFINITY PREDICTED BY RF-SCORE:    0.00 PKD
ROOT
HETATM    1  C   UNL     1     -11.678  11.562  70.362  1.00  0.00    -0.234 C  
HETATM    2  C   UNL     1     -11.459  12.078  68.937  1.00  0.00    -0.356 C  
HETATM    3  C   UNL     1     -11.959  13.506  69.024  1.00  0.00    -0.335 C  
HETATM    4  C   UNL     1     -12.148  11.180  67.919  1.00  0.00     0.231 C  
HETATM    5  O   UNL     1     -14.135  12.484  72.366  1.00  0.00    -0.222 OA 
HETATM    6  C   UNL     1     -12.351  13.802  70.279  1.00  0.00    -0.337 C  
HETATM    7  C   UNL     1     -12.949  10.795  70.849  1.00  0.00    -0.385 C  
HETATM    8  N   UNL     1     -12.177  12.728  71.145  1.00  0.00    -0.147 N  
HETATM    9  C   UNL     1     -12.829  15.125  70.787  1.00  0.00    -0.416 C  
HETATM   10  O   UNL     1     -12.591  16.194  70.247  1.00  0.00    -0.193 OA 
HETATM   11  O   UNL     1     -13.574  15.066  71.913  1.00  0.00    -0.348 OA 
HETATM   12  C   UNL     1     -13.240  12.051  71.674  1.00  0.00    -0.260 C  
ENDROOT
BRANCH   3  13
HETATM   13  S   UNL     1     -11.773  14.536  67.655  1.00  0.00    -0.370 SA 
BRANCH  13  14
HETATM   14  C   UNL     1     -10.292  15.553  68.022  1.00  0.00    -0.247 C  
HETATM   15  C   UNL     1      -9.399  15.845  66.821  1.00  0.00    -0.240 C  
HETATM   16  N   UNL     1      -8.646  14.615  66.645  1.00  0.00    -0.433 NA 
HETATM   17  C   UNL     1      -8.317  14.096  67.992  1.00  0.00    -0.160 C  
HETATM   18  C   UNL     1      -9.360  14.729  68.922  1.00  0.00    -0.184 C  
HETATM   19  H   UNL     1      -7.824  14.734  66.054  1.00  0.00     0.000 HD 
BRANCH  17  20
HETATM   20  C   UNL     1      -8.232  12.545  67.923  1.00  0.00    -0.165 C  
HETATM   21  O   UNL     1      -8.262  11.976  66.830  1.00  0.00    -0.171 OA 
HETATM   22  N   UNL     1      -8.010  11.902  69.133  1.00  0.00    -0.344 N  
HETATM   23  H   UNL     1      -7.913  12.498  69.955  1.00  0.00     0.000 HD 
BRANCH  22  24
HETATM   24  C   UNL     1      -7.905  10.505  69.346  1.00  0.00    -0.147 A  
HETATM   25  C   UNL     1      -6.993   9.918  70.230  1.00  0.00    -0.147 A  
HETATM   26  C   UNL     1      -6.946   8.530  70.406  1.00  0.00    -0.038 A  
HETATM   27  C   UNL     1      -7.805   7.703  69.690  1.00  0.00    -0.108 A  
HETATM   28  C   UNL     1      -8.701   8.270  68.778  1.00  0.00    -0.137 A  
HETATM   29  C   UNL     1      -9.634   7.432  67.986  1.00  0.00    -0.141 C  
HETATM   30  C   UNL     1      -8.763   9.667  68.625  1.00  0.00    -0.124 A  
HETATM   31  O   UNL     1      -9.136   6.223  67.648  1.00  0.00    -0.119 OA 
HETATM   32  O   UNL     1     -10.736   7.820  67.640  1.00  0.00    -0.225 OA 
ENDBRANCH  22  24
ENDBRANCH  17  20
ENDBRANCH  13  14
ENDBRANCH   3  13
BRANCH   7  33
HETATM   33  C   UNL     1     -12.661   9.493  71.569  1.00  0.00    -0.373 C  
HETATM   34  O   UNL     1     -13.218   9.616  72.878  1.00  0.00    -0.445 OA 
HETATM   35  H   UNL     1     -13.037   8.799  73.329  1.00  0.00     0.000 HD 
HETATM   36  C   UNL     1     -11.165   9.241  71.681  1.00  0.00    -0.449 C  
ENDBRANCH   7  33
TORSDOF 5
ENDMDL
MODEL       86
REMARK 921   NORMALIZED FREE ENERGY PREDICTED BY IDOCK:   -6.05 KCAL/MOL
REMARK 922        TOTAL FREE ENERGY PREDICTED BY IDOCK:   -9.50 KCAL/MOL
REMARK 923 INTER-LIGAND FREE ENERGY PREDICTED BY IDOCK:   -8.14 KCAL/MOL
REMARK 924 INTRA-LIGAND FREE ENERGY PREDICTED BY IDOCK:   -1.37 KCAL/MOL
REMARK 927      BINDING AFFINITY PREDICTED BY RF-SCORE:    0.00 PKD
ROOT
HETATM    1  C   UNL     1      -8.330   9.713  65.151  1.00  0.00    -0.137 C  
HETATM    2  C   UNL     1      -7.592  10.457  66.268  1.00  0.00    -0.127 C  
HETATM    3  C   UNL     1      -8.634  11.447  66.748  1.00  0.00    -0.166 C  
HETATM    4  C   UNL     1      -6.282  11.043  65.761  1.00  0.00     0.004 C  
HETATM    5  O   UNL     1     -10.595  11.042  63.151  1.00  0.00    -0.254 OA 
HETATM    6  C   UNL     1      -9.793  11.287  66.077  1.00  0.00    -0.229 C  
HETATM    7  C   UNL     1      -8.268  10.088  63.636  1.00  0.00    -0.160 C  
HETATM    8  N   UNL     1      -9.718  10.255  65.149  1.00  0.00    -0.277 N  
HETATM    9  C   UNL     1     -11.078  12.014  66.312  1.00  0.00    -0.317 C  
HETATM   10  O   UNL     1     -11.366  12.581  67.355  1.00  0.00    -0.275 OA 
HETATM   11  O   UNL     1     -11.928  12.017  65.262  1.00  0.00    -0.356 OA 
HETATM   12  C   UNL     1      -9.734  10.495  63.804  1.00  0.00    -0.326 C  
ENDROOT
BRANCH   3  13
HETATM   13  S   UNL     1      -8.280  12.426  68.122  1.00  0.00    -0.178 SA 
BRANCH  13  14
HETATM   14  C   UNL     1      -7.876  14.078  67.437  1.00  0.00    -0.170 C  
HETATM   15  C   UNL     1      -7.179  15.023  68.409  1.00  0.00    -0.111 C  
HETATM   16  N   UNL     1      -8.260  15.514  69.246  1.00  0.00    -0.242 NA 
HETATM   17  C   UNL     1      -9.441  15.719  68.376  1.00  0.00    -0.196 C  
HETATM   18  C   UNL     1      -9.194  14.816  67.161  1.00  0.00    -0.233 C  
HETATM   19  H   UNL     1      -8.006  16.350  69.774  1.00  0.00     0.000 HD 
BRANCH  17  20
HETATM   20  C   UNL     1     -10.727  15.489  69.220  1.00  0.00    -0.245 C  
HETATM   21  O   UNL     1     -11.661  16.290  69.147  1.00  0.00    -0.281 OA 
HETATM   22  N   UNL     1     -10.772  14.298  69.931  1.00  0.00    -0.450 N  
HETATM   23  H   UNL     1      -9.969  13.677  69.834  1.00  0.00     0.000 HD 
BRANCH  22  24
HETATM   24  C   UNL     1     -11.818  13.855  70.780  1.00  0.00    -0.180 A  
HETATM   25  C   UNL     1     -12.575  14.706  71.593  1.00  0.00    -0.403 A  
HETATM   26  C   UNL     1     -13.605  14.209  72.399  1.00  0.00    -0.632 A  
HETATM   27  C   UNL     1     -13.887  12.848  72.417  1.00  0.00    -0.443 A  
HETATM   28  C   UNL     1     -13.119  11.977  71.636  1.00  0.00    -0.422 A  
HETATM   29  C   UNL     1     -13.376  10.517  71.623  1.00  0.00    -0.324 C  
HETATM   30  C   UNL     1     -12.103  12.485  70.806  1.00  0.00    -0.240 A  
HETATM   31  O   UNL     1     -13.805  10.023  72.805  1.00  0.00     0.054 OA 
HETATM   32  O   UNL     1     -13.177   9.822  70.642  1.00  0.00    -0.186 OA 
ENDBRANCH  22  24
ENDBRANCH  17  20
ENDBRANCH  13  14
ENDBRANCH   3  13
BRANCH   7  33
HETATM   33  C   UNL     1      -7.926   8.934  62.715  1.00  0.00    -0.147 C  
HETATM   34  O   UNL     1      -9.161   8.313  62.359  1.00  0.00    -0.408 OA 
HETATM   35  H   UNL     1      -8.946   7.590  61.781  1.00  0.00     0.000 HD 
HETATM   36  C   UNL     1      -7.034   7.917  63.409  1.00  0.00    -0.076 C  
ENDBRANCH   7  33
TORSDOF 5
ENDMDL
MODEL       87
REMARK 921   NORMALIZED FREE ENERGY PREDICTED BY IDOCK:   -6.04 KCAL/MOL
REMARK 922        TOTAL FREE ENERGY PREDICTED BY IDOCK:   -9.48 KCAL/MOL
REMARK 923 INTER-LIGAND FREE ENERGY PREDICTED BY IDOCK:   -8.74 KCAL/MOL
REMARK 924 INTRA-LIGAND FREE ENERGY PREDICTED BY IDOCK:   -0.75 KCAL/MOL
REMARK 927      BINDING AFFINITY PREDICTED BY RF-SCORE:    0.00 PKD
ROOT
HETATM    1  C   UNL     1      -8.966  18.031  67.868  1.00  0.00    -0.265 C  
HETATM    2  C   UNL     1      -9.967  16.895  67.642  1.00  0.00    -0.271 C  
HETATM    3  C   UNL     1      -9.224  15.689  68.181  1.00  0.00    -0.185 C  
HETATM    4  C   UNL     1     -10.398  16.829  66.183  1.00  0.00    -0.338 C  
HETATM    5  O   UNL     1      -5.681  17.734  67.716  1.00  0.00    -0.139 OA 
HETATM    6  C   UNL     1      -8.026  16.049  68.683  1.00  0.00    -0.174 C  
HETATM    7  C   UNL     1      -7.937  18.539  66.809  1.00  0.00    -0.265 C  
HETATM    8  N   UNL     1      -7.810  17.419  68.583  1.00  0.00    -0.271 N  
HETATM    9  C   UNL     1      -7.036  15.166  69.374  1.00  0.00    -0.178 C  
HETATM   10  O   UNL     1      -7.315  14.100  69.898  1.00  0.00     0.136 OA 
HETATM   11  O   UNL     1      -5.767  15.630  69.375  1.00  0.00    -0.107 OA 
HETATM   12  C   UNL     1      -6.875  17.939  67.733  1.00  0.00    -0.191 C  
ENDROOT
BRANCH   3  13
HETATM   13  S   UNL     1     -10.042  14.174  68.257  1.00  0.00    -0.245 SA 
BRANCH  13  14
HETATM   14  C   UNL     1      -9.916  13.480  66.564  1.00  0.00    -0.287 C  
HETATM   15  C   UNL     1     -11.244  13.336  65.829  1.00  0.00    -0.294 C  
HETATM   16  N   UNL     1     -11.823  12.132  66.398  1.00  0.00    -0.607 NA 
HETATM   17  C   UNL     1     -10.724  11.162  66.608  1.00  0.00    -0.269 C  
HETATM   18  C   UNL     1      -9.454  12.020  66.681  1.00  0.00    -0.222 C  
HETATM   19  H   UNL     1     -12.584  11.752  65.834  1.00  0.00     0.000 HD 
BRANCH  17  20
HETATM   20  C   UNL     1     -11.079  10.261  67.824  1.00  0.00    -0.269 C  
HETATM   21  O   UNL     1     -12.007  10.575  68.572  1.00  0.00    -0.354 OA 
HETATM   22  N   UNL     1     -10.370   9.070  67.914  1.00  0.00    -0.225 N  
HETATM   23  H   UNL     1      -9.690   8.886  67.177  1.00  0.00     0.000 HD 
BRANCH  22  24
HETATM   24  C   UNL     1     -10.493   8.083  68.925  1.00  0.00    -0.191 A  
HETATM   25  C   UNL     1     -10.989   6.795  68.699  1.00  0.00    -0.261 A  
HETATM   26  C   UNL     1     -11.072   5.860  69.737  1.00  0.00    -0.422 A  
HETATM   27  C   UNL     1     -10.673   6.203  71.024  1.00  0.00    -0.317 A  
HETATM   28  C   UNL     1     -10.205   7.497  71.275  1.00  0.00    -0.198 A  
HETATM   29  C   UNL     1      -9.772   7.914  72.631  1.00  0.00    -0.240 C  
HETATM   30  C   UNL     1     -10.096   8.424  70.223  1.00  0.00    -0.196 A  
HETATM   31  O   UNL     1     -10.466   7.335  73.634  1.00  0.00    -0.365 OA 
HETATM   32  O   UNL     1      -8.893   8.738  72.816  1.00  0.00    -0.382 OA 
ENDBRANCH  22  24
ENDBRANCH  17  20
ENDBRANCH  13  14
ENDBRANCH   3  13
BRANCH   7  33
HETATM   33  C   UNL     1      -7.953  20.037  66.582  1.00  0.00    -0.314 C  
HETATM   34  O   UNL     1      -9.180  20.338  65.917  1.00  0.00    -0.589 OA 
HETATM   35  H   UNL     1      -9.191  21.278  65.775  1.00  0.00     0.000 HD 
HETATM   36  C   UNL     1      -6.788  20.479  65.710  1.00  0.00    -0.240 C  
ENDBRANCH   7  33
TORSDOF 5
ENDMDL
MODEL       88
REMARK 921   NORMALIZED FREE ENERGY PREDICTED BY IDOCK:   -6.03 KCAL/MOL
REMARK 922        TOTAL FREE ENERGY PREDICTED BY IDOCK:   -9.48 KCAL/MOL
REMARK 923 INTER-LIGAND FREE ENERGY PREDICTED BY IDOCK:   -8.46 KCAL/MOL
REMARK 924 INTRA-LIGAND FREE ENERGY PREDICTED BY IDOCK:   -1.01 KCAL/MOL
REMARK 927      BINDING AFFINITY PREDICTED BY RF-SCORE:    0.00 PKD
ROOT
HETATM    1  C   UNL     1     -12.757  14.691  70.011  1.00  0.00    -0.152 C  
HETATM    2  C   UNL     1     -11.887  15.642  69.185  1.00  0.00    -0.378 C  
HETATM    3  C   UNL     1     -11.274  14.715  68.154  1.00  0.00    -0.289 C  
HETATM    4  C   UNL     1     -10.914  16.405  70.074  1.00  0.00    -0.322 C  
HETATM    5  O   UNL     1     -12.057  11.527  70.638  1.00  0.00    -0.363 OA 
HETATM    6  C   UNL     1     -11.735  13.458  68.306  1.00  0.00    -0.356 C  
HETATM    7  C   UNL     1     -12.304  13.981  71.326  1.00  0.00    -0.436 C  
HETATM    8  N   UNL     1     -12.650  13.361  69.348  1.00  0.00     0.105 N  
HETATM    9  C   UNL     1     -11.433  12.276  67.440  1.00  0.00    -0.352 C  
HETATM   10  O   UNL     1     -11.031  12.352  66.290  1.00  0.00    -0.267 OA 
HETATM   11  O   UNL     1     -11.628  11.076  68.031  1.00  0.00    -0.452 OA 
HETATM   12  C   UNL     1     -12.358  12.692  70.503  1.00  0.00    -0.268 C  
ENDROOT
BRANCH   3  13
HETATM   13  S   UNL     1     -10.306  15.392  66.899  1.00  0.00    -0.283 SA 
BRANCH  13  14
HETATM   14  C   UNL     1      -8.769  15.948  67.732  1.00  0.00    -0.170 C  
HETATM   15  C   UNL     1      -7.541  16.021  66.831  1.00  0.00    -0.233 C  
HETATM   16  N   UNL     1      -7.112  14.638  66.723  1.00  0.00    -0.123 NA 
HETATM   17  C   UNL     1      -7.304  14.005  68.047  1.00  0.00    -0.141 C  
HETATM   18  C   UNL     1      -8.360  14.871  68.746  1.00  0.00    -0.170 C  
HETATM   19  H   UNL     1      -6.158  14.544  66.372  1.00  0.00     0.000 HD 
BRANCH  17  20
HETATM   20  C   UNL     1      -7.605  12.493  67.840  1.00  0.00    -0.133 C  
HETATM   21  O   UNL     1      -7.957  11.800  68.796  1.00  0.00    -0.133 OA 
HETATM   22  N   UNL     1      -7.561  12.049  66.525  1.00  0.00    -0.375 N  
HETATM   23  H   UNL     1      -7.346  12.747  65.814  1.00  0.00     0.000 HD 
BRANCH  22  24
HETATM   24  C   UNL     1      -7.783  10.725  66.068  1.00  0.00    -0.139 A  
HETATM   25  C   UNL     1      -7.136  10.164  64.963  1.00  0.00    -0.135 A  
HETATM   26  C   UNL     1      -7.388   8.845  64.569  1.00  0.00    -0.102 A  
HETATM   27  C   UNL     1      -8.305   8.068  65.268  1.00  0.00    -0.151 A  
HETATM   28  C   UNL     1      -8.987   8.623  66.356  1.00  0.00    -0.197 A  
HETATM   29  C   UNL     1      -9.978   7.838  67.132  1.00  0.00    -0.230 C  
HETATM   30  C   UNL     1      -8.709   9.940  66.765  1.00  0.00    -0.137 A  
HETATM   31  O   UNL     1     -10.675   6.948  66.393  1.00  0.00    -0.019 OA 
HETATM   32  O   UNL     1     -10.170   8.014  68.322  1.00  0.00    -0.194 OA 
ENDBRANCH  22  24
ENDBRANCH  17  20
ENDBRANCH  13  14
ENDBRANCH   3  13
BRANCH   7  33
HETATM   33  C   UNL     1     -13.257  14.148  72.493  1.00  0.00    -0.502 C  
HETATM   34  O   UNL     1     -13.888  12.884  72.692  1.00  0.00    -0.720 OA 
HETATM   35  H   UNL     1     -14.486  12.989  73.423  1.00  0.00     0.000 HD 
HETATM   36  C   UNL     1     -14.316  15.198  72.198  1.00  0.00    -0.647 C  
ENDBRANCH   7  33
TORSDOF 5
ENDMDL
MODEL       89
REMARK 921   NORMALIZED FREE ENERGY PREDICTED BY IDOCK:   -6.00 KCAL/MOL
REMARK 922        TOTAL FREE ENERGY PREDICTED BY IDOCK:   -9.44 KCAL/MOL
REMARK 923 INTER-LIGAND FREE ENERGY PREDICTED BY IDOCK:   -7.88 KCAL/MOL
REMARK 924 INTRA-LIGAND FREE ENERGY PREDICTED BY IDOCK:   -1.55 KCAL/MOL
REMARK 927      BINDING AFFINITY PREDICTED BY RF-SCORE:    0.00 PKD
ROOT
HETATM    1  C   UNL     1     -11.672  11.642  70.404  1.00  0.00    -0.199 C  
HETATM    2  C   UNL     1     -11.387  12.285  69.044  1.00  0.00    -0.333 C  
HETATM    3  C   UNL     1     -11.732  13.740  69.289  1.00  0.00    -0.327 C  
HETATM    4  C   UNL     1     -12.159  11.582  67.935  1.00  0.00     0.054 C  
HETATM    5  O   UNL     1     -14.034  12.596  72.504  1.00  0.00    -0.412 OA 
HETATM    6  C   UNL     1     -12.102  13.936  70.570  1.00  0.00    -0.356 C  
HETATM    7  C   UNL     1     -13.022  10.967  70.807  1.00  0.00    -0.308 C  
HETATM    8  N   UNL     1     -12.051  12.761  71.312  1.00  0.00     0.136 N  
HETATM    9  C   UNL     1     -12.439  15.239  71.222  1.00  0.00    -0.370 C  
HETATM   10  O   UNL     1     -12.084  16.329  70.802  1.00  0.00    -0.213 OA 
HETATM   11  O   UNL     1     -13.196  15.136  72.337  1.00  0.00    -0.333 OA 
HETATM   12  C   UNL     1     -13.184  12.148  71.766  1.00  0.00    -0.320 C  
ENDROOT
BRANCH   3  13
HETATM   13  S   UNL     1     -11.425  14.888  68.041  1.00  0.00    -0.344 SA 
BRANCH  13  14
HETATM   14  C   UNL     1      -9.641  15.284  68.187  1.00  0.00    -0.204 C  
HETATM   15  C   UNL     1      -9.003  15.853  66.924  1.00  0.00    -0.231 C  
HETATM   16  N   UNL     1      -8.788  14.683  66.091  1.00  0.00    -0.449 NA 
HETATM   17  C   UNL     1      -8.359  13.577  66.977  1.00  0.00    -0.080 C  
HETATM   18  C   UNL     1      -8.873  13.967  68.368  1.00  0.00    -0.177 C  
HETATM   19  H   UNL     1      -8.134  14.855  65.326  1.00  0.00     0.000 HD 
BRANCH  17  20
HETATM   20  C   UNL     1      -8.838  12.231  66.361  1.00  0.00    -0.071 C  
HETATM   21  O   UNL     1      -9.805  12.214  65.597  1.00  0.00    -0.244 OA 
HETATM   22  N   UNL     1      -8.044  11.127  66.643  1.00  0.00    -0.154 N  
HETATM   23  H   UNL     1      -7.217  11.294  67.215  1.00  0.00     0.000 HD 
BRANCH  22  24
HETATM   24  C   UNL     1      -8.263   9.793  66.217  1.00  0.00    -0.116 A  
HETATM   25  C   UNL     1      -7.731   9.253  65.040  1.00  0.00    -0.109 A  
HETATM   26  C   UNL     1      -7.973   7.923  64.681  1.00  0.00    -0.143 A  
HETATM   27  C   UNL     1      -8.763   7.111  65.486  1.00  0.00    -0.042 A  
HETATM   28  C   UNL     1      -9.330   7.642  66.649  1.00  0.00    -0.239 A  
HETATM   29  C   UNL     1     -10.185   6.820  67.540  1.00  0.00    -0.190 C  
HETATM   30  C   UNL     1      -9.062   8.972  67.021  1.00  0.00    -0.155 A  
HETATM   31  O   UNL     1     -10.928   5.897  66.892  1.00  0.00    -0.299 OA 
HETATM   32  O   UNL     1     -10.238   6.993  68.746  1.00  0.00    -0.165 OA 
ENDBRANCH  22  24
ENDBRANCH  17  20
ENDBRANCH  13  14
ENDBRANCH   3  13
BRANCH   7  33
HETATM   33  C   UNL     1     -12.881   9.570  71.379  1.00  0.00    -0.358 C  
HETATM   34  O   UNL     1     -13.560   9.569  72.634  1.00  0.00    -0.682 OA 
HETATM   35  H   UNL     1     -13.472   8.693  72.992  1.00  0.00     0.000 HD 
HETATM   36  C   UNL     1     -11.421   9.205  71.597  1.00  0.00    -0.451 C  
ENDBRANCH   7  33
TORSDOF 5
ENDMDL
MODEL       90
REMARK 921   NORMALIZED FREE ENERGY PREDICTED BY IDOCK:   -6.00 KCAL/MOL
REMARK 922        TOTAL FREE ENERGY PREDICTED BY IDOCK:   -9.43 KCAL/MOL
REMARK 923 INTER-LIGAND FREE ENERGY PREDICTED BY IDOCK:   -8.10 KCAL/MOL
REMARK 924 INTRA-LIGAND FREE ENERGY PREDICTED BY IDOCK:   -1.33 KCAL/MOL
REMARK 927      BINDING AFFINITY PREDICTED BY RF-SCORE:    0.00 PKD
ROOT
HETATM    1  C   UNL     1     -10.653  13.227  67.189  1.00  0.00    -0.258 C  
HETATM    2  C   UNL     1     -10.147  11.790  67.339  1.00  0.00    -0.212 C  
HETATM    3  C   UNL     1     -10.317  11.233  65.940  1.00  0.00    -0.253 C  
HETATM    4  C   UNL     1     -10.887  11.063  68.453  1.00  0.00    -0.264 C  
HETATM    5  O   UNL     1     -13.070  14.193  65.157  1.00  0.00    -0.757 OA 
HETATM    6  C   UNL     1     -10.788  12.178  65.102  1.00  0.00    -0.300 C  
HETATM    7  C   UNL     1     -12.115  13.694  67.480  1.00  0.00    -0.352 C  
HETATM    8  N   UNL     1     -10.970  13.398  65.742  1.00  0.00    -0.277 N  
HETATM    9  C   UNL     1     -11.013  12.045  63.629  1.00  0.00    -0.448 C  
HETATM   10  O   UNL     1     -10.475  11.206  62.924  1.00  0.00    -0.182 OA 
HETATM   11  O   UNL     1     -11.888  12.934  63.107  1.00  0.00    -0.506 OA 
HETATM   12  C   UNL     1     -12.216  13.912  65.969  1.00  0.00    -0.462 C  
ENDROOT
BRANCH   3  13
HETATM   13  S   UNL     1      -9.734   9.647  65.599  1.00  0.00    -0.279 SA 
BRANCH  13  14
HETATM   14  C   UNL     1      -7.927   9.848  65.356  1.00  0.00    -0.134 C  
HETATM   15  C   UNL     1      -7.214   8.620  64.801  1.00  0.00    -0.088 C  
HETATM   16  N   UNL     1      -7.073   7.753  65.958  1.00  0.00    -0.064 NA 
HETATM   17  C   UNL     1      -6.759   8.609  67.124  1.00  0.00    -0.063 C  
HETATM   18  C   UNL     1      -7.275  10.001  66.737  1.00  0.00    -0.091 C  
HETATM   19  H   UNL     1      -6.388   7.009  65.816  1.00  0.00     0.000 HD 
BRANCH  17  20
HETATM   20  C   UNL     1      -7.330   7.938  68.405  1.00  0.00    -0.101 C  
HETATM   21  O   UNL     1      -6.737   8.060  69.479  1.00  0.00    -0.038 OA 
HETATM   22  N   UNL     1      -8.565   7.323  68.259  1.00  0.00    -0.124 N  
HETATM   23  H   UNL     1      -8.993   7.371  67.335  1.00  0.00     0.000 HD 
BRANCH  22  24
HETATM   24  C   UNL     1      -9.294   6.633  69.261  1.00  0.00    -0.142 A  
HETATM   25  C   UNL     1      -8.956   5.361  69.734  1.00  0.00    -0.146 A  
HETATM   26  C   UNL     1      -9.709   4.737  70.735  1.00  0.00    -0.267 A  
HETATM   27  C   UNL     1     -10.823   5.371  71.273  1.00  0.00    -0.201 A  
HETATM   28  C   UNL     1     -11.196   6.630  70.789  1.00  0.00    -0.366 A  
HETATM   29  C   UNL     1     -12.378   7.347  71.325  1.00  0.00    -0.346 C  
HETATM   30  C   UNL     1     -10.420   7.265  69.802  1.00  0.00    -0.236 A  
HETATM   31  O   UNL     1     -13.392   6.536  71.697  1.00  0.00    -0.114 OA 
HETATM   32  O   UNL     1     -12.440   8.563  71.385  1.00  0.00    -0.308 OA 
ENDBRANCH  22  24
ENDBRANCH  17  20
ENDBRANCH  13  14
ENDBRANCH   3  13
BRANCH   7  33
HETATM   33  C   UNL     1     -12.221  14.891  68.405  1.00  0.00    -0.018 C  
HETATM   34  O   UNL     1     -11.131  15.755  68.084  1.00  0.00    -0.314 OA 
HETATM   35  H   UNL     1     -11.197  16.505  68.664  1.00  0.00     0.000 HD 
HETATM   36  C   UNL     1     -12.119  14.474  69.864  1.00  0.00    -0.389 C  
ENDBRANCH   7  33
TORSDOF 5
ENDMDL
MODEL       91
REMARK 921   NORMALIZED FREE ENERGY PREDICTED BY IDOCK:   -5.99 KCAL/MOL
REMARK 922        TOTAL FREE ENERGY PREDICTED BY IDOCK:   -9.42 KCAL/MOL
REMARK 923 INTER-LIGAND FREE ENERGY PREDICTED BY IDOCK:   -7.70 KCAL/MOL
REMARK 924 INTRA-LIGAND FREE ENERGY PREDICTED BY IDOCK:   -1.72 KCAL/MOL
REMARK 927      BINDING AFFINITY PREDICTED BY RF-SCORE:    0.00 PKD
ROOT
HETATM    1  C   UNL     1      -9.665   6.168  71.727  1.00  0.00    -0.153 C  
HETATM    2  C   UNL     1      -9.424   5.905  70.238  1.00  0.00    -0.191 C  
HETATM    3  C   UNL     1      -9.884   7.198  69.597  1.00  0.00    -0.162 C  
HETATM    4  C   UNL     1     -10.131   4.635  69.786  1.00  0.00    -0.243 C  
HETATM    5  O   UNL     1     -12.107   8.013  72.965  1.00  0.00    -0.200 OA 
HETATM    6  C   UNL     1     -10.275   8.085  70.534  1.00  0.00    -0.198 C  
HETATM    7  C   UNL     1     -10.959   5.770  72.506  1.00  0.00    -0.309 C  
HETATM    8  N   UNL     1     -10.136   7.579  71.820  1.00  0.00    -0.175 N  
HETATM    9  C   UNL     1     -10.719   9.496  70.310  1.00  0.00    -0.265 C  
HETATM   10  O   UNL     1     -10.448  10.152  69.316  1.00  0.00    -0.196 OA 
HETATM   11  O   UNL     1     -11.471  10.018  71.303  1.00  0.00    -0.364 OA 
HETATM   12  C   UNL     1     -11.220   7.275  72.595  1.00  0.00    -0.313 C  
ENDROOT
BRANCH   3  13
HETATM   13  S   UNL     1      -9.662   7.410  67.901  1.00  0.00    -0.148 SA 
BRANCH  13  14
HETATM   14  C   UNL     1      -7.861   7.683  67.687  1.00  0.00    -0.123 C  
HETATM   15  C   UNL     1      -7.197   8.488  68.799  1.00  0.00    -0.078 C  
HETATM   16  N   UNL     1      -7.553   9.861  68.488  1.00  0.00    -0.079 NA 
HETATM   17  C   UNL     1      -7.497  10.015  67.017  1.00  0.00    -0.092 C  
HETATM   18  C   UNL     1      -7.658   8.592  66.467  1.00  0.00    -0.088 C  
HETATM   19  H   UNL     1      -6.974  10.543  68.981  1.00  0.00     0.000 HD 
BRANCH  17  20
HETATM   20  C   UNL     1      -8.532  11.095  66.588  1.00  0.00    -0.164 C  
HETATM   21  O   UNL     1      -9.032  11.055  65.463  1.00  0.00    -0.201 OA 
HETATM   22  N   UNL     1      -8.909  11.990  67.581  1.00  0.00    -0.165 N  
HETATM   23  H   UNL     1      -8.487  11.858  68.499  1.00  0.00     0.000 HD 
BRANCH  22  24
HETATM   24  C   UNL     1      -9.820  13.068  67.450  1.00  0.00    -0.215 A  
HETATM   25  C   UNL     1     -11.109  13.069  67.994  1.00  0.00    -0.288 A  
HETATM   26  C   UNL     1     -11.958  14.171  67.842  1.00  0.00    -0.378 A  
HETATM   27  C   UNL     1     -11.536  15.288  67.130  1.00  0.00    -0.202 A  
HETATM   28  C   UNL     1     -10.262  15.292  66.551  1.00  0.00    -0.282 A  
HETATM   29  C   UNL     1      -9.766  16.457  65.778  1.00  0.00    -0.236 C  
HETATM   30  C   UNL     1      -9.402  14.194  66.731  1.00  0.00    -0.295 A  
HETATM   31  O   UNL     1     -10.727  17.111  65.091  1.00  0.00    -0.680 OA 
HETATM   32  O   UNL     1      -8.588  16.768  65.739  1.00  0.00    -0.485 OA 
ENDBRANCH  22  24
ENDBRANCH  17  20
ENDBRANCH  13  14
ENDBRANCH   3  13
BRANCH   7  33
HETATM   33  C   UNL     1     -10.711   4.990  73.782  1.00  0.00    -0.301 C  
HETATM   34  O   UNL     1      -9.405   5.346  74.234  1.00  0.00    -0.127 OA 
HETATM   35  H   UNL     1      -9.250   4.857  75.034  1.00  0.00     0.000 HD 
HETATM   36  C   UNL     1     -10.765   3.490  73.534  1.00  0.00    -0.307 C  
ENDBRANCH   7  33
TORSDOF 5
ENDMDL
MODEL       92
REMARK 921   NORMALIZED FREE ENERGY PREDICTED BY IDOCK:   -5.98 KCAL/MOL
REMARK 922        TOTAL FREE ENERGY PREDICTED BY IDOCK:   -9.41 KCAL/MOL
REMARK 923 INTER-LIGAND FREE ENERGY PREDICTED BY IDOCK:   -8.24 KCAL/MOL
REMARK 924 INTRA-LIGAND FREE ENERGY PREDICTED BY IDOCK:   -1.16 KCAL/MOL
REMARK 927      BINDING AFFINITY PREDICTED BY RF-SCORE:    0.00 PKD
ROOT
HETATM    1  C   UNL     1      -7.736   6.210  65.314  1.00  0.00    -0.095 C  
HETATM    2  C   UNL     1      -7.558   7.709  65.058  1.00  0.00    -0.097 C  
HETATM    3  C   UNL     1      -8.656   8.320  65.905  1.00  0.00    -0.150 C  
HETATM    4  C   UNL     1      -7.601   8.017  63.568  1.00  0.00    -0.133 C  
HETATM    5  O   UNL     1     -10.618   4.701  65.873  1.00  0.00    -0.304 OA 
HETATM    6  C   UNL     1      -9.327   7.366  66.581  1.00  0.00    -0.170 C  
HETATM    7  C   UNL     1      -8.579   5.245  64.422  1.00  0.00    -0.093 C  
HETATM    8  N   UNL     1      -8.822   6.096  66.329  1.00  0.00    -0.142 N  
HETATM    9  C   UNL     1     -10.423   7.570  67.579  1.00  0.00    -0.271 C  
HETATM   10  O   UNL     1     -10.615   8.612  68.185  1.00  0.00    -0.204 OA 
HETATM   11  O   UNL     1     -11.223   6.497  67.768  1.00  0.00    -0.305 OA 
HETATM   12  C   UNL     1      -9.530   5.168  65.619  1.00  0.00    -0.115 C  
ENDROOT
BRANCH   3  13
HETATM   13  S   UNL     1      -8.749  10.036  66.034  1.00  0.00    -0.142 SA 
BRANCH  13  14
HETATM   14  C   UNL     1     -10.197  10.512  65.014  1.00  0.00    -0.295 C  
HETATM   15  C   UNL     1      -9.958  11.680  64.065  1.00  0.00    -0.296 C  
HETATM   16  N   UNL     1     -10.044  12.846  64.927  1.00  0.00    -0.473 NA 
HETATM   17  C   UNL     1     -11.128  12.600  65.905  1.00  0.00    -0.289 C  
HETATM   18  C   UNL     1     -11.276  11.074  65.951  1.00  0.00     0.071 C  
HETATM   19  H   UNL     1     -10.168  13.716  64.408  1.00  0.00     0.000 HD 
BRANCH  17  20
HETATM   20  C   UNL     1     -10.790  13.352  67.224  1.00  0.00    -0.269 C  
HETATM   21  O   UNL     1      -9.614  13.537  67.542  1.00  0.00    -0.210 OA 
HETATM   22  N   UNL     1     -11.878  13.871  67.913  1.00  0.00    -0.363 N  
HETATM   23  H   UNL     1     -12.796  13.726  67.494  1.00  0.00     0.000 HD 
BRANCH  22  24
HETATM   24  C   UNL     1     -11.846  14.583  69.138  1.00  0.00    -0.319 A  
HETATM   25  C   UNL     1     -11.143  15.779  69.327  1.00  0.00    -0.297 A  
HETATM   26  C   UNL     1     -11.161  16.442  70.558  1.00  0.00    -0.214 A  
HETATM   27  C   UNL     1     -11.872  15.914  71.629  1.00  0.00    -0.565 A  
HETATM   28  C   UNL     1     -12.555  14.703  71.469  1.00  0.00    -0.410 A  
HETATM   29  C   UNL     1     -13.324  14.095  72.582  1.00  0.00    -0.541 C  
HETATM   30  C   UNL     1     -12.557  14.054  70.221  1.00  0.00    -0.354 A  
HETATM   31  O   UNL     1     -12.792  14.314  73.804  1.00  0.00    -0.381 OA 
HETATM   32  O   UNL     1     -14.326  13.424  72.400  1.00  0.00    -0.617 OA 
ENDBRANCH  22  24
ENDBRANCH  17  20
ENDBRANCH  13  14
ENDBRANCH   3  13
BRANCH   7  33
HETATM   33  C   UNL     1      -7.848   3.992  63.982  1.00  0.00    -0.084 C  
HETATM   34  O   UNL     1      -8.316   2.930  64.813  1.00  0.00    -0.086 OA 
HETATM   35  H   UNL     1      -7.857   2.145  64.537  1.00  0.00     0.000 HD 
HETATM   36  C   UNL     1      -6.344   4.140  64.155  1.00  0.00    -0.034 C  
ENDBRANCH   7  33
TORSDOF 5
ENDMDL
MODEL       93
REMARK 921   NORMALIZED FREE ENERGY PREDICTED BY IDOCK:   -5.97 KCAL/MOL
REMARK 922        TOTAL FREE ENERGY PREDICTED BY IDOCK:   -9.40 KCAL/MOL
REMARK 923 INTER-LIGAND FREE ENERGY PREDICTED BY IDOCK:   -7.44 KCAL/MOL
REMARK 924 INTRA-LIGAND FREE ENERGY PREDICTED BY IDOCK:   -1.96 KCAL/MOL
REMARK 927      BINDING AFFINITY PREDICTED BY RF-SCORE:    0.00 PKD
ROOT
HETATM    1  C   UNL     1      -8.051   4.515  65.964  1.00  0.00    -0.103 C  
HETATM    2  C   UNL     1      -7.722   4.544  67.458  1.00  0.00    -0.085 C  
HETATM    3  C   UNL     1      -8.147   5.941  67.862  1.00  0.00    -0.105 C  
HETATM    4  C   UNL     1      -6.263   4.181  67.704  1.00  0.00    -0.036 C  
HETATM    5  O   UNL     1      -7.870   7.104  63.923  1.00  0.00    -0.122 OA 
HETATM    6  C   UNL     1      -8.679   6.602  66.815  1.00  0.00    -0.121 C  
HETATM    7  C   UNL     1      -7.042   4.852  64.820  1.00  0.00    -0.062 C  
HETATM    8  N   UNL     1      -8.705   5.821  65.665  1.00  0.00    -0.151 N  
HETATM    9  C   UNL     1      -9.285   7.969  66.825  1.00  0.00    -0.165 C  
HETATM   10  O   UNL     1      -9.709   8.525  67.826  1.00  0.00    -0.152 OA 
HETATM   11  O   UNL     1      -9.328   8.579  65.620  1.00  0.00    -0.162 OA 
HETATM   12  C   UNL     1      -7.907   6.094  64.591  1.00  0.00    -0.113 C  
ENDROOT
BRANCH   3  13
HETATM   13  S   UNL     1      -8.084   6.381  69.528  1.00  0.00    -0.119 SA 
BRANCH  13  14
HETATM   14  C   UNL     1      -9.529   5.551  70.293  1.00  0.00    -0.165 C  
HETATM   15  C   UNL     1     -10.772   5.484  69.412  1.00  0.00    -0.242 C  
HETATM   16  N   UNL     1     -11.342   6.816  69.520  1.00  0.00    -0.540 NA 
HETATM   17  C   UNL     1     -11.172   7.263  70.921  1.00  0.00    -0.272 C  
HETATM   18  C   UNL     1     -10.012   6.418  71.464  1.00  0.00    -0.200 C  
HETATM   19  H   UNL     1     -12.311   6.860  69.204  1.00  0.00     0.000 HD 
BRANCH  17  20
HETATM   20  C   UNL     1     -11.030   8.812  70.938  1.00  0.00    -0.262 C  
HETATM   21  O   UNL     1     -10.144   9.341  71.611  1.00  0.00    -0.311 OA 
HETATM   22  N   UNL     1     -11.873   9.499  70.074  1.00  0.00    -0.457 N  
HETATM   23  H   UNL     1     -12.500   8.934  69.502  1.00  0.00     0.000 HD 
BRANCH  22  24
HETATM   24  C   UNL     1     -11.952  10.904  69.906  1.00  0.00    -0.353 A  
HETATM   25  C   UNL     1     -12.304  11.793  70.928  1.00  0.00    -0.420 A  
HETATM   26  C   UNL     1     -12.352  13.173  70.702  1.00  0.00    -0.405 A  
HETATM   27  C   UNL     1     -12.061  13.689  69.444  1.00  0.00    -0.364 A  
HETATM   28  C   UNL     1     -11.739  12.813  68.402  1.00  0.00    -0.380 A  
HETATM   29  C   UNL     1     -11.425  13.312  67.040  1.00  0.00    -0.339 C  
HETATM   30  C   UNL     1     -11.665  11.429  68.641  1.00  0.00    -0.394 A  
HETATM   31  O   UNL     1     -12.113  14.419  66.688  1.00  0.00    -0.419 OA 
HETATM   32  O   UNL     1     -10.645  12.745  66.296  1.00  0.00    -0.253 OA 
ENDBRANCH  22  24
ENDBRANCH  17  20
ENDBRANCH  13  14
ENDBRANCH   3  13
BRANCH   7  33
HETATM   33  C   UNL     1      -6.955   3.805  63.728  1.00  0.00    -0.045 C  
HETATM   34  O   UNL     1      -7.781   4.261  62.656  1.00  0.00    -0.061 OA 
HETATM   35  H   UNL     1      -7.726   3.604  61.971  1.00  0.00     0.000 HD 
HETATM   36  C   UNL     1      -7.460   2.455  64.213  1.00  0.00    -0.059 C  
ENDBRANCH   7  33
TORSDOF 5
ENDMDL
MODEL       94
REMARK 921   NORMALIZED FREE ENERGY PREDICTED BY IDOCK:   -5.97 KCAL/MOL
REMARK 922        TOTAL FREE ENERGY PREDICTED BY IDOCK:   -9.40 KCAL/MOL
REMARK 923 INTER-LIGAND FREE ENERGY PREDICTED BY IDOCK:   -7.88 KCAL/MOL
REMARK 924 INTRA-LIGAND FREE ENERGY PREDICTED BY IDOCK:   -1.51 KCAL/MOL
REMARK 927      BINDING AFFINITY PREDICTED BY RF-SCORE:    0.00 PKD
ROOT
HETATM    1  C   UNL     1      -8.951   7.593  67.179  1.00  0.00    -0.126 C  
HETATM    2  C   UNL     1      -8.829   8.821  68.085  1.00  0.00    -0.141 C  
HETATM    3  C   UNL     1      -8.997   9.968  67.109  1.00  0.00    -0.135 C  
HETATM    4  C   UNL     1      -7.529   8.789  68.876  1.00  0.00    -0.083 C  
HETATM    5  O   UNL     1      -7.947   7.435  64.038  1.00  0.00    -0.136 OA 
HETATM    6  C   UNL     1      -9.229   9.508  65.863  1.00  0.00    -0.206 C  
HETATM    7  C   UNL     1      -7.748   6.845  66.522  1.00  0.00    -0.101 C  
HETATM    8  N   UNL     1      -9.265   8.119  65.820  1.00  0.00    -0.095 N  
HETATM    9  C   UNL     1      -9.525  10.320  64.642  1.00  0.00    -0.293 C  
HETATM   10  O   UNL     1      -9.952  11.463  64.665  1.00  0.00    -0.242 OA 
HETATM   11  O   UNL     1      -9.273   9.695  63.471  1.00  0.00    -0.242 OA 
HETATM   12  C   UNL     1      -8.289   7.393  65.199  1.00  0.00    -0.079 C  
ENDROOT
BRANCH   3  13
HETATM   13  S   UNL     1      -9.068  11.578  67.721  1.00  0.00    -0.170 SA 
BRANCH  13  14
HETATM   14  C   UNL     1     -10.713  11.709  68.522  1.00  0.00    -0.218 C  
HETATM   15  C   UNL     1     -11.898  11.437  67.602  1.00  0.00    -0.078 C  
HETATM   16  N   UNL     1     -12.042  12.674  66.853  1.00  0.00    -0.499 NA 
HETATM   17  C   UNL     1     -11.777  13.794  67.783  1.00  0.00    -0.358 C  
HETATM   18  C   UNL     1     -10.938  13.178  68.910  1.00  0.00    -0.270 C  
HETATM   19  H   UNL     1     -12.946  12.752  66.384  1.00  0.00     0.000 HD 
BRANCH  17  20
HETATM   20  C   UNL     1     -11.176  14.981  66.977  1.00  0.00    -0.328 C  
HETATM   21  O   UNL     1     -11.205  14.964  65.745  1.00  0.00    -0.335 OA 
HETATM   22  N   UNL     1     -10.736  16.058  67.735  1.00  0.00    -0.316 N  
HETATM   23  H   UNL     1     -10.853  15.983  68.745  1.00  0.00     0.000 HD 
BRANCH  22  24
HETATM   24  C   UNL     1     -10.142  17.250  67.251  1.00  0.00    -0.300 A  
HETATM   25  C   UNL     1     -10.782  18.495  67.249  1.00  0.00    -0.417 A  
HETATM   26  C   UNL     1     -10.136  19.639  66.770  1.00  0.00    -0.537 A  
HETATM   27  C   UNL     1      -8.841  19.558  66.270  1.00  0.00    -0.391 A  
HETATM   28  C   UNL     1      -8.198  18.316  66.234  1.00  0.00    -0.241 A  
HETATM   29  C   UNL     1      -6.819  18.174  65.706  1.00  0.00    -0.270 C  
HETATM   30  C   UNL     1      -8.840  17.173  66.743  1.00  0.00    -0.270 A  
HETATM   31  O   UNL     1      -6.527  19.018  64.693  1.00  0.00    -0.489 OA 
HETATM   32  O   UNL     1      -6.036  17.340  66.127  1.00  0.00    -0.208 OA 
ENDBRANCH  22  24
ENDBRANCH  17  20
ENDBRANCH  13  14
ENDBRANCH   3  13
BRANCH   7  33
HETATM   33  C   UNL     1      -7.739   5.346  66.748  1.00  0.00    -0.100 C  
HETATM   34  O   UNL     1      -7.843   4.736  65.462  1.00  0.00    -0.092 OA 
HETATM   35  H   UNL     1      -7.838   3.796  65.604  1.00  0.00     0.000 HD 
HETATM   36  C   UNL     1      -8.914   4.908  67.609  1.00  0.00    -0.116 C  
ENDBRANCH   7  33
TORSDOF 5
ENDMDL
MODEL       95
REMARK 921   NORMALIZED FREE ENERGY PREDICTED BY IDOCK:   -5.96 KCAL/MOL
REMARK 922        TOTAL FREE ENERGY PREDICTED BY IDOCK:   -9.38 KCAL/MOL
REMARK 923 INTER-LIGAND FREE ENERGY PREDICTED BY IDOCK:   -8.51 KCAL/MOL
REMARK 924 INTRA-LIGAND FREE ENERGY PREDICTED BY IDOCK:   -0.87 KCAL/MOL
REMARK 927      BINDING AFFINITY PREDICTED BY RF-SCORE:    0.00 PKD
ROOT
HETATM    1  C   UNL     1     -11.265  13.717  65.839  1.00  0.00    -0.302 C  
HETATM    2  C   UNL     1     -11.360  12.340  65.177  1.00  0.00    -0.376 C  
HETATM    3  C   UNL     1     -10.308  11.544  65.923  1.00  0.00    -0.247 C  
HETATM    4  C   UNL     1     -11.186  12.446  63.668  1.00  0.00    -0.544 C  
HETATM    5  O   UNL     1      -8.502  15.073  67.032  1.00  0.00    -0.202 OA 
HETATM    6  C   UNL     1      -9.733  12.293  66.886  1.00  0.00    -0.212 C  
HETATM    7  C   UNL     1     -10.394  14.903  65.315  1.00  0.00    -0.424 C  
HETATM    8  N   UNL     1     -10.269  13.574  66.938  1.00  0.00    -0.253 N  
HETATM    9  C   UNL     1      -8.713  11.848  67.885  1.00  0.00    -0.167 C  
HETATM   10  O   UNL     1      -8.526  10.684  68.205  1.00  0.00    -0.117 OA 
HETATM   11  O   UNL     1      -7.975  12.844  68.424  1.00  0.00    -0.146 OA 
HETATM   12  C   UNL     1      -9.546  14.672  66.568  1.00  0.00    -0.289 C  
ENDROOT
BRANCH   3  13
HETATM   13  S   UNL     1     -10.154   9.858  65.597  1.00  0.00    -0.155 SA 
BRANCH  13  14
HETATM   14  C   UNL     1      -8.554   9.689  64.717  1.00  0.00    -0.179 C  
HETATM   15  C   UNL     1      -8.480   8.521  63.739  1.00  0.00    -0.022 C  
HETATM   16  N   UNL     1      -8.256   7.370  64.596  1.00  0.00    -0.301 NA 
HETATM   17  C   UNL     1      -7.332   7.788  65.675  1.00  0.00    -0.073 C  
HETATM   18  C   UNL     1      -7.480   9.313  65.748  1.00  0.00    -0.098 C  
HETATM   19  H   UNL     1      -7.923   6.552  64.084  1.00  0.00     0.000 HD 
BRANCH  17  20
HETATM   20  C   UNL     1      -7.644   6.952  66.950  1.00  0.00    -0.094 C  
HETATM   21  O   UNL     1      -6.857   6.079  67.319  1.00  0.00    -0.059 OA 
HETATM   22  N   UNL     1      -8.769   7.344  67.662  1.00  0.00    -0.125 N  
HETATM   23  H   UNL     1      -9.285   8.143  67.297  1.00  0.00     0.000 HD 
BRANCH  22  24
HETATM   24  C   UNL     1      -9.276   6.746  68.844  1.00  0.00    -0.131 A  
HETATM   25  C   UNL     1      -9.831   5.463  68.892  1.00  0.00    -0.226 A  
HETATM   26  C   UNL     1     -10.302   4.923  70.093  1.00  0.00    -0.253 A  
HETATM   27  C   UNL     1     -10.239   5.664  71.268  1.00  0.00    -0.279 A  
HETATM   28  C   UNL     1      -9.717   6.961  71.233  1.00  0.00    -0.175 A  
HETATM   29  C   UNL     1      -9.632   7.795  72.457  1.00  0.00    -0.192 C  
HETATM   30  C   UNL     1      -9.219   7.489  70.028  1.00  0.00    -0.151 A  
HETATM   31  O   UNL     1     -10.637   7.588  73.335  1.00  0.00    -0.375 OA 
HETATM   32  O   UNL     1      -8.752   8.621  72.631  1.00  0.00    -0.380 OA 
ENDBRANCH  22  24
ENDBRANCH  17  20
ENDBRANCH  13  14
ENDBRANCH   3  13
BRANCH   7  33
HETATM   33  C   UNL     1     -11.140  16.214  65.162  1.00  0.00    -0.249 C  
HETATM   34  O   UNL     1     -11.337  16.413  63.763  1.00  0.00    -1.487 OA 
HETATM   35  H   UNL     1     -11.804  17.235  63.667  1.00  0.00     0.000 HD 
HETATM   36  C   UNL     1     -10.338  17.376  65.727  1.00  0.00    -0.226 C  
ENDBRANCH   7  33
TORSDOF 5
ENDMDL
MODEL       96
REMARK 921   NORMALIZED FREE ENERGY PREDICTED BY IDOCK:   -5.92 KCAL/MOL
REMARK 922        TOTAL FREE ENERGY PREDICTED BY IDOCK:   -9.34 KCAL/MOL
REMARK 923 INTER-LIGAND FREE ENERGY PREDICTED BY IDOCK:   -8.22 KCAL/MOL
REMARK 924 INTRA-LIGAND FREE ENERGY PREDICTED BY IDOCK:   -1.12 KCAL/MOL
REMARK 927      BINDING AFFINITY PREDICTED BY RF-SCORE:    0.00 PKD
ROOT
HETATM    1  C   UNL     1      -9.072   5.444  66.261  1.00  0.00    -0.143 C  
HETATM    2  C   UNL     1      -9.307   6.748  67.029  1.00  0.00    -0.165 C  
HETATM    3  C   UNL     1      -8.897   6.377  68.440  1.00  0.00    -0.119 C  
HETATM    4  C   UNL     1     -10.737   7.240  66.846  1.00  0.00    -0.346 C  
HETATM    5  O   UNL     1      -9.454   2.408  67.498  1.00  0.00    -0.154 OA 
HETATM    6  C   UNL     1      -8.450   5.106  68.490  1.00  0.00    -0.088 C  
HETATM    7  C   UNL     1     -10.160   4.356  65.994  1.00  0.00    -0.260 C  
HETATM    8  N   UNL     1      -8.475   4.495  67.242  1.00  0.00    -0.104 N  
HETATM    9  C   UNL     1      -7.883   4.396  69.679  1.00  0.00    -0.057 C  
HETATM   10  O   UNL     1      -7.413   4.959  70.655  1.00  0.00    -0.061 OA 
HETATM   11  O   UNL     1      -7.933   3.047  69.611  1.00  0.00    -0.046 OA 
HETATM   12  C   UNL     1      -9.347   3.484  66.953  1.00  0.00    -0.188 C  
ENDROOT
BRANCH   3  13
HETATM   13  S   UNL     1      -8.867   7.606  69.648  1.00  0.00    -0.140 SA 
BRANCH  13  14
HETATM   14  C   UNL     1      -7.272   8.477  69.399  1.00  0.00    -0.062 C  
HETATM   15  C   UNL     1      -6.939   9.521  70.459  1.00  0.00    -0.123 C  
HETATM   16  N   UNL     1      -7.749  10.666  70.081  1.00  0.00    -0.407 NA 
HETATM   17  C   UNL     1      -7.740  10.751  68.603  1.00  0.00    -0.114 C  
HETATM   18  C   UNL     1      -7.390   9.334  68.130  1.00  0.00    -0.079 C  
HETATM   19  H   UNL     1      -7.448  11.531  70.530  1.00  0.00     0.000 HD 
BRANCH  17  20
HETATM   20  C   UNL     1      -9.083  11.378  68.131  1.00  0.00    -0.174 C  
HETATM   21  O   UNL     1     -10.053  11.396  68.890  1.00  0.00    -0.204 OA 
HETATM   22  N   UNL     1      -9.053  11.990  66.885  1.00  0.00    -0.191 N  
HETATM   23  H   UNL     1      -8.159  11.985  66.395  1.00  0.00     0.000 HD 
BRANCH  22  24
HETATM   24  C   UNL     1     -10.136  12.622  66.223  1.00  0.00    -0.253 A  
HETATM   25  C   UNL     1     -11.328  11.972  65.884  1.00  0.00    -0.391 A  
HETATM   26  C   UNL     1     -12.367  12.655  65.243  1.00  0.00    -0.528 A  
HETATM   27  C   UNL     1     -12.227  13.999  64.916  1.00  0.00    -0.455 A  
HETATM   28  C   UNL     1     -11.029  14.657  65.218  1.00  0.00    -0.374 A  
HETATM   29  C   UNL     1     -10.827  16.088  64.886  1.00  0.00    -0.372 C  
HETATM   30  C   UNL     1      -9.998  13.974  65.888  1.00  0.00    -0.325 A  
HETATM   31  O   UNL     1     -11.447  16.483  63.753  1.00  0.00    -1.065 OA 
HETATM   32  O   UNL     1     -10.130  16.828  65.559  1.00  0.00    -0.566 OA 
ENDBRANCH  22  24
ENDBRANCH  17  20
ENDBRANCH  13  14
ENDBRANCH   3  13
BRANCH   7  33
HETATM   33  C   UNL     1     -10.287   3.934  64.544  1.00  0.00    -0.220 C  
HETATM   34  O   UNL     1     -10.197   2.510  64.521  1.00  0.00    -0.361 OA 
HETATM   35  H   UNL     1     -10.276   2.245  63.612  1.00  0.00     0.000 HD 
HETATM   36  C   UNL     1      -9.170   4.522  63.696  1.00  0.00    -0.086 C  
ENDBRANCH   7  33
TORSDOF 5
ENDMDL
MODEL       97
REMARK 921   NORMALIZED FREE ENERGY PREDICTED BY IDOCK:   -5.91 KCAL/MOL
REMARK 922        TOTAL FREE ENERGY PREDICTED BY IDOCK:   -9.32 KCAL/MOL
REMARK 923 INTER-LIGAND FREE ENERGY PREDICTED BY IDOCK:   -7.97 KCAL/MOL
REMARK 924 INTRA-LIGAND FREE ENERGY PREDICTED BY IDOCK:   -1.35 KCAL/MOL
REMARK 927      BINDING AFFINITY PREDICTED BY RF-SCORE:    0.00 PKD
ROOT
HETATM    1  C   UNL     1      -9.557  17.759  67.720  1.00  0.00    -0.272 C  
HETATM    2  C   UNL     1     -10.201  16.399  67.437  1.00  0.00    -0.281 C  
HETATM    3  C   UNL     1      -9.226  15.434  68.080  1.00  0.00    -0.186 C  
HETATM    4  C   UNL     1     -10.457  16.214  65.948  1.00  0.00    -0.366 C  
HETATM    5  O   UNL     1      -6.310  18.333  67.881  1.00  0.00    -0.186 OA 
HETATM    6  C   UNL     1      -8.218  16.098  68.679  1.00  0.00    -0.202 C  
HETATM    7  C   UNL     1      -8.598  18.513  66.744  1.00  0.00    -0.290 C  
HETATM    8  N   UNL     1      -8.357  17.476  68.557  1.00  0.00    -0.271 N  
HETATM    9  C   UNL     1      -7.104  15.510  69.486  1.00  0.00    -0.195 C  
HETATM   10  O   UNL     1      -7.146  14.411  70.015  1.00  0.00    -0.048 OA 
HETATM   11  O   UNL     1      -6.005  16.290  69.589  1.00  0.00    -0.155 OA 
HETATM   12  C   UNL     1      -7.512  18.218  67.781  1.00  0.00    -0.221 C  
ENDROOT
BRANCH   3  13
HETATM   13  S   UNL     1      -9.625  13.758  68.128  1.00  0.00    -0.218 SA 
BRANCH  13  14
HETATM   14  C   UNL     1     -11.451  13.709  68.295  1.00  0.00    -0.313 C  
HETATM   15  C   UNL     1     -11.977  14.020  69.692  1.00  0.00    -0.339 C  
HETATM   16  N   UNL     1     -11.767  12.781  70.421  1.00  0.00    -0.541 NA 
HETATM   17  C   UNL     1     -12.071  11.663  69.500  1.00  0.00    -0.270 C  
HETATM   18  C   UNL     1     -11.909  12.257  68.095  1.00  0.00    -0.372 C  
HETATM   19  H   UNL     1     -12.301  12.736  71.290  1.00  0.00     0.000 HD 
BRANCH  17  20
HETATM   20  C   UNL     1     -11.193  10.440  69.893  1.00  0.00    -0.306 C  
HETATM   21  O   UNL     1     -11.641   9.581  70.654  1.00  0.00    -0.267 OA 
HETATM   22  N   UNL     1      -9.969  10.350  69.245  1.00  0.00    -0.221 N  
HETATM   23  H   UNL     1      -9.756  11.081  68.566  1.00  0.00     0.000 HD 
BRANCH  22  24
HETATM   24  C   UNL     1      -8.983   9.348  69.428  1.00  0.00    -0.157 A  
HETATM   25  C   UNL     1      -8.884   8.198  68.636  1.00  0.00    -0.134 A  
HETATM   26  C   UNL     1      -7.879   7.251  68.859  1.00  0.00    -0.118 A  
HETATM   27  C   UNL     1      -6.961   7.430  69.888  1.00  0.00    -0.060 A  
HETATM   28  C   UNL     1      -7.064   8.557  70.711  1.00  0.00    -0.055 A  
HETATM   29  C   UNL     1      -6.114   8.792  71.825  1.00  0.00    -0.070 C  
HETATM   30  C   UNL     1      -8.059   9.520  70.465  1.00  0.00    -0.199 A  
HETATM   31  O   UNL     1      -5.679   7.663  72.425  1.00  0.00    -0.036 OA 
HETATM   32  O   UNL     1      -5.789   9.909  72.188  1.00  0.00    -0.294 OA 
ENDBRANCH  22  24
ENDBRANCH  17  20
ENDBRANCH  13  14
ENDBRANCH   3  13
BRANCH   7  33
HETATM   33  C   UNL     1      -8.982  19.953  66.471  1.00  0.00    -0.366 C  
HETATM   34  O   UNL     1      -7.864  20.755  66.850  1.00  0.00    -0.528 OA 
HETATM   35  H   UNL     1      -8.105  21.659  66.678  1.00  0.00     0.000 HD 
HETATM   36  C   UNL     1     -10.197  20.367  67.286  1.00  0.00    -0.432 C  
ENDBRANCH   7  33
TORSDOF 5
ENDMDL
MODEL       98
REMARK 921   NORMALIZED FREE ENERGY PREDICTED BY IDOCK:   -5.91 KCAL/MOL
REMARK 922        TOTAL FREE ENERGY PREDICTED BY IDOCK:   -9.31 KCAL/MOL
REMARK 923 INTER-LIGAND FREE ENERGY PREDICTED BY IDOCK:   -8.03 KCAL/MOL
REMARK 924 INTRA-LIGAND FREE ENERGY PREDICTED BY IDOCK:   -1.28 KCAL/MOL
REMARK 927      BINDING AFFINITY PREDICTED BY RF-SCORE:    0.00 PKD
ROOT
HETATM    1  C   UNL     1     -11.414  12.471  65.740  1.00  0.00    -0.365 C  
HETATM    2  C   UNL     1     -10.741  11.420  66.627  1.00  0.00    -0.316 C  
HETATM    3  C   UNL     1      -9.919  12.268  67.577  1.00  0.00    -0.199 C  
HETATM    4  C   UNL     1      -9.975  10.406  65.788  1.00  0.00    -0.334 C  
HETATM    5  O   UNL     1     -10.081  15.362  64.864  1.00  0.00    -0.302 OA 
HETATM    6  C   UNL     1     -10.109  13.581  67.334  1.00  0.00    -0.237 C  
HETATM    7  C   UNL     1     -10.857  12.972  64.369  1.00  0.00    -0.409 C  
HETATM    8  N   UNL     1     -11.011  13.793  66.298  1.00  0.00    -0.296 N  
HETATM    9  C   UNL     1      -9.541  14.731  68.103  1.00  0.00    -0.209 C  
HETATM   10  O   UNL     1      -9.134  14.655  69.251  1.00  0.00    -0.088 OA 
HETATM   11  O   UNL     1      -9.495  15.899  67.424  1.00  0.00    -0.216 OA 
HETATM   12  C   UNL     1     -10.616  14.299  65.092  1.00  0.00    -0.406 C  
ENDROOT
BRANCH   3  13
HETATM   13  S   UNL     1      -9.081  11.495  68.869  1.00  0.00     0.119 SA 
BRANCH  13  14
HETATM   14  C   UNL     1      -7.311  11.557  68.392  1.00  0.00    -0.097 C  
HETATM   15  C   UNL     1      -6.892  10.530  67.346  1.00  0.00    -0.076 C  
HETATM   16  N   UNL     1      -6.757   9.300  68.107  1.00  0.00    -0.060 NA 
HETATM   17  C   UNL     1      -6.159   9.647  69.416  1.00  0.00    -0.036 C  
HETATM   18  C   UNL     1      -6.475  11.135  69.609  1.00  0.00    -0.128 C  
HETATM   19  H   UNL     1      -6.232   8.580  67.608  1.00  0.00     0.000 HD 
BRANCH  17  20
HETATM   20  C   UNL     1      -6.672   8.637  70.482  1.00  0.00    -0.040 C  
HETATM   21  O   UNL     1      -5.999   7.642  70.760  1.00  0.00    -0.034 OA 
HETATM   22  N   UNL     1      -7.837   9.003  71.142  1.00  0.00    -0.137 N  
HETATM   23  H   UNL     1      -8.248   9.899  70.881  1.00  0.00     0.000 HD 
BRANCH  22  24
HETATM   24  C   UNL     1      -8.515   8.261  72.142  1.00  0.00    -0.179 A  
HETATM   25  C   UNL     1      -8.052   8.116  73.454  1.00  0.00    -0.253 A  
HETATM   26  C   UNL     1      -8.775   7.381  74.400  1.00  0.00    -0.236 A  
HETATM   27  C   UNL     1      -9.970   6.766  74.046  1.00  0.00    -0.367 A  
HETATM   28  C   UNL     1     -10.432   6.872  72.730  1.00  0.00    -0.252 A  
HETATM   29  C   UNL     1     -11.698   6.230  72.299  1.00  0.00    -0.298 C  
HETATM   30  C   UNL     1      -9.716   7.635  71.790  1.00  0.00    -0.196 A  
HETATM   31  O   UNL     1     -11.963   5.062  72.924  1.00  0.00    -0.191 OA 
HETATM   32  O   UNL     1     -12.412   6.699  71.430  1.00  0.00    -0.342 OA 
ENDBRANCH  22  24
ENDBRANCH  17  20
ENDBRANCH  13  14
ENDBRANCH   3  13
BRANCH   7  33
HETATM   33  C   UNL     1     -11.855  12.926  63.229  1.00  0.00    -0.398 C  
HETATM   34  O   UNL     1     -12.530  14.184  63.224  1.00  0.00    -1.146 OA 
HETATM   35  H   UNL     1     -13.156  14.155  62.509  1.00  0.00     0.000 HD 
HETATM   36  C   UNL     1     -12.871  11.812  63.427  1.00  0.00    -0.310 C  
ENDBRANCH   7  33
TORSDOF 5
ENDMDL
MODEL       99
REMARK 921   NORMALIZED FREE ENERGY PREDICTED BY IDOCK:   -5.90 KCAL/MOL
REMARK 922        TOTAL FREE ENERGY PREDICTED BY IDOCK:   -9.30 KCAL/MOL
REMARK 923 INTER-LIGAND FREE ENERGY PREDICTED BY IDOCK:   -7.98 KCAL/MOL
REMARK 924 INTRA-LIGAND FREE ENERGY PREDICTED BY IDOCK:   -1.33 KCAL/MOL
REMARK 927      BINDING AFFINITY PREDICTED BY RF-SCORE:    0.00 PKD
ROOT
HETATM    1  C   UNL     1     -11.104  12.075  65.475  1.00  0.00    -0.313 C  
HETATM    2  C   UNL     1     -10.236  10.936  66.015  1.00  0.00    -0.311 C  
HETATM    3  C   UNL     1      -9.302  11.657  66.967  1.00  0.00    -0.181 C  
HETATM    4  C   UNL     1      -9.581  10.162  64.879  1.00  0.00    -0.369 C  
HETATM    5  O   UNL     1     -10.089  15.178  64.983  1.00  0.00    -0.334 OA 
HETATM    6  C   UNL     1      -9.596  12.971  67.023  1.00  0.00    -0.236 C  
HETATM    7  C   UNL     1     -10.822  12.867  64.159  1.00  0.00    -0.445 C  
HETATM    8  N   UNL     1     -10.675  13.299  66.210  1.00  0.00    -0.284 N  
HETATM    9  C   UNL     1      -8.959  14.001  67.901  1.00  0.00    -0.188 C  
HETATM   10  O   UNL     1      -8.353  13.746  68.930  1.00  0.00    -0.040 OA 
HETATM   11  O   UNL     1      -9.090  15.274  67.469  1.00  0.00    -0.180 OA 
HETATM   12  C   UNL     1     -10.523  14.051  65.080  1.00  0.00    -0.397 C  
ENDROOT
BRANCH   3  13
HETATM   13  S   UNL     1      -8.214  10.728  67.927  1.00  0.00    -0.115 SA 
BRANCH  13  14
HETATM   14  C   UNL     1      -9.204  10.179  69.371  1.00  0.00    -0.214 C  
HETATM   15  C   UNL     1      -8.549   9.099  70.225  1.00  0.00    -0.198 C  
HETATM   16  N   UNL     1      -8.773   7.879  69.469  1.00  0.00    -0.134 NA 
HETATM   17  C   UNL     1     -10.131   7.959  68.884  1.00  0.00    -0.197 C  
HETATM   18  C   UNL     1     -10.454   9.459  68.845  1.00  0.00    -0.236 C  
HETATM   19  H   UNL     1      -8.630   7.035  70.024  1.00  0.00     0.000 HD 
BRANCH  17  20
HETATM   20  C   UNL     1     -10.147   7.164  67.547  1.00  0.00    -0.188 C  
HETATM   21  O   UNL     1     -11.218   6.785  67.070  1.00  0.00    -0.393 OA 
HETATM   22  N   UNL     1      -8.918   7.034  66.914  1.00  0.00    -0.122 N  
HETATM   23  H   UNL     1      -8.120   7.475  67.370  1.00  0.00     0.000 HD 
BRANCH  22  24
HETATM   24  C   UNL     1      -8.658   6.352  65.699  1.00  0.00    -0.133 A  
HETATM   25  C   UNL     1      -8.012   6.933  64.602  1.00  0.00    -0.112 A  
HETATM   26  C   UNL     1      -7.772   6.203  63.433  1.00  0.00    -0.098 A  
HETATM   27  C   UNL     1      -8.185   4.879  63.336  1.00  0.00    -0.110 A  
HETATM   28  C   UNL     1      -8.861   4.290  64.410  1.00  0.00    -0.144 A  
HETATM   29  C   UNL     1      -9.326   2.883  64.356  1.00  0.00    -0.143 C  
HETATM   30  C   UNL     1      -9.075   5.020  65.593  1.00  0.00    -0.157 A  
HETATM   31  O   UNL     1      -9.711   2.478  63.126  1.00  0.00    -0.094 OA 
HETATM   32  O   UNL     1      -9.392   2.173  65.344  1.00  0.00    -0.097 OA 
ENDBRANCH  22  24
ENDBRANCH  17  20
ENDBRANCH  13  14
ENDBRANCH   3  13
BRANCH   7  33
HETATM   33  C   UNL     1     -12.001  12.952  63.210  1.00  0.00    -0.440 C  
HETATM   34  O   UNL     1     -12.590  14.239  63.402  1.00  0.00    -1.067 OA 
HETATM   35  H   UNL     1     -13.329  14.292  62.807  1.00  0.00     0.000 HD 
HETATM   36  C   UNL     1     -13.034  11.877  63.511  1.00  0.00    -0.307 C  
ENDBRANCH   7  33
TORSDOF 5
ENDMDL
MODEL      100
REMARK 921   NORMALIZED FREE ENERGY PREDICTED BY IDOCK:   -5.88 KCAL/MOL
REMARK 922        TOTAL FREE ENERGY PREDICTED BY IDOCK:   -9.28 KCAL/MOL
REMARK 923 INTER-LIGAND FREE ENERGY PREDICTED BY IDOCK:   -7.37 KCAL/MOL
REMARK 924 INTRA-LIGAND FREE ENERGY PREDICTED BY IDOCK:   -1.91 KCAL/MOL
REMARK 927      BINDING AFFINITY PREDICTED BY RF-SCORE:    0.00 PKD
ROOT
HETATM    1  C   UNL     1     -12.049  10.497  71.508  1.00  0.00    -0.220 C  
HETATM    2  C   UNL     1     -12.500   9.186  72.158  1.00  0.00    -0.436 C  
HETATM    3  C   UNL     1     -11.940   8.141  71.215  1.00  0.00    -0.291 C  
HETATM    4  C   UNL     1     -14.009   9.171  72.368  1.00  0.00    -0.488 C  
HETATM    5  O   UNL     1     -11.725  11.001  68.262  1.00  0.00    -0.461 OA 
HETATM    6  C   UNL     1     -11.239   8.720  70.219  1.00  0.00    -0.195 C  
HETATM    7  C   UNL     1     -12.905  11.340  70.510  1.00  0.00    -0.166 C  
HETATM    8  N   UNL     1     -11.212  10.105  70.339  1.00  0.00    -0.308 N  
HETATM    9  C   UNL     1     -10.469   8.029  69.139  1.00  0.00    -0.208 C  
HETATM   10  O   UNL     1     -10.067   6.879  69.210  1.00  0.00    -0.163 OA 
HETATM   11  O   UNL     1     -10.246   8.777  68.035  1.00  0.00    -0.194 OA 
HETATM   12  C   UNL     1     -11.874  10.915  69.461  1.00  0.00    -0.332 C  
ENDROOT
BRANCH   3  13
HETATM   13  S   UNL     1     -12.090   6.476  71.634  1.00  0.00    -0.273 SA 
BRANCH  13  14
HETATM   14  C   UNL     1     -10.883   6.216  72.991  1.00  0.00    -0.257 C  
HETATM   15  C   UNL     1      -9.513   6.842  72.759  1.00  0.00    -0.142 C  
HETATM   16  N   UNL     1      -8.860   5.914  71.853  1.00  0.00    -0.138 NA 
HETATM   17  C   UNL     1      -9.240   4.544  72.265  1.00  0.00    -0.126 C  
HETATM   18  C   UNL     1     -10.547   4.719  73.049  1.00  0.00    -0.279 C  
HETATM   19  H   UNL     1      -7.849   6.048  71.806  1.00  0.00     0.000 HD 
BRANCH  17  20
HETATM   20  C   UNL     1      -9.249   3.628  71.008  1.00  0.00    -0.126 C  
HETATM   21  O   UNL     1      -9.844   2.550  71.037  1.00  0.00    -0.127 OA 
HETATM   22  N   UNL     1      -8.657   4.165  69.872  1.00  0.00    -0.067 N  
HETATM   23  H   UNL     1      -8.280   5.109  69.956  1.00  0.00     0.000 HD 
BRANCH  22  24
HETATM   24  C   UNL     1      -8.523   3.538  68.608  1.00  0.00    -0.079 A  
HETATM   25  C   UNL     1      -7.681   2.447  68.365  1.00  0.00    -0.054 A  
HETATM   26  C   UNL     1      -7.603   1.863  67.096  1.00  0.00    -0.060 A  
HETATM   27  C   UNL     1      -8.357   2.368  66.043  1.00  0.00    -0.094 A  
HETATM   28  C   UNL     1      -9.179   3.479  66.259  1.00  0.00    -0.179 A  
HETATM   29  C   UNL     1     -10.000   4.059  65.168  1.00  0.00    -0.198 C  
HETATM   30  C   UNL     1      -9.276   4.046  67.543  1.00  0.00    -0.194 A  
HETATM   31  O   UNL     1      -9.428   3.980  63.948  1.00  0.00    -0.148 OA 
HETATM   32  O   UNL     1     -11.076   4.595  65.368  1.00  0.00    -0.205 OA 
ENDBRANCH  22  24
ENDBRANCH  17  20
ENDBRANCH  13  14
ENDBRANCH   3  13
BRANCH   7  33
HETATM   33  C   UNL     1     -13.028  12.807  70.868  1.00  0.00    -0.000 C  
HETATM   34  O   UNL     1     -11.746  13.394  70.644  1.00  0.00    -0.521 OA 
HETATM   35  H   UNL     1     -11.824  14.313  70.869  1.00  0.00     0.000 HD 
HETATM   36  C   UNL     1     -13.416  12.990  72.328  1.00  0.00    -0.645 C  
ENDBRANCH   7  33
TORSDOF 5
ENDMDL
MODEL      101
REMARK 921   NORMALIZED FREE ENERGY PREDICTED BY IDOCK:   -5.87 KCAL/MOL
REMARK 922        TOTAL FREE ENERGY PREDICTED BY IDOCK:   -9.27 KCAL/MOL
REMARK 923 INTER-LIGAND FREE ENERGY PREDICTED BY IDOCK:   -7.12 KCAL/MOL
REMARK 924 INTRA-LIGAND FREE ENERGY PREDICTED BY IDOCK:   -2.15 KCAL/MOL
REMARK 927      BINDING AFFINITY PREDICTED BY RF-SCORE:    0.00 PKD
ROOT
HETATM    1  C   UNL     1     -11.045  11.023  65.239  1.00  0.00     0.062 C  
HETATM    2  C   UNL     1      -9.888  10.021  65.235  1.00  0.00    -0.388 C  
HETATM    3  C   UNL     1      -9.802   9.610  66.691  1.00  0.00    -0.224 C  
HETATM    4  C   UNL     1      -8.634  10.637  64.629  1.00  0.00    -0.125 C  
HETATM    5  O   UNL     1     -11.786  13.067  67.724  1.00  0.00    -0.324 OA 
HETATM    6  C   UNL     1     -10.764  10.215  67.417  1.00  0.00    -0.277 C  
HETATM    7  C   UNL     1     -10.886  12.571  65.378  1.00  0.00    -0.316 C  
HETATM    8  N   UNL     1     -11.572  11.031  66.634  1.00  0.00     0.243 N  
HETATM    9  C   UNL     1     -11.060  10.011  68.869  1.00  0.00    -0.176 C  
HETATM   10  O   UNL     1     -10.726   9.024  69.506  1.00  0.00    -0.229 OA 
HETATM   11  O   UNL     1     -11.735  11.023  69.457  1.00  0.00    -0.271 OA 
HETATM   12  C   UNL     1     -11.546  12.392  66.747  1.00  0.00    -0.379 C  
ENDROOT
BRANCH   3  13
HETATM   13  S   UNL     1      -8.701   8.363  67.140  1.00  0.00    -0.127 SA 
BRANCH  13  14
HETATM   14  C   UNL     1      -9.453   6.815  66.506  1.00  0.00    -0.150 C  
HETATM   15  C   UNL     1     -10.930   6.635  66.838  1.00  0.00    -0.326 C  
HETATM   16  N   UNL     1     -10.919   6.192  68.222  1.00  0.00    -0.324 NA 
HETATM   17  C   UNL     1      -9.771   5.272  68.388  1.00  0.00    -0.141 C  
HETATM   18  C   UNL     1      -8.810   5.634  67.249  1.00  0.00    -0.106 C  
HETATM   19  H   UNL     1     -11.805   5.778  68.513  1.00  0.00     0.000 HD 
BRANCH  17  20
HETATM   20  C   UNL     1      -9.256   5.377  69.852  1.00  0.00    -0.137 C  
HETATM   21  O   UNL     1      -8.539   4.489  70.316  1.00  0.00    -0.076 OA 
HETATM   22  N   UNL     1      -9.563   6.560  70.512  1.00  0.00    -0.169 N  
HETATM   23  H   UNL     1     -10.087   7.256  69.982  1.00  0.00     0.000 HD 
BRANCH  22  24
HETATM   24  C   UNL     1      -9.224   6.900  71.845  1.00  0.00    -0.141 A  
HETATM   25  C   UNL     1     -10.069   6.695  72.941  1.00  0.00    -0.200 A  
HETATM   26  C   UNL     1      -9.672   7.040  74.237  1.00  0.00    -0.263 A  
HETATM   27  C   UNL     1      -8.423   7.611  74.459  1.00  0.00    -0.223 A  
HETATM   28  C   UNL     1      -7.577   7.854  73.372  1.00  0.00    -0.184 A  
HETATM   29  C   UNL     1      -6.238   8.465  73.554  1.00  0.00    -0.115 C  
HETATM   30  C   UNL     1      -7.970   7.479  72.074  1.00  0.00    -0.103 A  
HETATM   31  O   UNL     1      -6.175   9.362  74.561  1.00  0.00    -0.347 OA 
HETATM   32  O   UNL     1      -5.292   8.205  72.830  1.00  0.00    -0.040 OA 
ENDBRANCH  22  24
ENDBRANCH  17  20
ENDBRANCH  13  14
ENDBRANCH   3  13
BRANCH   7  33
HETATM   33  C   UNL     1     -11.605  13.376  64.314  1.00  0.00    -0.402 C  
HETATM   34  O   UNL     1     -12.662  14.075  64.973  1.00  0.00    -0.632 OA 
HETATM   35  H   UNL     1     -13.112  14.579  64.305  1.00  0.00     0.000 HD 
HETATM   36  C   UNL     1     -12.191  12.475  63.239  1.00  0.00    -0.512 C  
ENDBRANCH   7  33
TORSDOF 5
ENDMDL
MODEL      102
REMARK 921   NORMALIZED FREE ENERGY PREDICTED BY IDOCK:   -5.87 KCAL/MOL
REMARK 922        TOTAL FREE ENERGY PREDICTED BY IDOCK:   -9.27 KCAL/MOL
REMARK 923 INTER-LIGAND FREE ENERGY PREDICTED BY IDOCK:   -8.00 KCAL/MOL
REMARK 924 INTRA-LIGAND FREE ENERGY PREDICTED BY IDOCK:   -1.27 KCAL/MOL
REMARK 927      BINDING AFFINITY PREDICTED BY RF-SCORE:    0.00 PKD
ROOT
HETATM    1  C   UNL     1      -7.901   6.981  65.687  1.00  0.00    -0.112 C  
HETATM    2  C   UNL     1      -7.896   8.400  65.112  1.00  0.00    -0.118 C  
HETATM    3  C   UNL     1      -8.907   9.113  65.988  1.00  0.00    -0.168 C  
HETATM    4  C   UNL     1      -8.185   8.385  63.617  1.00  0.00    -0.105 C  
HETATM    5  O   UNL     1     -10.525   5.463  66.995  1.00  0.00    -0.238 OA 
HETATM    6  C   UNL     1      -9.384   8.286  66.940  1.00  0.00    -0.176 C  
HETATM    7  C   UNL     1      -8.779   5.804  65.153  1.00  0.00    -0.070 C  
HETATM    8  N   UNL     1      -8.811   7.022  66.866  1.00  0.00    -0.120 N  
HETATM    9  C   UNL     1     -10.335   8.633  68.042  1.00  0.00    -0.223 C  
HETATM   10  O   UNL     1     -10.526   9.767  68.452  1.00  0.00    -0.199 OA 
HETATM   11  O   UNL     1     -11.000   7.581  68.568  1.00  0.00    -0.052 OA 
HETATM   12  C   UNL     1      -9.531   5.927  66.480  1.00  0.00    -0.155 C  
ENDROOT
BRANCH   3  13
HETATM   13  S   UNL     1      -9.131  10.810  65.787  1.00  0.00    -0.194 SA 
BRANCH  13  14
HETATM   14  C   UNL     1     -10.443  10.968  64.515  1.00  0.00    -0.342 C  
HETATM   15  C   UNL     1     -10.087  11.864  63.333  1.00  0.00    -0.438 C  
HETATM   16  N   UNL     1     -10.276  13.208  63.852  1.00  0.00    -0.744 NA 
HETATM   17  C   UNL     1     -11.472  13.187  64.724  1.00  0.00    -0.323 C  
HETATM   18  C   UNL     1     -11.627  11.719  65.142  1.00  0.00    -0.211 C  
HETATM   19  H   UNL     1     -10.333  13.913  63.117  1.00  0.00     0.000 HD 
BRANCH  17  20
HETATM   20  C   UNL     1     -11.296  14.258  65.838  1.00  0.00    -0.328 C  
HETATM   21  O   UNL     1     -12.147  14.369  66.723  1.00  0.00    -0.424 OA 
HETATM   22  N   UNL     1     -10.097  14.957  65.813  1.00  0.00    -0.319 N  
HETATM   23  H   UNL     1      -9.436  14.704  65.079  1.00  0.00     0.000 HD 
BRANCH  22  24
HETATM   24  C   UNL     1      -9.695  15.986  66.702  1.00  0.00    -0.244 A  
HETATM   25  C   UNL     1      -9.089  15.753  67.941  1.00  0.00    -0.186 A  
HETATM   26  C   UNL     1      -8.703  16.813  68.768  1.00  0.00    -0.258 A  
HETATM   27  C   UNL     1      -8.928  18.128  68.376  1.00  0.00    -0.305 A  
HETATM   28  C   UNL     1      -9.562  18.380  67.154  1.00  0.00    -0.299 A  
HETATM   29  C   UNL     1      -9.830  19.763  66.692  1.00  0.00    -0.425 C  
HETATM   30  C   UNL     1      -9.924  17.311  66.314  1.00  0.00    -0.311 A  
HETATM   31  O   UNL     1     -10.104  20.633  67.687  1.00  0.00    -0.368 OA 
HETATM   32  O   UNL     1      -9.840  20.072  65.513  1.00  0.00    -0.303 OA 
ENDBRANCH  22  24
ENDBRANCH  17  20
ENDBRANCH  13  14
ENDBRANCH   3  13
BRANCH   7  33
HETATM   33  C   UNL     1      -8.012   4.530  64.858  1.00  0.00    -0.098 C  
HETATM   34  O   UNL     1      -8.419   3.571  65.833  1.00  0.00    -0.107 OA 
HETATM   35  H   UNL     1      -7.938   2.772  65.647  1.00  0.00     0.000 HD 
HETATM   36  C   UNL     1      -6.511   4.749  64.965  1.00  0.00    -0.036 C  
ENDBRANCH   7  33
TORSDOF 5
ENDMDL
MODEL      103
REMARK 921   NORMALIZED FREE ENERGY PREDICTED BY IDOCK:   -5.84 KCAL/MOL
REMARK 922        TOTAL FREE ENERGY PREDICTED BY IDOCK:   -9.23 KCAL/MOL
REMARK 923 INTER-LIGAND FREE ENERGY PREDICTED BY IDOCK:   -7.24 KCAL/MOL
REMARK 924 INTRA-LIGAND FREE ENERGY PREDICTED BY IDOCK:   -1.98 KCAL/MOL
REMARK 927      BINDING AFFINITY PREDICTED BY RF-SCORE:    0.00 PKD
ROOT
HETATM    1  C   UNL     1     -10.528  13.029  66.301  1.00  0.00    -0.276 C  
HETATM    2  C   UNL     1     -10.627  12.158  67.556  1.00  0.00    -0.240 C  
HETATM    3  C   UNL     1     -10.243  10.787  67.036  1.00  0.00    -0.217 C  
HETATM    4  C   UNL     1     -12.002  12.278  68.198  1.00  0.00    -0.256 C  
HETATM    5  O   UNL     1     -11.196  12.027  63.227  1.00  0.00    -0.386 OA 
HETATM    6  C   UNL     1      -9.923  10.843  65.727  1.00  0.00    -0.247 C  
HETATM    7  C   UNL     1     -11.720  13.362  65.349  1.00  0.00    -0.354 C  
HETATM    8  N   UNL     1     -10.019  12.135  65.223  1.00  0.00    -0.253 N  
HETATM    9  C   UNL     1      -9.419   9.723  64.873  1.00  0.00    -0.265 C  
HETATM   10  O   UNL     1      -8.887   8.714  65.308  1.00  0.00    -0.187 OA 
HETATM   11  O   UNL     1      -9.602   9.896  63.546  1.00  0.00    -0.212 OA 
HETATM   12  C   UNL     1     -10.988  12.488  64.328  1.00  0.00    -0.360 C  
ENDROOT
BRANCH   3  13
HETATM   13  S   UNL     1     -10.081   9.487  68.156  1.00  0.00    -0.192 SA 
BRANCH  13  14
HETATM   14  C   UNL     1      -8.479   9.782  68.998  1.00  0.00    -0.137 C  
HETATM   15  C   UNL     1      -7.339  10.207  68.079  1.00  0.00    -0.086 C  
HETATM   16  N   UNL     1      -6.912   8.962  67.463  1.00  0.00    -0.074 NA 
HETATM   17  C   UNL     1      -6.977   7.906  68.499  1.00  0.00    -0.071 C  
HETATM   18  C   UNL     1      -7.970   8.438  69.539  1.00  0.00    -0.111 C  
HETATM   19  H   UNL     1      -5.993   9.031  67.024  1.00  0.00     0.000 HD 
BRANCH  17  20
HETATM   20  C   UNL     1      -7.286   6.548  67.807  1.00  0.00    -0.090 C  
HETATM   21  O   UNL     1      -7.704   5.600  68.475  1.00  0.00    -0.086 OA 
HETATM   22  N   UNL     1      -7.168   6.540  66.424  1.00  0.00    -0.071 N  
HETATM   23  H   UNL     1      -6.901   7.419  65.983  1.00  0.00     0.000 HD 
BRANCH  22  24
HETATM   24  C   UNL     1      -7.381   5.435  65.561  1.00  0.00    -0.073 A  
HETATM   25  C   UNL     1      -6.354   4.619  65.073  1.00  0.00    -0.035 A  
HETATM   26  C   UNL     1      -6.630   3.534  64.234  1.00  0.00    -0.038 A  
HETATM   27  C   UNL     1      -7.938   3.254  63.856  1.00  0.00    -0.082 A  
HETATM   28  C   UNL     1      -8.974   4.079  64.307  1.00  0.00    -0.138 A  
HETATM   29  C   UNL     1     -10.386   3.827  63.929  1.00  0.00    -0.245 C  
HETATM   30  C   UNL     1      -8.695   5.151  65.173  1.00  0.00    -0.151 A  
HETATM   31  O   UNL     1     -10.540   3.313  62.690  1.00  0.00    -0.154 OA 
HETATM   32  O   UNL     1     -11.322   4.098  64.660  1.00  0.00    -0.309 OA 
ENDBRANCH  22  24
ENDBRANCH  17  20
ENDBRANCH  13  14
ENDBRANCH   3  13
BRANCH   7  33
HETATM   33  C   UNL     1     -11.901  14.839  65.058  1.00  0.00    -0.343 C  
HETATM   34  O   UNL     1     -12.454  14.934  63.746  1.00  0.00    -1.048 OA 
HETATM   35  H   UNL     1     -12.567  15.860  63.563  1.00  0.00     0.000 HD 
HETATM   36  C   UNL     1     -10.572  15.578  65.097  1.00  0.00    -0.455 C  
ENDBRANCH   7  33
TORSDOF 5
ENDMDL
MODEL      104
REMARK 921   NORMALIZED FREE ENERGY PREDICTED BY IDOCK:   -5.83 KCAL/MOL
REMARK 922        TOTAL FREE ENERGY PREDICTED BY IDOCK:   -9.21 KCAL/MOL
REMARK 923 INTER-LIGAND FREE ENERGY PREDICTED BY IDOCK:   -7.86 KCAL/MOL
REMARK 924 INTRA-LIGAND FREE ENERGY PREDICTED BY IDOCK:   -1.35 KCAL/MOL
REMARK 927      BINDING AFFINITY PREDICTED BY RF-SCORE:    0.00 PKD
ROOT
HETATM    1  C   UNL     1      -7.866  11.530  68.272  1.00  0.00    -0.138 C  
HETATM    2  C   UNL     1      -9.221  10.886  67.967  1.00  0.00    -0.156 C  
HETATM    3  C   UNL     1      -8.839   9.723  67.074  1.00  0.00    -0.135 C  
HETATM    4  C   UNL     1     -10.190  11.903  67.379  1.00  0.00    -0.214 C  
HETATM    5  O   UNL     1      -5.294  11.628  66.205  1.00  0.00    -0.292 OA 
HETATM    6  C   UNL     1      -7.501   9.656  66.920  1.00  0.00    -0.091 C  
HETATM    7  C   UNL     1      -7.239  12.714  67.469  1.00  0.00    -0.155 C  
HETATM    8  N   UNL     1      -6.845  10.655  67.630  1.00  0.00    -0.073 N  
HETATM    9  C   UNL     1      -6.730   8.609  66.181  1.00  0.00    -0.069 C  
HETATM   10  O   UNL     1      -7.156   7.493  65.929  1.00  0.00    -0.063 OA 
HETATM   11  O   UNL     1      -5.494   8.988  65.787  1.00  0.00    -0.040 OA 
HETATM   12  C   UNL     1      -6.207  11.685  66.999  1.00  0.00    -0.144 C  
ENDROOT
BRANCH   3  13
HETATM   13  S   UNL     1     -10.063   8.611  66.587  1.00  0.00    -0.269 SA 
BRANCH  13  14
HETATM   14  C   UNL     1      -9.765   7.106  67.593  1.00  0.00    -0.143 C  
HETATM   15  C   UNL     1     -11.025   6.399  68.079  1.00  0.00    -0.311 C  
HETATM   16  N   UNL     1     -11.455   7.202  69.210  1.00  0.00    -0.490 NA 
HETATM   17  C   UNL     1     -10.242   7.629  69.943  1.00  0.00    -0.215 C  
HETATM   18  C   UNL     1      -9.109   7.537  68.913  1.00  0.00    -0.140 C  
HETATM   19  H   UNL     1     -12.130   6.721  69.805  1.00  0.00     0.000 HD 
BRANCH  17  20
HETATM   20  C   UNL     1     -10.522   9.004  70.614  1.00  0.00    -0.230 C  
HETATM   21  O   UNL     1      -9.661   9.530  71.322  1.00  0.00    -0.201 OA 
HETATM   22  N   UNL     1     -11.721   9.609  70.262  1.00  0.00    -0.421 N  
HETATM   23  H   UNL     1     -12.306   9.109  69.593  1.00  0.00     0.000 HD 
BRANCH  22  24
HETATM   24  C   UNL     1     -12.218  10.849  70.736  1.00  0.00    -0.383 A  
HETATM   25  C   UNL     1     -13.135  10.971  71.786  1.00  0.00    -0.554 A  
HETATM   26  C   UNL     1     -13.578  12.226  72.218  1.00  0.00    -0.299 A  
HETATM   27  C   UNL     1     -13.121  13.383  71.598  1.00  0.00    -0.463 A  
HETATM   28  C   UNL     1     -12.228  13.280  70.525  1.00  0.00    -0.416 A  
HETATM   29  C   UNL     1     -11.714  14.482  69.827  1.00  0.00    -0.303 C  
HETATM   30  C   UNL     1     -11.765  12.017  70.113  1.00  0.00    -0.316 A  
HETATM   31  O   UNL     1     -12.599  15.500  69.760  1.00  0.00    -0.251 OA 
HETATM   32  O   UNL     1     -10.605  14.528  69.324  1.00  0.00    -0.250 OA 
ENDBRANCH  22  24
ENDBRANCH  17  20
ENDBRANCH  13  14
ENDBRANCH   3  13
BRANCH   7  33
HETATM   33  C   UNL     1      -6.779  13.880  68.321  1.00  0.00    -0.109 C  
HETATM   34  O   UNL     1      -7.734  14.021  69.373  1.00  0.00    -0.339 OA 
HETATM   35  H   UNL     1      -7.445  14.752  69.907  1.00  0.00     0.000 HD 
HETATM   36  C   UNL     1      -6.724  15.168  67.515  1.00  0.00    -0.189 C  
ENDBRANCH   7  33
TORSDOF 5
ENDMDL
MODEL      105
REMARK 921   NORMALIZED FREE ENERGY PREDICTED BY IDOCK:   -5.82 KCAL/MOL
REMARK 922        TOTAL FREE ENERGY PREDICTED BY IDOCK:   -9.20 KCAL/MOL
REMARK 923 INTER-LIGAND FREE ENERGY PREDICTED BY IDOCK:   -7.82 KCAL/MOL
REMARK 924 INTRA-LIGAND FREE ENERGY PREDICTED BY IDOCK:   -1.38 KCAL/MOL
REMARK 927      BINDING AFFINITY PREDICTED BY RF-SCORE:    0.00 PKD
ROOT
HETATM    1  C   UNL     1     -10.517   8.303  71.072  1.00  0.00    -0.202 C  
HETATM    2  C   UNL     1     -10.259   8.694  69.614  1.00  0.00    -0.208 C  
HETATM    3  C   UNL     1     -11.048   9.981  69.474  1.00  0.00    -0.238 C  
HETATM    4  C   UNL     1     -10.637   7.561  68.670  1.00  0.00    -0.171 C  
HETATM    5  O   UNL     1     -13.308   8.884  72.736  1.00  0.00    -0.405 OA 
HETATM    6  C   UNL     1     -11.623  10.320  70.645  1.00  0.00    -0.347 C  
HETATM    7  C   UNL     1     -11.646   7.337  71.551  1.00  0.00    -0.306 C  
HETATM    8  N   UNL     1     -11.324   9.411  71.654  1.00  0.00    -0.389 N  
HETATM    9  C   UNL     1     -12.413  11.556  70.937  1.00  0.00    -0.366 C  
HETATM   10  O   UNL     1     -12.344  12.585  70.283  1.00  0.00    -0.277 OA 
HETATM   11  O   UNL     1     -13.244  11.460  71.998  1.00  0.00    -0.503 OA 
HETATM   12  C   UNL     1     -12.275   8.583  72.180  1.00  0.00    -0.382 C  
ENDROOT
BRANCH   3  13
HETATM   13  S   UNL     1     -10.934  10.869  68.002  1.00  0.00    -0.288 SA 
BRANCH  13  14
HETATM   14  C   UNL     1      -9.617  12.111  68.297  1.00  0.00    -0.210 C  
HETATM   15  C   UNL     1      -9.257  12.965  67.086  1.00  0.00    -0.225 C  
HETATM   16  N   UNL     1      -8.409  12.093  66.291  1.00  0.00    -0.389 NA 
HETATM   17  C   UNL     1      -7.552  11.329  67.226  1.00  0.00    -0.130 C  
HETATM   18  C   UNL     1      -8.304  11.360  68.562  1.00  0.00    -0.153 C  
HETATM   19  H   UNL     1      -7.874  12.597  65.583  1.00  0.00     0.000 HD 
BRANCH  17  20
HETATM   20  C   UNL     1      -7.229   9.947  66.590  1.00  0.00    -0.091 C  
HETATM   21  O   UNL     1      -6.173   9.375  66.867  1.00  0.00    -0.063 OA 
HETATM   22  N   UNL     1      -8.240   9.393  65.817  1.00  0.00    -0.114 N  
HETATM   23  H   UNL     1      -9.103   9.929  65.741  1.00  0.00     0.000 HD 
BRANCH  22  24
HETATM   24  C   UNL     1      -8.197   8.157  65.122  1.00  0.00    -0.154 A  
HETATM   25  C   UNL     1      -7.905   8.040  63.758  1.00  0.00    -0.142 A  
HETATM   26  C   UNL     1      -7.864   6.790  63.132  1.00  0.00    -0.105 A  
HETATM   27  C   UNL     1      -8.129   5.633  63.857  1.00  0.00    -0.122 A  
HETATM   28  C   UNL     1      -8.455   5.733  65.214  1.00  0.00    -0.148 A  
HETATM   29  C   UNL     1      -8.750   4.531  66.030  1.00  0.00    -0.115 C  
HETATM   30  C   UNL     1      -8.467   6.990  65.845  1.00  0.00    -0.151 A  
HETATM   31  O   UNL     1      -9.365   3.540  65.349  1.00  0.00    -0.149 OA 
HETATM   32  O   UNL     1      -8.494   4.464  67.220  1.00  0.00    -0.104 OA 
ENDBRANCH  22  24
ENDBRANCH  17  20
ENDBRANCH  13  14
ENDBRANCH   3  13
BRANCH   7  33
HETATM   33  C   UNL     1     -11.175   6.215  72.455  1.00  0.00    -0.287 C  
HETATM   34  O   UNL     1     -12.344   5.529  72.902  1.00  0.00    -0.519 OA 
HETATM   35  H   UNL     1     -12.048   4.826  73.469  1.00  0.00     0.000 HD 
HETATM   36  C   UNL     1     -10.417   6.754  73.659  1.00  0.00    -0.374 C  
ENDBRANCH   7  33
TORSDOF 5
ENDMDL
MODEL      106
REMARK 921   NORMALIZED FREE ENERGY PREDICTED BY IDOCK:   -5.81 KCAL/MOL
REMARK 922        TOTAL FREE ENERGY PREDICTED BY IDOCK:   -9.20 KCAL/MOL
REMARK 923 INTER-LIGAND FREE ENERGY PREDICTED BY IDOCK:   -8.20 KCAL/MOL
REMARK 924 INTRA-LIGAND FREE ENERGY PREDICTED BY IDOCK:   -1.00 KCAL/MOL
REMARK 927      BINDING AFFINITY PREDICTED BY RF-SCORE:    0.00 PKD
ROOT
HETATM    1  C   UNL     1      -7.254   8.177  68.433  1.00  0.00    -0.093 C  
HETATM    2  C   UNL     1      -8.096   8.368  69.697  1.00  0.00    -0.115 C  
HETATM    3  C   UNL     1      -8.328   6.942  70.157  1.00  0.00    -0.135 C  
HETATM    4  C   UNL     1      -9.340   9.196  69.406  1.00  0.00    -0.160 C  
HETATM    5  O   UNL     1      -7.510   5.638  66.339  1.00  0.00    -0.084 OA 
HETATM    6  C   UNL     1      -7.696   6.069  69.347  1.00  0.00    -0.098 C  
HETATM    7  C   UNL     1      -7.827   8.096  66.982  1.00  0.00    -0.104 C  
HETATM    8  N   UNL     1      -6.999   6.712  68.330  1.00  0.00    -0.078 N  
HETATM    9  C   UNL     1      -7.616   4.584  69.510  1.00  0.00    -0.055 C  
HETATM   10  O   UNL     1      -7.792   3.999  70.566  1.00  0.00    -0.050 OA 
HETATM   11  O   UNL     1      -7.337   3.904  68.376  1.00  0.00    -0.054 OA 
HETATM   12  C   UNL     1      -7.393   6.629  67.025  1.00  0.00    -0.082 C  
ENDROOT
BRANCH   3  13
HETATM   13  S   UNL     1      -9.133   6.673  71.656  1.00  0.00    -0.140 SA 
BRANCH  13  14
HETATM   14  C   UNL     1     -10.609   5.670  71.230  1.00  0.00    -0.255 C  
HETATM   15  C   UNL     1     -11.153   5.895  69.823  1.00  0.00    -0.352 C  
HETATM   16  N   UNL     1     -11.894   7.139  69.936  1.00  0.00    -0.563 NA 
HETATM   17  C   UNL     1     -12.579   7.134  71.248  1.00  0.00    -0.380 C  
HETATM   18  C   UNL     1     -11.777   6.146  72.105  1.00  0.00    -0.361 C  
HETATM   19  H   UNL     1     -12.533   7.293  69.155  1.00  0.00     0.000 HD 
BRANCH  17  20
HETATM   20  C   UNL     1     -12.718   8.601  71.744  1.00  0.00    -0.359 C  
HETATM   21  O   UNL     1     -12.849   8.833  72.948  1.00  0.00    -0.313 OA 
HETATM   22  N   UNL     1     -12.567   9.579  70.771  1.00  0.00    -0.496 N  
HETATM   23  H   UNL     1     -12.370   9.256  69.824  1.00  0.00     0.000 HD 
BRANCH  22  24
HETATM   24  C   UNL     1     -12.657  10.982  70.956  1.00  0.00    -0.411 A  
HETATM   25  C   UNL     1     -13.380  11.587  71.990  1.00  0.00    -0.397 A  
HETATM   26  C   UNL     1     -13.420  12.978  72.127  1.00  0.00    -0.638 A  
HETATM   27  C   UNL     1     -12.748  13.792  71.223  1.00  0.00    -0.450 A  
HETATM   28  C   UNL     1     -12.047  13.207  70.163  1.00  0.00    -0.392 A  
HETATM   29  C   UNL     1     -11.317  14.030  69.168  1.00  0.00    -0.281 C  
HETATM   30  C   UNL     1     -11.986  11.807  70.045  1.00  0.00    -0.421 A  
HETATM   31  O   UNL     1     -11.902  15.218  68.902  1.00  0.00    -0.338 OA 
HETATM   32  O   UNL     1     -10.302  13.646  68.613  1.00  0.00    -0.238 OA 
ENDBRANCH  22  24
ENDBRANCH  17  20
ENDBRANCH  13  14
ENDBRANCH   3  13
BRANCH   7  33
HETATM   33  C   UNL     1      -7.164   9.031  65.990  1.00  0.00    -0.093 C  
HETATM   34  O   UNL     1      -6.192   9.781  66.719  1.00  0.00    -0.062 OA 
HETATM   35  H   UNL     1      -5.777  10.367  66.097  1.00  0.00     0.000 HD 
HETATM   36  C   UNL     1      -8.172   9.985  65.368  1.00  0.00    -0.149 C  
ENDBRANCH   7  33
TORSDOF 5
ENDMDL
MODEL      107
REMARK 921   NORMALIZED FREE ENERGY PREDICTED BY IDOCK:   -5.81 KCAL/MOL
REMARK 922        TOTAL FREE ENERGY PREDICTED BY IDOCK:   -9.19 KCAL/MOL
REMARK 923 INTER-LIGAND FREE ENERGY PREDICTED BY IDOCK:   -7.97 KCAL/MOL
REMARK 924 INTRA-LIGAND FREE ENERGY PREDICTED BY IDOCK:   -1.21 KCAL/MOL
REMARK 927      BINDING AFFINITY PREDICTED BY RF-SCORE:    0.00 PKD
ROOT
HETATM    1  C   UNL     1     -10.063  17.303  67.531  1.00  0.00    -0.315 C  
HETATM    2  C   UNL     1     -10.526  15.855  67.355  1.00  0.00    -0.306 C  
HETATM    3  C   UNL     1      -9.444  15.073  68.073  1.00  0.00    -0.193 C  
HETATM    4  C   UNL     1     -10.739  15.523  65.885  1.00  0.00    -0.346 C  
HETATM    5  O   UNL     1      -6.916  18.296  67.651  1.00  0.00    -0.200 OA 
HETATM    6  C   UNL     1      -8.535  15.906  68.620  1.00  0.00    -0.200 C  
HETATM    7  C   UNL     1      -9.196  18.094  66.501  1.00  0.00    -0.290 C  
HETATM    8  N   UNL     1      -8.846  17.241  68.389  1.00  0.00    -0.261 N  
HETATM    9  C   UNL     1      -7.365  15.528  69.472  1.00  0.00    -0.203 C  
HETATM   10  O   UNL     1      -7.273  14.477  70.086  1.00  0.00    -0.004 OA 
HETATM   11  O   UNL     1      -6.376  16.448  69.516  1.00  0.00    -0.184 OA 
HETATM   12  C   UNL     1      -8.093  18.022  67.559  1.00  0.00    -0.230 C  
ENDROOT
BRANCH   3  13
HETATM   13  S   UNL     1      -9.628  13.369  68.252  1.00  0.00    -0.199 SA 
BRANCH  13  14
HETATM   14  C   UNL     1     -11.425  13.110  68.511  1.00  0.00    -0.303 C  
HETATM   15  C   UNL     1     -11.841  12.900  69.963  1.00  0.00    -0.286 C  
HETATM   16  N   UNL     1     -11.493  11.515  70.223  1.00  0.00    -0.515 NA 
HETATM   17  C   UNL     1     -11.810  10.737  69.004  1.00  0.00    -0.254 C  
HETATM   18  C   UNL     1     -11.811  11.769  67.870  1.00  0.00    -0.289 C  
HETATM   19  H   UNL     1     -11.943  11.142  71.060  1.00  0.00     0.000 HD 
BRANCH  17  20
HETATM   20  C   UNL     1     -10.828   9.534  68.909  1.00  0.00    -0.150 C  
HETATM   21  O   UNL     1     -10.685   8.780  69.874  1.00  0.00    -0.223 OA 
HETATM   22  N   UNL     1     -10.250   9.330  67.664  1.00  0.00    -0.215 N  
HETATM   23  H   UNL     1     -10.523   9.974  66.922  1.00  0.00     0.000 HD 
BRANCH  22  24
HETATM   24  C   UNL     1      -9.318   8.320  67.316  1.00  0.00    -0.147 A  
HETATM   25  C   UNL     1      -7.939   8.426  67.525  1.00  0.00    -0.106 A  
HETATM   26  C   UNL     1      -7.072   7.386  67.172  1.00  0.00    -0.084 A  
HETATM   27  C   UNL     1      -7.568   6.226  66.589  1.00  0.00    -0.095 A  
HETATM   28  C   UNL     1      -8.940   6.115  66.342  1.00  0.00    -0.156 A  
HETATM   29  C   UNL     1      -9.520   4.900  65.719  1.00  0.00    -0.164 C  
HETATM   30  C   UNL     1      -9.812   7.151  66.725  1.00  0.00    -0.272 A  
HETATM   31  O   UNL     1      -8.710   4.304  64.818  1.00  0.00    -0.124 OA 
HETATM   32  O   UNL     1     -10.644   4.502  65.973  1.00  0.00    -0.269 OA 
ENDBRANCH  22  24
ENDBRANCH  17  20
ENDBRANCH  13  14
ENDBRANCH   3  13
BRANCH   7  33
HETATM   33  C   UNL     1      -9.756  19.449  66.114  1.00  0.00    -0.359 C  
HETATM   34  O   UNL     1      -8.651  20.352  66.069  1.00  0.00    -0.566 OA 
HETATM   35  H   UNL     1      -9.003  21.201  65.827  1.00  0.00     0.000 HD 
HETATM   36  C   UNL     1     -10.767  19.942  67.137  1.00  0.00    -0.469 C  
ENDBRANCH   7  33
TORSDOF 5
ENDMDL
MODEL      108
REMARK 921   NORMALIZED FREE ENERGY PREDICTED BY IDOCK:   -5.81 KCAL/MOL
REMARK 922        TOTAL FREE ENERGY PREDICTED BY IDOCK:   -9.19 KCAL/MOL
REMARK 923 INTER-LIGAND FREE ENERGY PREDICTED BY IDOCK:   -8.24 KCAL/MOL
REMARK 924 INTRA-LIGAND FREE ENERGY PREDICTED BY IDOCK:   -0.95 KCAL/MOL
REMARK 927      BINDING AFFINITY PREDICTED BY RF-SCORE:    0.00 PKD
ROOT
HETATM    1  C   UNL     1     -10.346  17.278  67.780  1.00  0.00    -0.356 C  
HETATM    2  C   UNL     1     -10.883  15.847  67.709  1.00  0.00    -0.324 C  
HETATM    3  C   UNL     1      -9.702  15.027  68.190  1.00  0.00    -0.215 C  
HETATM    4  C   UNL     1     -11.408  15.529  66.316  1.00  0.00    -0.004 C  
HETATM    5  O   UNL     1      -7.212  18.166  67.242  1.00  0.00    -0.195 OA 
HETATM    6  C   UNL     1      -8.672  15.827  68.533  1.00  0.00    -0.184 C  
HETATM    7  C   UNL     1      -9.685  18.045  66.591  1.00  0.00    -0.332 C  
HETATM    8  N   UNL     1      -8.980  17.172  68.368  1.00  0.00    -0.252 N  
HETATM    9  C   UNL     1      -7.364  15.407  69.125  1.00  0.00    -0.175 C  
HETATM   10  O   UNL     1      -7.182  14.351  69.710  1.00  0.00    -0.074 OA 
HETATM   11  O   UNL     1      -6.357  16.293  68.960  1.00  0.00    -0.136 OA 
HETATM   12  C   UNL     1      -8.390  17.931  67.398  1.00  0.00    -0.224 C  
ENDROOT
BRANCH   3  13
HETATM   13  S   UNL     1      -9.902  13.330  68.408  1.00  0.00    -0.182 SA 
BRANCH  13  14
HETATM   14  C   UNL     1      -9.001  12.561  67.008  1.00  0.00    -0.211 C  
HETATM   15  C   UNL     1      -9.859  12.245  65.788  1.00  0.00    -0.244 C  
HETATM   16  N   UNL     1     -10.546  11.020  66.160  1.00  0.00    -0.250 NA 
HETATM   17  C   UNL     1      -9.588  10.180  66.912  1.00  0.00    -0.177 C  
HETATM   18  C   UNL     1      -8.539  11.164  67.447  1.00  0.00    -0.137 C  
HETATM   19  H   UNL     1     -10.956  10.536  65.360  1.00  0.00     0.000 HD 
BRANCH  17  20
HETATM   20  C   UNL     1     -10.378   9.314  67.934  1.00  0.00    -0.227 C  
HETATM   21  O   UNL     1     -10.712   8.165  67.638  1.00  0.00    -0.221 OA 
HETATM   22  N   UNL     1     -10.558   9.882  69.188  1.00  0.00    -0.210 N  
HETATM   23  H   UNL     1     -10.152  10.806  69.334  1.00  0.00     0.000 HD 
BRANCH  22  24
HETATM   24  C   UNL     1     -11.248   9.312  70.288  1.00  0.00    -0.231 A  
HETATM   25  C   UNL     1     -12.254   9.970  71.003  1.00  0.00    -0.462 A  
HETATM   26  C   UNL     1     -12.908   9.348  72.072  1.00  0.00    -0.496 A  
HETATM   27  C   UNL     1     -12.558   8.058  72.453  1.00  0.00    -0.218 A  
HETATM   28  C   UNL     1     -11.532   7.396  71.771  1.00  0.00    -0.297 A  
HETATM   29  C   UNL     1     -11.117   6.021  72.141  1.00  0.00    -0.279 C  
HETATM   30  C   UNL     1     -10.897   8.015  70.679  1.00  0.00    -0.240 A  
HETATM   31  O   UNL     1     -11.213   5.754  73.461  1.00  0.00    -0.174 OA 
HETATM   32  O   UNL     1     -10.689   5.220  71.327  1.00  0.00    -0.210 OA 
ENDBRANCH  22  24
ENDBRANCH  17  20
ENDBRANCH  13  14
ENDBRANCH   3  13
BRANCH   7  33
HETATM   33  C   UNL     1     -10.268  19.418  66.325  1.00  0.00    -0.478 C  
HETATM   34  O   UNL     1      -9.184  20.253  65.918  1.00  0.00    -0.589 OA 
HETATM   35  H   UNL     1      -9.549  21.114  65.751  1.00  0.00     0.000 HD 
HETATM   36  C   UNL     1     -10.907  20.001  67.576  1.00  0.00    -0.236 C  
ENDBRANCH   7  33
TORSDOF 5
ENDMDL
MODEL      109
REMARK 921   NORMALIZED FREE ENERGY PREDICTED BY IDOCK:   -5.79 KCAL/MOL
REMARK 922        TOTAL FREE ENERGY PREDICTED BY IDOCK:   -9.17 KCAL/MOL
REMARK 923 INTER-LIGAND FREE ENERGY PREDICTED BY IDOCK:   -8.12 KCAL/MOL
REMARK 924 INTRA-LIGAND FREE ENERGY PREDICTED BY IDOCK:   -1.05 KCAL/MOL
REMARK 927      BINDING AFFINITY PREDICTED BY RF-SCORE:    0.00 PKD
ROOT
HETATM    1  C   UNL     1     -10.376  16.020  67.425  1.00  0.00    -0.294 C  
HETATM    2  C   UNL     1     -10.967  14.654  67.067  1.00  0.00    -0.317 C  
HETATM    3  C   UNL     1      -9.823  13.709  67.376  1.00  0.00    -0.234 C  
HETATM    4  C   UNL     1     -11.489  14.641  65.637  1.00  0.00    -0.340 C  
HETATM    5  O   UNL     1      -7.206  16.874  67.084  1.00  0.00    -0.150 OA 
HETATM    6  C   UNL     1      -8.767  14.383  67.876  1.00  0.00    -0.168 C  
HETATM    7  C   UNL     1      -9.676  16.983  66.415  1.00  0.00    -0.310 C  
HETATM    8  N   UNL     1      -9.022  15.745  67.983  1.00  0.00    -0.177 N  
HETATM    9  C   UNL     1      -7.482  13.803  68.375  1.00  0.00    -0.119 C  
HETATM   10  O   UNL     1      -7.345  12.645  68.736  1.00  0.00    -0.107 OA 
HETATM   11  O   UNL     1      -6.440  14.664  68.392  1.00  0.00    -0.090 OA 
HETATM   12  C   UNL     1      -8.394  16.659  67.186  1.00  0.00    -0.177 C  
ENDROOT
BRANCH   3  13
HETATM   13  S   UNL     1     -10.088  12.011  67.250  1.00  0.00    -0.194 SA 
BRANCH  13  14
HETATM   14  C   UNL     1      -9.287  11.521  65.674  1.00  0.00    -0.204 C  
HETATM   15  C   UNL     1     -10.136  10.636  64.770  1.00  0.00    -0.344 C  
HETATM   16  N   UNL     1     -10.016   9.318  65.368  1.00  0.00    -0.384 NA 
HETATM   17  C   UNL     1      -8.620   9.165  65.837  1.00  0.00    -0.151 C  
HETATM   18  C   UNL     1      -8.105  10.600  66.008  1.00  0.00    -0.159 C  
HETATM   19  H   UNL     1     -10.308   8.568  64.740  1.00  0.00     0.000 HD 
BRANCH  17  20
HETATM   20  C   UNL     1      -8.609   8.222  67.074  1.00  0.00    -0.123 C  
HETATM   21  O   UNL     1      -7.563   7.667  67.414  1.00  0.00    -0.103 OA 
HETATM   22  N   UNL     1      -9.795   8.163  67.792  1.00  0.00    -0.158 N  
HETATM   23  H   UNL     1     -10.562   8.744  67.456  1.00  0.00     0.000 HD 
BRANCH  22  24
HETATM   24  C   UNL     1     -10.052   7.378  68.945  1.00  0.00    -0.186 A  
HETATM   25  C   UNL     1     -10.559   6.075  68.902  1.00  0.00    -0.356 A  
HETATM   26  C   UNL     1     -10.778   5.345  70.076  1.00  0.00    -0.296 A  
HETATM   27  C   UNL     1     -10.506   5.913  71.316  1.00  0.00    -0.289 A  
HETATM   28  C   UNL     1     -10.029   7.226  71.379  1.00  0.00    -0.193 A  
HETATM   29  C   UNL     1      -9.728   7.879  72.676  1.00  0.00    -0.240 C  
HETATM   30  C   UNL     1      -9.784   7.946  70.195  1.00  0.00    -0.179 A  
HETATM   31  O   UNL     1     -10.540   7.499  73.686  1.00  0.00    -0.348 OA 
HETATM   32  O   UNL     1      -8.850   8.715  72.805  1.00  0.00    -0.374 OA 
ENDBRANCH  22  24
ENDBRANCH  17  20
ENDBRANCH  13  14
ENDBRANCH   3  13
BRANCH   7  33
HETATM   33  C   UNL     1     -10.204  18.404  66.428  1.00  0.00    -0.410 C  
HETATM   34  O   UNL     1     -10.994  18.559  65.249  1.00  0.00    -0.551 OA 
HETATM   35  H   UNL     1     -11.324  19.450  65.258  1.00  0.00     0.000 HD 
HETATM   36  C   UNL     1      -9.069  19.416  66.410  1.00  0.00    -0.397 C  
ENDBRANCH   7  33
TORSDOF 5
ENDMDL
MODEL      110
REMARK 921   NORMALIZED FREE ENERGY PREDICTED BY IDOCK:   -5.79 KCAL/MOL
REMARK 922        TOTAL FREE ENERGY PREDICTED BY IDOCK:   -9.16 KCAL/MOL
REMARK 923 INTER-LIGAND FREE ENERGY PREDICTED BY IDOCK:   -7.96 KCAL/MOL
REMARK 924 INTRA-LIGAND FREE ENERGY PREDICTED BY IDOCK:   -1.20 KCAL/MOL
REMARK 927      BINDING AFFINITY PREDICTED BY RF-SCORE:    0.00 PKD
ROOT
HETATM    1  C   UNL     1      -8.328   6.516  66.940  1.00  0.00    -0.113 C  
HETATM    2  C   UNL     1      -9.472   7.167  67.722  1.00  0.00    -0.136 C  
HETATM    3  C   UNL     1      -9.944   6.039  68.616  1.00  0.00    -0.149 C  
HETATM    4  C   UNL     1     -10.507   7.764  66.779  1.00  0.00    -0.318 C  
HETATM    5  O   UNL     1      -8.201   3.342  66.040  1.00  0.00    -0.092 OA 
HETATM    6  C   UNL     1      -9.187   4.937  68.438  1.00  0.00    -0.124 C  
HETATM    7  C   UNL     1      -8.474   5.839  65.541  1.00  0.00    -0.150 C  
HETATM    8  N   UNL     1      -8.181   5.143  67.502  1.00  0.00    -0.103 N  
HETATM    9  C   UNL     1      -9.284   3.647  69.188  1.00  0.00    -0.159 C  
HETATM   10  O   UNL     1      -9.800   3.529  70.288  1.00  0.00    -0.152 OA 
HETATM   11  O   UNL     1      -8.757   2.579  68.549  1.00  0.00    -0.073 OA 
HETATM   12  C   UNL     1      -8.197   4.529  66.282  1.00  0.00    -0.106 C  
ENDROOT
BRANCH   3  13
HETATM   13  S   UNL     1     -11.159   6.365  69.795  1.00  0.00    -0.424 SA 
BRANCH  13  14
HETATM   14  C   UNL     1     -10.241   6.927  71.280  1.00  0.00    -0.198 C  
HETATM   15  C   UNL     1     -11.097   7.129  72.525  1.00  0.00    -0.280 C  
HETATM   16  N   UNL     1     -11.735   8.414  72.299  1.00  0.00    -0.369 NA 
HETATM   17  C   UNL     1     -10.740   9.301  71.655  1.00  0.00    -0.323 C  
HETATM   18  C   UNL     1      -9.724   8.348  71.011  1.00  0.00    -0.218 C  
HETATM   19  H   UNL     1     -12.133   8.816  73.148  1.00  0.00     0.000 HD 
BRANCH  17  20
HETATM   20  C   UNL     1     -11.489  10.311  70.740  1.00  0.00    -0.351 C  
HETATM   21  O   UNL     1     -12.698  10.498  70.891  1.00  0.00    -0.350 OA 
HETATM   22  N   UNL     1     -10.689  11.034  69.865  1.00  0.00    -0.463 N  
HETATM   23  H   UNL     1      -9.687  10.849  69.903  1.00  0.00     0.000 HD 
BRANCH  22  24
HETATM   24  C   UNL     1     -11.120  12.003  68.924  1.00  0.00    -0.247 A  
HETATM   25  C   UNL     1     -11.480  11.701  67.605  1.00  0.00    -0.373 A  
HETATM   26  C   UNL     1     -11.911  12.701  66.727  1.00  0.00    -0.440 A  
HETATM   27  C   UNL     1     -11.978  14.024  67.148  1.00  0.00    -0.465 A  
HETATM   28  C   UNL     1     -11.591  14.349  68.452  1.00  0.00    -0.351 A  
HETATM   29  C   UNL     1     -11.639  15.746  68.949  1.00  0.00    -0.394 C  
HETATM   30  C   UNL     1     -11.185  13.337  69.341  1.00  0.00    -0.220 A  
HETATM   31  O   UNL     1     -11.369  16.675  68.007  1.00  0.00    -0.251 OA 
HETATM   32  O   UNL     1     -11.863  16.022  70.115  1.00  0.00    -0.326 OA 
ENDBRANCH  22  24
ENDBRANCH  17  20
ENDBRANCH  13  14
ENDBRANCH   3  13
BRANCH   7  33
HETATM   33  C   UNL     1      -7.481   6.320  64.501  1.00  0.00    -0.087 C  
HETATM   34  O   UNL     1      -6.182   6.160  65.070  1.00  0.00    -0.029 OA 
HETATM   35  H   UNL     1      -5.560   6.462  64.418  1.00  0.00     0.000 HD 
HETATM   36  C   UNL     1      -7.703   7.785  64.159  1.00  0.00    -0.125 C  
ENDBRANCH   7  33
TORSDOF 5
ENDMDL
MODEL      111
REMARK 921   NORMALIZED FREE ENERGY PREDICTED BY IDOCK:   -5.77 KCAL/MOL
REMARK 922        TOTAL FREE ENERGY PREDICTED BY IDOCK:   -9.14 KCAL/MOL
REMARK 923 INTER-LIGAND FREE ENERGY PREDICTED BY IDOCK:   -7.74 KCAL/MOL
REMARK 924 INTRA-LIGAND FREE ENERGY PREDICTED BY IDOCK:   -1.40 KCAL/MOL
REMARK 927      BINDING AFFINITY PREDICTED BY RF-SCORE:    0.00 PKD
ROOT
HETATM    1  C   UNL     1     -10.296  14.319  67.267  1.00  0.00    -0.260 C  
HETATM    2  C   UNL     1      -9.039  13.502  66.957  1.00  0.00    -0.248 C  
HETATM    3  C   UNL     1      -9.327  12.182  67.644  1.00  0.00    -0.187 C  
HETATM    4  C   UNL     1      -7.784  14.239  67.405  1.00  0.00    -0.194 C  
HETATM    5  O   UNL     1     -12.084  14.091  70.032  1.00  0.00    -0.307 OA 
HETATM    6  C   UNL     1     -10.551  12.194  68.210  1.00  0.00    -0.217 C  
HETATM    7  C   UNL     1     -10.450  15.298  68.474  1.00  0.00    -0.235 C  
HETATM    8  N   UNL     1     -11.211  13.398  67.998  1.00  0.00    -0.256 N  
HETATM    9  C   UNL     1     -11.231  11.060  68.909  1.00  0.00    -0.265 C  
HETATM   10  O   UNL     1     -10.943   9.884  68.752  1.00  0.00    -0.223 OA 
HETATM   11  O   UNL     1     -12.213  11.427  69.762  1.00  0.00    -0.298 OA 
HETATM   12  C   UNL     1     -11.451  14.276  69.016  1.00  0.00    -0.284 C  
ENDROOT
BRANCH   3  13
HETATM   13  S   UNL     1      -8.218  10.879  67.440  1.00  0.00    -0.119 SA 
BRANCH  13  14
HETATM   14  C   UNL     1      -8.517  10.262  65.738  1.00  0.00    -0.157 C  
HETATM   15  C   UNL     1      -9.962   9.879  65.439  1.00  0.00    -0.279 C  
HETATM   16  N   UNL     1     -10.106   8.572  66.055  1.00  0.00    -0.425 NA 
HETATM   17  C   UNL     1      -8.843   7.832  65.834  1.00  0.00    -0.142 C  
HETATM   18  C   UNL     1      -7.790   8.919  65.584  1.00  0.00    -0.096 C  
HETATM   19  H   UNL     1     -10.927   8.064  65.724  1.00  0.00     0.000 HD 
BRANCH  17  20
HETATM   20  C   UNL     1      -8.625   6.849  67.020  1.00  0.00    -0.121 C  
HETATM   21  O   UNL     1      -7.486   6.479  67.311  1.00  0.00    -0.085 OA 
HETATM   22  N   UNL     1      -9.761   6.540  67.757  1.00  0.00    -0.121 N  
HETATM   23  H   UNL     1     -10.630   6.987  67.466  1.00  0.00     0.000 HD 
BRANCH  22  24
HETATM   24  C   UNL     1      -9.837   5.668  68.872  1.00  0.00    -0.147 A  
HETATM   25  C   UNL     1      -9.416   4.334  68.849  1.00  0.00    -0.236 A  
HETATM   26  C   UNL     1      -9.506   3.527  69.988  1.00  0.00    -0.253 A  
HETATM   27  C   UNL     1     -10.031   4.036  71.170  1.00  0.00    -0.197 A  
HETATM   28  C   UNL     1     -10.487   5.359  71.203  1.00  0.00    -0.295 A  
HETATM   29  C   UNL     1     -11.059   5.949  72.438  1.00  0.00    -0.280 C  
HETATM   30  C   UNL     1     -10.369   6.175  70.064  1.00  0.00    -0.267 A  
HETATM   31  O   UNL     1     -11.744   5.071  73.202  1.00  0.00    -0.313 OA 
HETATM   32  O   UNL     1     -10.952   7.132  72.712  1.00  0.00    -0.266 OA 
ENDBRANCH  22  24
ENDBRANCH  17  20
ENDBRANCH  13  14
ENDBRANCH   3  13
BRANCH   7  33
HETATM   33  C   UNL     1     -10.940  16.684  68.103  1.00  0.00    -0.327 C  
HETATM   34  O   UNL     1     -10.649  16.865  66.718  1.00  0.00    -0.290 OA 
HETATM   35  H   UNL     1     -10.957  17.733  66.485  1.00  0.00     0.000 HD 
HETATM   36  C   UNL     1     -10.229  17.758  68.911  1.00  0.00    -0.345 C  
ENDBRANCH   7  33
TORSDOF 5
ENDMDL
MODEL      112
REMARK 921   NORMALIZED FREE ENERGY PREDICTED BY IDOCK:   -5.77 KCAL/MOL
REMARK 922        TOTAL FREE ENERGY PREDICTED BY IDOCK:   -9.13 KCAL/MOL
REMARK 923 INTER-LIGAND FREE ENERGY PREDICTED BY IDOCK:   -8.21 KCAL/MOL
REMARK 924 INTRA-LIGAND FREE ENERGY PREDICTED BY IDOCK:   -0.92 KCAL/MOL
REMARK 927      BINDING AFFINITY PREDICTED BY RF-SCORE:    0.00 PKD
ROOT
HETATM    1  C   UNL     1      -8.014  15.837  67.776  1.00  0.00    -0.142 C  
HETATM    2  C   UNL     1      -9.243  14.924  67.751  1.00  0.00    -0.186 C  
HETATM    3  C   UNL     1     -10.215  15.704  66.889  1.00  0.00    -0.281 C  
HETATM    4  C   UNL     1      -9.705  14.592  69.163  1.00  0.00    -0.108 C  
HETATM    5  O   UNL     1      -8.089  19.137  67.694  1.00  0.00    -0.262 OA 
HETATM    6  C   UNL     1      -9.650  16.843  66.440  1.00  0.00    -0.284 C  
HETATM    7  C   UNL     1      -7.712  16.899  68.881  1.00  0.00    -0.237 C  
HETATM    8  N   UNL     1      -8.338  16.980  66.876  1.00  0.00    -0.203 N  
HETATM    9  C   UNL     1     -10.254  17.839  65.501  1.00  0.00     0.150 C  
HETATM   10  O   UNL     1     -11.173  17.593  64.736  1.00  0.00    -0.834 OA 
HETATM   11  O   UNL     1      -9.710  19.075  65.560  1.00  0.00    -0.228 OA 
HETATM   12  C   UNL     1      -7.978  17.934  67.785  1.00  0.00    -0.230 C  
ENDROOT
BRANCH   3  13
HETATM   13  S   UNL     1     -11.720  14.977  66.466  1.00  0.00    -0.027 SA 
BRANCH  13  14
HETATM   14  C   UNL     1     -11.440  14.231  64.814  1.00  0.00    -0.393 C  
HETATM   15  C   UNL     1     -12.575  13.348  64.308  1.00  0.00    -0.158 C  
HETATM   16  N   UNL     1     -12.385  12.099  65.026  1.00  0.00    -0.451 NA 
HETATM   17  C   UNL     1     -10.928  11.849  65.109  1.00  0.00    -0.312 C  
HETATM   18  C   UNL     1     -10.282  13.229  64.934  1.00  0.00    -0.313 C  
HETATM   19  H   UNL     1     -12.898  11.321  64.611  1.00  0.00     0.000 HD 
BRANCH  17  20
HETATM   20  C   UNL     1     -10.632  11.054  66.413  1.00  0.00    -0.251 C  
HETATM   21  O   UNL     1      -9.687  10.264  66.450  1.00  0.00    -0.183 OA 
HETATM   22  N   UNL     1     -11.416  11.389  67.509  1.00  0.00    -0.283 N  
HETATM   23  H   UNL     1     -12.106  12.126  67.370  1.00  0.00     0.000 HD 
BRANCH  22  24
HETATM   24  C   UNL     1     -11.358  10.811  68.803  1.00  0.00    -0.288 A  
HETATM   25  C   UNL     1     -12.291  11.067  69.813  1.00  0.00    -0.331 A  
HETATM   26  C   UNL     1     -12.187  10.455  71.067  1.00  0.00    -0.498 A  
HETATM   27  C   UNL     1     -11.137   9.583  71.337  1.00  0.00    -0.438 A  
HETATM   28  C   UNL     1     -10.176   9.340  70.349  1.00  0.00    -0.284 A  
HETATM   29  C   UNL     1      -9.035   8.424  70.588  1.00  0.00    -0.152 C  
HETATM   30  C   UNL     1     -10.301   9.937  69.082  1.00  0.00    -0.225 A  
HETATM   31  O   UNL     1      -8.584   8.427  71.861  1.00  0.00    -0.154 OA 
HETATM   32  O   UNL     1      -8.528   7.758  69.702  1.00  0.00    -0.130 OA 
ENDBRANCH  22  24
ENDBRANCH  17  20
ENDBRANCH  13  14
ENDBRANCH   3  13
BRANCH   7  33
HETATM   33  C   UNL     1      -6.324  16.804  69.482  1.00  0.00    -0.229 C  
HETATM   34  O   UNL     1      -5.483  17.662  68.710  1.00  0.00    -0.155 OA 
HETATM   35  H   UNL     1      -4.613  17.602  69.087  1.00  0.00     0.000 HD 
HETATM   36  C   UNL     1      -5.787  15.383  69.417  1.00  0.00    -0.109 C  
ENDBRANCH   7  33
TORSDOF 5
ENDMDL
MODEL      113
REMARK 921   NORMALIZED FREE ENERGY PREDICTED BY IDOCK:   -5.72 KCAL/MOL
REMARK 922        TOTAL FREE ENERGY PREDICTED BY IDOCK:   -9.08 KCAL/MOL
REMARK 923 INTER-LIGAND FREE ENERGY PREDICTED BY IDOCK:   -7.93 KCAL/MOL
REMARK 924 INTRA-LIGAND FREE ENERGY PREDICTED BY IDOCK:   -1.16 KCAL/MOL
REMARK 927      BINDING AFFINITY PREDICTED BY RF-SCORE:    0.00 PKD
ROOT
HETATM    1  C   UNL     1     -10.909   6.275  71.248  1.00  0.00    -0.265 C  
HETATM    2  C   UNL     1     -10.804   7.778  70.975  1.00  0.00    -0.253 C  
HETATM    3  C   UNL     1     -10.660   7.828  69.467  1.00  0.00    -0.221 C  
HETATM    4  C   UNL     1      -9.676   8.403  71.784  1.00  0.00    -0.306 C  
HETATM    5  O   UNL     1      -9.395   3.911  69.512  1.00  0.00    -0.144 OA 
HETATM    6  C   UNL     1     -10.723   6.590  68.938  1.00  0.00    -0.273 C  
HETATM    7  C   UNL     1      -9.707   5.347  71.610  1.00  0.00    -0.204 C  
HETATM    8  N   UNL     1     -10.915   5.617  69.911  1.00  0.00    -0.313 N  
HETATM    9  C   UNL     1     -10.702   6.227  67.487  1.00  0.00    -0.319 C  
HETATM   10  O   UNL     1     -10.988   6.996  66.582  1.00  0.00    -0.219 OA 
HETATM   11  O   UNL     1     -10.324   4.957  67.225  1.00  0.00    -0.170 OA 
HETATM   12  C   UNL     1      -9.938   4.718  70.233  1.00  0.00    -0.250 C  
ENDROOT
BRANCH   3  13
HETATM   13  S   UNL     1     -10.647   9.364  68.683  1.00  0.00    -0.169 SA 
BRANCH  13  14
HETATM   14  C   UNL     1      -9.003   9.471  67.877  1.00  0.00    -0.123 C  
HETATM   15  C   UNL     1      -7.821   9.549  68.836  1.00  0.00    -0.080 C  
HETATM   16  N   UNL     1      -7.821  10.935  69.270  1.00  0.00    -0.294 NA 
HETATM   17  C   UNL     1      -8.173  11.770  68.099  1.00  0.00    -0.153 C  
HETATM   18  C   UNL     1      -8.916  10.821  67.150  1.00  0.00    -0.145 C  
HETATM   19  H   UNL     1      -6.942  11.215  69.707  1.00  0.00     0.000 HD 
BRANCH  17  20
HETATM   20  C   UNL     1      -8.910  13.045  68.598  1.00  0.00     0.061 C  
HETATM   21  O   UNL     1      -8.367  14.147  68.502  1.00  0.00    -0.156 OA 
HETATM   22  N   UNL     1     -10.216  12.852  69.028  1.00  0.00    -0.434 N  
HETATM   23  H   UNL     1     -10.580  11.901  68.971  1.00  0.00     0.000 HD 
BRANCH  22  24
HETATM   24  C   UNL     1     -11.097  13.839  69.538  1.00  0.00    -0.103 A  
HETATM   25  C   UNL     1     -11.289  15.092  68.947  1.00  0.00    -0.312 A  
HETATM   26  C   UNL     1     -12.184  16.019  69.491  1.00  0.00     0.003 A  
HETATM   27  C   UNL     1     -12.894  15.714  70.647  1.00  0.00    -0.400 A  
HETATM   28  C   UNL     1     -12.691  14.478  71.271  1.00  0.00    -0.413 A  
HETATM   29  C   UNL     1     -13.419  14.106  72.508  1.00  0.00    -0.534 C  
HETATM   30  C   UNL     1     -11.811  13.539  70.704  1.00  0.00    -0.200 A  
HETATM   31  O   UNL     1     -13.674  15.146  73.331  1.00  0.00    -0.354 OA 
HETATM   32  O   UNL     1     -13.723  12.955  72.772  1.00  0.00    -0.508 OA 
ENDBRANCH  22  24
ENDBRANCH  17  20
ENDBRANCH  13  14
ENDBRANCH   3  13
BRANCH   7  33
HETATM   33  C   UNL     1      -9.915   4.500  72.849  1.00  0.00    -0.152 C  
HETATM   34  O   UNL     1      -9.982   3.142  72.412  1.00  0.00    -0.147 OA 
HETATM   35  H   UNL     1     -10.112   2.611  73.190  1.00  0.00     0.000 HD 
HETATM   36  C   UNL     1     -11.210   4.863  73.558  1.00  0.00    -0.375 C  
ENDBRANCH   7  33
TORSDOF 5
ENDMDL
MODEL      114
REMARK 921   NORMALIZED FREE ENERGY PREDICTED BY IDOCK:   -5.72 KCAL/MOL
REMARK 922        TOTAL FREE ENERGY PREDICTED BY IDOCK:   -9.08 KCAL/MOL
REMARK 923 INTER-LIGAND FREE ENERGY PREDICTED BY IDOCK:   -7.55 KCAL/MOL
REMARK 924 INTRA-LIGAND FREE ENERGY PREDICTED BY IDOCK:   -1.52 KCAL/MOL
REMARK 927      BINDING AFFINITY PREDICTED BY RF-SCORE:    0.00 PKD
ROOT
HETATM    1  C   UNL     1     -11.337  11.633  70.127  1.00  0.00    -0.002 C  
HETATM    2  C   UNL     1     -10.652  11.775  68.765  1.00  0.00    -0.234 C  
HETATM    3  C   UNL     1     -10.750  13.264  68.502  1.00  0.00    -0.262 C  
HETATM    4  C   UNL     1     -11.295  10.860  67.732  1.00  0.00    -0.366 C  
HETATM    5  O   UNL     1     -13.856  13.480  71.195  1.00  0.00     0.031 OA 
HETATM    6  C   UNL     1     -11.336  13.897  69.538  1.00  0.00    -0.237 C  
HETATM    7  C   UNL     1     -12.847  11.289  70.336  1.00  0.00    -0.114 C  
HETATM    8  N   UNL     1     -11.673  13.018  70.561  1.00  0.00    -0.077 N  
HETATM    9  C   UNL     1     -11.542  15.370  69.695  1.00  0.00    -0.331 C  
HETATM   10  O   UNL     1     -10.901  16.220  69.098  1.00  0.00    -0.271 OA 
HETATM   11  O   UNL     1     -12.522  15.716  70.558  1.00  0.00    -0.415 OA 
HETATM   12  C   UNL     1     -12.974  12.723  70.856  1.00  0.00    -0.000 C  
ENDROOT
BRANCH   3  13
HETATM   13  S   UNL     1      -9.969  13.915  67.110  1.00  0.00    -0.243 SA 
BRANCH  13  14
HETATM   14  C   UNL     1     -11.330  14.543  66.052  1.00  0.00    -0.341 C  
HETATM   15  C   UNL     1     -12.659  13.814  66.215  1.00  0.00    -0.321 C  
HETATM   16  N   UNL     1     -12.478  12.594  65.448  1.00  0.00    -0.655 NA 
HETATM   17  C   UNL     1     -11.708  12.941  64.232  1.00  0.00    -0.386 C  
HETATM   18  C   UNL     1     -10.975  14.240  64.589  1.00  0.00    -0.379 C  
HETATM   19  H   UNL     1     -13.358  12.122  65.239  1.00  0.00     0.000 HD 
BRANCH  17  20
HETATM   20  C   UNL     1     -10.862  11.706  63.808  1.00  0.00    -0.424 C  
HETATM   21  O   UNL     1     -11.116  11.119  62.755  1.00  0.00     0.296 OA 
HETATM   22  N   UNL     1      -9.775  11.417  64.623  1.00  0.00    -0.254 N  
HETATM   23  H   UNL     1      -9.621  12.038  65.416  1.00  0.00     0.000 HD 
BRANCH  22  24
HETATM   24  C   UNL     1      -8.858  10.347  64.466  1.00  0.00    -0.207 A  
HETATM   25  C   UNL     1      -7.716  10.411  63.660  1.00  0.00    -0.050 A  
HETATM   26  C   UNL     1      -6.841   9.325  63.558  1.00  0.00    -0.091 A  
HETATM   27  C   UNL     1      -7.100   8.147  64.250  1.00  0.00    -0.078 A  
HETATM   28  C   UNL     1      -8.254   8.053  65.035  1.00  0.00    -0.144 A  
HETATM   29  C   UNL     1      -8.579   6.818  65.790  1.00  0.00    -0.137 C  
HETATM   30  C   UNL     1      -9.116   9.158  65.158  1.00  0.00    -0.234 A  
HETATM   31  O   UNL     1      -8.190   5.680  65.177  1.00  0.00    -0.124 OA 
HETATM   32  O   UNL     1      -9.179   6.834  66.851  1.00  0.00    -0.133 OA 
ENDBRANCH  22  24
ENDBRANCH  17  20
ENDBRANCH  13  14
ENDBRANCH   3  13
BRANCH   7  33
HETATM   33  C   UNL     1     -13.105  10.137  71.286  1.00  0.00    -0.396 C  
HETATM   34  O   UNL     1     -13.581  10.708  72.504  1.00  0.00    -0.518 OA 
HETATM   35  H   UNL     1     -13.743   9.985  73.100  1.00  0.00     0.000 HD 
HETATM   36  C   UNL     1     -11.832   9.351  71.563  1.00  0.00    -0.456 C  
ENDBRANCH   7  33
TORSDOF 5
ENDMDL
MODEL      115
REMARK 921   NORMALIZED FREE ENERGY PREDICTED BY IDOCK:   -5.72 KCAL/MOL
REMARK 922        TOTAL FREE ENERGY PREDICTED BY IDOCK:   -9.08 KCAL/MOL
REMARK 923 INTER-LIGAND FREE ENERGY PREDICTED BY IDOCK:   -7.59 KCAL/MOL
REMARK 924 INTRA-LIGAND FREE ENERGY PREDICTED BY IDOCK:   -1.48 KCAL/MOL
REMARK 927      BINDING AFFINITY PREDICTED BY RF-SCORE:    0.00 PKD
ROOT
HETATM    1  C   UNL     1      -9.210   4.708  67.073  1.00  0.00    -0.128 C  
HETATM    2  C   UNL     1     -10.115   4.719  68.308  1.00  0.00    -0.109 C  
HETATM    3  C   UNL     1     -10.499   6.181  68.421  1.00  0.00    -0.231 C  
HETATM    4  C   UNL     1      -9.407   4.109  69.509  1.00  0.00    -0.238 C  
HETATM    5  O   UNL     1      -7.202   7.164  66.159  1.00  0.00    -0.071 OA 
HETATM    6  C   UNL     1      -9.965   6.897  67.411  1.00  0.00    -0.166 C  
HETATM    7  C   UNL     1      -7.653   4.828  67.105  1.00  0.00    -0.087 C  
HETATM    8  N   UNL     1      -9.228   6.101  66.542  1.00  0.00    -0.146 N  
HETATM    9  C   UNL     1     -10.174   8.350  67.127  1.00  0.00    -0.292 C  
HETATM   10  O   UNL     1     -11.122   9.001  67.538  1.00  0.00    -0.042 OA 
HETATM   11  O   UNL     1      -9.213   8.924  66.370  1.00  0.00    -0.161 OA 
HETATM   12  C   UNL     1      -7.868   6.197  66.457  1.00  0.00    -0.104 C  
ENDROOT
BRANCH   3  13
HETATM   13  S   UNL     1     -11.646   6.649  69.619  1.00  0.00    -0.136 SA 
BRANCH  13  14
HETATM   14  C   UNL     1     -10.644   7.108  71.084  1.00  0.00    -0.223 C  
HETATM   15  C   UNL     1     -11.443   7.334  72.363  1.00  0.00    -0.287 C  
HETATM   16  N   UNL     1     -11.999   8.664  72.190  1.00  0.00    -0.367 NA 
HETATM   17  C   UNL     1     -10.966   9.499  71.534  1.00  0.00    -0.299 C  
HETATM   18  C   UNL     1     -10.040   8.497  70.833  1.00  0.00    -0.246 C  
HETATM   19  H   UNL     1     -12.340   9.069  73.063  1.00  0.00     0.000 HD 
BRANCH  17  20
HETATM   20  C   UNL     1     -11.674  10.582  70.671  1.00  0.00    -0.357 C  
HETATM   21  O   UNL     1     -12.844  10.888  70.908  1.00  0.00    -0.346 OA 
HETATM   22  N   UNL     1     -10.871  11.222  69.737  1.00  0.00    -0.465 N  
HETATM   23  H   UNL     1      -9.893  10.937  69.704  1.00  0.00     0.000 HD 
BRANCH  22  24
HETATM   24  C   UNL     1     -11.269  12.232  68.825  1.00  0.00    -0.265 A  
HETATM   25  C   UNL     1     -11.638  11.981  67.498  1.00  0.00    -0.401 A  
HETATM   26  C   UNL     1     -12.035  13.020  66.650  1.00  0.00    -0.453 A  
HETATM   27  C   UNL     1     -12.059  14.332  67.109  1.00  0.00    -0.412 A  
HETATM   28  C   UNL     1     -11.662  14.605  68.423  1.00  0.00    -0.352 A  
HETATM   29  C   UNL     1     -11.664  15.988  68.960  1.00  0.00    -0.318 C  
HETATM   30  C   UNL     1     -11.291  13.555  69.281  1.00  0.00    -0.317 A  
HETATM   31  O   UNL     1     -11.364  16.934  68.046  1.00  0.00    -0.190 OA 
HETATM   32  O   UNL     1     -11.880  16.237  70.134  1.00  0.00    -0.199 OA 
ENDBRANCH  22  24
ENDBRANCH  17  20
ENDBRANCH  13  14
ENDBRANCH   3  13
BRANCH   7  33
HETATM   33  C   UNL     1      -6.922   3.752  66.327  1.00  0.00    -0.062 C  
HETATM   34  O   UNL     1      -6.931   4.158  64.958  1.00  0.00    -0.055 OA 
HETATM   35  H   UNL     1      -6.473   3.483  64.471  1.00  0.00     0.000 HD 
HETATM   36  C   UNL     1      -7.618   2.405  66.456  1.00  0.00    -0.071 C  
ENDBRANCH   7  33
TORSDOF 5
ENDMDL
MODEL      116
REMARK 921   NORMALIZED FREE ENERGY PREDICTED BY IDOCK:   -5.72 KCAL/MOL
REMARK 922        TOTAL FREE ENERGY PREDICTED BY IDOCK:   -9.07 KCAL/MOL
REMARK 923 INTER-LIGAND FREE ENERGY PREDICTED BY IDOCK:   -8.20 KCAL/MOL
REMARK 924 INTRA-LIGAND FREE ENERGY PREDICTED BY IDOCK:   -0.87 KCAL/MOL
REMARK 927      BINDING AFFINITY PREDICTED BY RF-SCORE:    0.00 PKD
ROOT
HETATM    1  C   UNL     1      -9.516  17.441  68.325  1.00  0.00    -0.290 C  
HETATM    2  C   UNL     1      -9.497  16.036  68.935  1.00  0.00    -0.235 C  
HETATM    3  C   UNL     1      -8.020  15.806  69.185  1.00  0.00    -0.231 C  
HETATM    4  C   UNL     1     -10.194  15.035  68.024  1.00  0.00    -0.228 C  
HETATM    5  O   UNL     1      -7.153  18.717  66.405  1.00  0.00    -0.213 OA 
HETATM    6  C   UNL     1      -7.300  16.892  68.838  1.00  0.00    -0.236 C  
HETATM    7  C   UNL     1      -9.493  17.750  66.795  1.00  0.00    -0.289 C  
HETATM    8  N   UNL     1      -8.106  17.921  68.365  1.00  0.00    -0.292 N  
HETATM    9  C   UNL     1      -5.827  17.089  69.006  1.00  0.00    -0.162 C  
HETATM   10  O   UNL     1      -5.136  16.463  69.795  1.00  0.00    -0.123 OA 
HETATM   11  O   UNL     1      -5.284  18.025  68.198  1.00  0.00    -0.152 OA 
HETATM   12  C   UNL     1      -8.089  18.303  67.053  1.00  0.00    -0.230 C  
ENDROOT
BRANCH   3  13
HETATM   13  S   UNL     1      -7.529  14.374  70.009  1.00  0.00     0.541 SA 
BRANCH  13  14
HETATM   14  C   UNL     1      -6.503  13.457  68.797  1.00  0.00    -0.098 C  
HETATM   15  C   UNL     1      -6.807  13.764  67.335  1.00  0.00    -0.018 C  
HETATM   16  N   UNL     1      -8.009  12.993  67.065  1.00  0.00    -0.389 NA 
HETATM   17  C   UNL     1      -7.880  11.701  67.776  1.00  0.00    -0.129 C  
HETATM   18  C   UNL     1      -6.865  11.968  68.895  1.00  0.00    -0.103 C  
HETATM   19  H   UNL     1      -8.194  12.881  66.068  1.00  0.00     0.000 HD 
BRANCH  17  20
HETATM   20  C   UNL     1      -9.301  11.203  68.168  1.00  0.00    -0.176 C  
HETATM   21  O   UNL     1     -10.198  11.178  67.324  1.00  0.00    -0.184 OA 
HETATM   22  N   UNL     1      -9.425  10.704  69.458  1.00  0.00    -0.423 N  
HETATM   23  H   UNL     1      -8.580  10.697  70.028  1.00  0.00     0.000 HD 
BRANCH  22  24
HETATM   24  C   UNL     1     -10.604  10.202  70.064  1.00  0.00    -0.287 A  
HETATM   25  C   UNL     1     -11.676  11.007  70.467  1.00  0.00    -0.416 A  
HETATM   26  C   UNL     1     -12.820  10.450  71.048  1.00  0.00    -0.494 A  
HETATM   27  C   UNL     1     -12.908   9.077  71.248  1.00  0.00    -0.296 A  
HETATM   28  C   UNL     1     -11.834   8.260  70.881  1.00  0.00    -0.232 A  
HETATM   29  C   UNL     1     -11.875   6.791  71.077  1.00  0.00    -0.376 C  
HETATM   30  C   UNL     1     -10.697   8.822  70.272  1.00  0.00    -0.249 A  
HETATM   31  O   UNL     1     -12.563   6.401  72.172  1.00  0.00    -0.268 OA 
HETATM   32  O   UNL     1     -11.303   6.011  70.335  1.00  0.00    -0.338 OA 
ENDBRANCH  22  24
ENDBRANCH  17  20
ENDBRANCH  13  14
ENDBRANCH   3  13
BRANCH   7  33
HETATM   33  C   UNL     1     -10.581  18.696  66.327  1.00  0.00    -0.348 C  
HETATM   34  O   UNL     1     -10.922  18.303  64.997  1.00  0.00    -0.684 OA 
HETATM   35  H   UNL     1     -11.604  18.896  64.704  1.00  0.00     0.000 HD 
HETATM   36  C   UNL     1     -10.095  20.137  66.315  1.00  0.00    -0.552 C  
ENDBRANCH   7  33
TORSDOF 5
ENDMDL
MODEL      117
REMARK 921   NORMALIZED FREE ENERGY PREDICTED BY IDOCK:   -5.71 KCAL/MOL
REMARK 922        TOTAL FREE ENERGY PREDICTED BY IDOCK:   -9.06 KCAL/MOL
REMARK 923 INTER-LIGAND FREE ENERGY PREDICTED BY IDOCK:   -7.77 KCAL/MOL
REMARK 924 INTRA-LIGAND FREE ENERGY PREDICTED BY IDOCK:   -1.29 KCAL/MOL
REMARK 927      BINDING AFFINITY PREDICTED BY RF-SCORE:    0.00 PKD
ROOT
HETATM    1  C   UNL     1     -11.195   6.880  70.530  1.00  0.00    -0.307 C  
HETATM    2  C   UNL     1     -11.010   8.124  69.656  1.00  0.00    -0.094 C  
HETATM    3  C   UNL     1     -10.582   7.532  68.328  1.00  0.00    -0.136 C  
HETATM    4  C   UNL     1     -10.045   9.108  70.303  1.00  0.00    -0.244 C  
HETATM    5  O   UNL     1      -9.424   4.104  70.293  1.00  0.00    -0.145 OA 
HETATM    6  C   UNL     1     -10.567   6.185  68.386  1.00  0.00    -0.265 C  
HETATM    7  C   UNL     1     -10.101   6.277  71.467  1.00  0.00    -0.218 C  
HETATM    8  N   UNL     1     -10.959   5.713  69.633  1.00  0.00    -0.314 N  
HETATM    9  C   UNL     1     -10.277   5.238  67.265  1.00  0.00    -0.206 C  
HETATM   10  O   UNL     1     -10.371   5.524  66.082  1.00  0.00    -0.168 OA 
HETATM   11  O   UNL     1      -9.881   4.006  67.653  1.00  0.00    -0.151 OA 
HETATM   12  C   UNL     1     -10.079   5.106  70.482  1.00  0.00    -0.256 C  
ENDROOT
BRANCH   3  13
HETATM   13  S   UNL     1     -10.390   8.581  66.974  1.00  0.00    -0.293 SA 
BRANCH  13  14
HETATM   14  C   UNL     1      -8.658   8.334  66.423  1.00  0.00    -0.133 C  
HETATM   15  C   UNL     1      -7.641   8.190  67.549  1.00  0.00    -0.101 C  
HETATM   16  N   UNL     1      -7.421   9.557  67.990  1.00  0.00    -0.083 NA 
HETATM   17  C   UNL     1      -7.417  10.420  66.787  1.00  0.00    -0.110 C  
HETATM   18  C   UNL     1      -8.191   9.621  65.729  1.00  0.00    -0.120 C  
HETATM   19  H   UNL     1      -6.578   9.661  68.556  1.00  0.00     0.000 HD 
BRANCH  17  20
HETATM   20  C   UNL     1      -7.944  11.829  67.181  1.00  0.00    -0.166 C  
HETATM   21  O   UNL     1      -7.147  12.730  67.448  1.00  0.00    -0.148 OA 
HETATM   22  N   UNL     1      -9.319  12.000  67.094  1.00  0.00    -0.182 N  
HETATM   23  H   UNL     1      -9.860  11.198  66.772  1.00  0.00     0.000 HD 
BRANCH  22  24
HETATM   24  C   UNL     1     -10.050  13.175  67.405  1.00  0.00    -0.229 A  
HETATM   25  C   UNL     1     -10.145  14.282  66.554  1.00  0.00    -0.283 A  
HETATM   26  C   UNL     1     -10.894  15.407  66.913  1.00  0.00    -0.313 A  
HETATM   27  C   UNL     1     -11.551  15.452  68.138  1.00  0.00    -0.331 A  
HETATM   28  C   UNL     1     -11.441  14.368  69.015  1.00  0.00    -0.314 A  
HETATM   29  C   UNL     1     -12.118  14.367  70.335  1.00  0.00    -0.331 C  
HETATM   30  C   UNL     1     -10.710  13.227  68.638  1.00  0.00    -0.281 A  
HETATM   31  O   UNL     1     -12.200  15.585  70.912  1.00  0.00    -0.336 OA 
HETATM   32  O   UNL     1     -12.526  13.348  70.865  1.00  0.00    -0.361 OA 
ENDBRANCH  22  24
ENDBRANCH  17  20
ENDBRANCH  13  14
ENDBRANCH   3  13
BRANCH   7  33
HETATM   33  C   UNL     1     -10.557   6.031  72.892  1.00  0.00    -0.235 C  
HETATM   34  O   UNL     1     -11.980   5.917  72.853  1.00  0.00    -0.526 OA 
HETATM   35  H   UNL     1     -12.266   5.764  73.746  1.00  0.00     0.000 HD 
HETATM   36  C   UNL     1     -10.171   7.185  73.804  1.00  0.00    -0.395 C  
ENDBRANCH   7  33
TORSDOF 5
ENDMDL
MODEL      118
REMARK 921   NORMALIZED FREE ENERGY PREDICTED BY IDOCK:   -5.67 KCAL/MOL
REMARK 922        TOTAL FREE ENERGY PREDICTED BY IDOCK:   -9.01 KCAL/MOL
REMARK 923 INTER-LIGAND FREE ENERGY PREDICTED BY IDOCK:   -8.03 KCAL/MOL
REMARK 924 INTRA-LIGAND FREE ENERGY PREDICTED BY IDOCK:   -0.98 KCAL/MOL
REMARK 927      BINDING AFFINITY PREDICTED BY RF-SCORE:    0.00 PKD
ROOT
HETATM    1  C   UNL     1      -8.957  14.398  67.072  1.00  0.00    -0.240 C  
HETATM    2  C   UNL     1      -8.665  12.906  66.893  1.00  0.00    -0.164 C  
HETATM    3  C   UNL     1      -9.961  12.385  66.304  1.00  0.00    -0.246 C  
HETATM    4  C   UNL     1      -8.216  12.276  68.204  1.00  0.00    -0.168 C  
HETATM    5  O   UNL     1     -11.906  15.688  67.806  1.00  0.00    -0.153 OA 
HETATM    6  C   UNL     1     -10.840  13.390  66.117  1.00  0.00    -0.281 C  
HETATM    7  C   UNL     1      -9.494  15.053  68.384  1.00  0.00    -0.201 C  
HETATM    8  N   UNL     1     -10.316  14.619  66.499  1.00  0.00    -0.276 N  
HETATM    9  C   UNL     1     -12.194  13.298  65.487  1.00  0.00    -0.457 C  
HETATM   10  O   UNL     1     -12.543  12.399  64.737  1.00  0.00    -0.510 OA 
HETATM   11  O   UNL     1     -13.042  14.297  65.816  1.00  0.00    -0.452 OA 
HETATM   12  C   UNL     1     -10.782  15.292  67.593  1.00  0.00    -0.282 C  
ENDROOT
BRANCH   3  13
HETATM   13  S   UNL     1     -10.044  10.739  65.802  1.00  0.00    -0.265 SA 
BRANCH  13  14
HETATM   14  C   UNL     1      -8.510  10.460  64.835  1.00  0.00    -0.175 C  
HETATM   15  C   UNL     1      -8.663   9.515  63.648  1.00  0.00    -0.221 C  
HETATM   16  N   UNL     1      -8.651   8.195  64.255  1.00  0.00    -0.391 NA 
HETATM   17  C   UNL     1      -7.657   8.217  65.352  1.00  0.00    -0.096 C  
HETATM   18  C   UNL     1      -7.517   9.699  65.725  1.00  0.00    -0.100 C  
HETATM   19  H   UNL     1      -8.480   7.449  63.580  1.00  0.00     0.000 HD 
BRANCH  17  20
HETATM   20  C   UNL     1      -8.108   7.217  66.454  1.00  0.00    -0.116 C  
HETATM   21  O   UNL     1      -7.517   6.144  66.590  1.00  0.00    -0.087 OA 
HETATM   22  N   UNL     1      -9.108   7.672  67.303  1.00  0.00    -0.126 N  
HETATM   23  H   UNL     1      -9.451   8.618  67.139  1.00  0.00     0.000 HD 
BRANCH  22  24
HETATM   24  C   UNL     1      -9.702   6.958  68.375  1.00  0.00    -0.137 A  
HETATM   25  C   UNL     1      -9.514   5.589  68.598  1.00  0.00    -0.160 A  
HETATM   26  C   UNL     1     -10.118   4.944  69.682  1.00  0.00    -0.300 A  
HETATM   27  C   UNL     1     -10.932   5.654  70.557  1.00  0.00    -0.267 A  
HETATM   28  C   UNL     1     -11.158   7.016  70.331  1.00  0.00    -0.323 A  
HETATM   29  C   UNL     1     -12.021   7.818  71.232  1.00  0.00    -0.302 C  
HETATM   30  C   UNL     1     -10.526   7.667  69.256  1.00  0.00    -0.220 A  
HETATM   31  O   UNL     1     -13.057   7.130  71.758  1.00  0.00    -0.356 OA 
HETATM   32  O   UNL     1     -11.831   9.004  71.442  1.00  0.00    -0.285 OA 
ENDBRANCH  22  24
ENDBRANCH  17  20
ENDBRANCH  13  14
ENDBRANCH   3  13
BRANCH   7  33
HETATM   33  C   UNL     1      -8.694  16.247  68.866  1.00  0.00    -0.253 C  
HETATM   34  O   UNL     1      -9.458  17.409  68.546  1.00  0.00    -0.280 OA 
HETATM   35  H   UNL     1      -8.957  18.157  68.847  1.00  0.00     0.000 HD 
HETATM   36  C   UNL     1      -7.344  16.326  68.169  1.00  0.00    -0.144 C  
ENDBRANCH   7  33
TORSDOF 5
ENDMDL
MODEL      119
REMARK 921   NORMALIZED FREE ENERGY PREDICTED BY IDOCK:   -5.66 KCAL/MOL
REMARK 922        TOTAL FREE ENERGY PREDICTED BY IDOCK:   -8.99 KCAL/MOL
REMARK 923 INTER-LIGAND FREE ENERGY PREDICTED BY IDOCK:   -7.72 KCAL/MOL
REMARK 924 INTRA-LIGAND FREE ENERGY PREDICTED BY IDOCK:   -1.27 KCAL/MOL
REMARK 927      BINDING AFFINITY PREDICTED BY RF-SCORE:    0.00 PKD
ROOT
HETATM    1  C   UNL     1     -11.430  12.713  65.734  1.00  0.00    -0.358 C  
HETATM    2  C   UNL     1     -10.637  11.732  66.602  1.00  0.00    -0.275 C  
HETATM    3  C   UNL     1      -9.889  12.655  67.542  1.00  0.00    -0.203 C  
HETATM    4  C   UNL     1      -9.788  10.806  65.742  1.00  0.00    -0.292 C  
HETATM    5  O   UNL     1     -10.416  15.729  64.855  1.00  0.00    -0.499 OA 
HETATM    6  C   UNL     1     -10.217  13.942  67.312  1.00  0.00    -0.249 C  
HETATM    7  C   UNL     1     -10.953  13.275  64.357  1.00  0.00    -0.413 C  
HETATM    8  N   UNL     1     -11.155  14.066  66.294  1.00  0.00    -0.304 N  
HETATM    9  C   UNL     1      -9.755  15.141  68.079  1.00  0.00    -0.209 C  
HETATM   10  O   UNL     1      -9.320  15.101  69.219  1.00  0.00    -0.218 OA 
HETATM   11  O   UNL     1      -9.841  16.311  67.407  1.00  0.00    -0.236 OA 
HETATM   12  C   UNL     1     -10.835  14.616  65.085  1.00  0.00    -0.401 C  
ENDROOT
BRANCH   3  13
HETATM   13  S   UNL     1      -8.952  11.965  68.814  1.00  0.00     0.147 SA 
BRANCH  13  14
HETATM   14  C   UNL     1      -7.207  12.258  68.333  1.00  0.00    -0.102 C  
HETATM   15  C   UNL     1      -6.773  11.570  67.044  1.00  0.00    -0.143 C  
HETATM   16  N   UNL     1      -6.544  10.194  67.449  1.00  0.00    -0.068 NA 
HETATM   17  C   UNL     1      -5.917  10.221  68.790  1.00  0.00    -0.040 C  
HETATM   18  C   UNL     1      -6.305  11.584  69.376  1.00  0.00    -0.103 C  
HETATM   19  H   UNL     1      -6.000   9.664  66.767  1.00  0.00     0.000 HD 
BRANCH  17  20
HETATM   20  C   UNL     1      -6.335   8.937  69.562  1.00  0.00    -0.043 C  
HETATM   21  O   UNL     1      -5.536   8.391  70.325  1.00  0.00    -0.022 OA 
HETATM   22  N   UNL     1      -7.661   8.553  69.412  1.00  0.00    -0.090 N  
HETATM   23  H   UNL     1      -8.244   9.146  68.822  1.00  0.00     0.000 HD 
BRANCH  22  24
HETATM   24  C   UNL     1      -8.289   7.423  69.995  1.00  0.00    -0.137 A  
HETATM   25  C   UNL     1      -7.852   6.107  69.808  1.00  0.00    -0.106 A  
HETATM   26  C   UNL     1      -8.507   5.034  70.422  1.00  0.00    -0.105 A  
HETATM   27  C   UNL     1      -9.620   5.257  71.224  1.00  0.00    -0.212 A  
HETATM   28  C   UNL     1     -10.091   6.563  71.396  1.00  0.00    -0.213 A  
HETATM   29  C   UNL     1     -11.277   6.854  72.237  1.00  0.00    -0.263 C  
HETATM   30  C   UNL     1      -9.413   7.641  70.800  1.00  0.00    -0.162 A  
HETATM   31  O   UNL     1     -12.219   5.888  72.214  1.00  0.00    -0.245 OA 
HETATM   32  O   UNL     1     -11.402   7.894  72.861  1.00  0.00    -0.406 OA 
ENDBRANCH  22  24
ENDBRANCH  17  20
ENDBRANCH  13  14
ENDBRANCH   3  13
BRANCH   7  33
HETATM   33  C   UNL     1     -11.962  13.133  63.235  1.00  0.00    -0.376 C  
HETATM   34  O   UNL     1     -12.744  14.327  63.233  1.00  0.00    -0.940 OA 
HETATM   35  H   UNL     1     -13.377  14.238  62.530  1.00  0.00     0.000 HD 
HETATM   36  C   UNL     1     -12.874  11.936  63.458  1.00  0.00    -0.435 C  
ENDBRANCH   7  33
TORSDOF 5
ENDMDL
MODEL      120
REMARK 921   NORMALIZED FREE ENERGY PREDICTED BY IDOCK:   -5.65 KCAL/MOL
REMARK 922        TOTAL FREE ENERGY PREDICTED BY IDOCK:   -8.99 KCAL/MOL
REMARK 923 INTER-LIGAND FREE ENERGY PREDICTED BY IDOCK:   -7.37 KCAL/MOL
REMARK 924 INTRA-LIGAND FREE ENERGY PREDICTED BY IDOCK:   -1.62 KCAL/MOL
REMARK 927      BINDING AFFINITY PREDICTED BY RF-SCORE:    0.00 PKD
ROOT
HETATM    1  C   UNL     1      -8.988   6.049  69.241  1.00  0.00    -0.122 C  
HETATM    2  C   UNL     1     -10.342   6.763  69.222  1.00  0.00    -0.221 C  
HETATM    3  C   UNL     1     -10.960   6.330  70.537  1.00  0.00    -0.312 C  
HETATM    4  C   UNL     1     -11.123   6.421  67.961  1.00  0.00    -0.365 C  
HETATM    5  O   UNL     1      -8.406   3.102  70.611  1.00  0.00    -0.055 OA 
HETATM    6  C   UNL     1     -10.110   5.548  71.231  1.00  0.00    -0.207 C  
HETATM    7  C   UNL     1      -8.704   4.654  68.596  1.00  0.00    -0.115 C  
HETATM    8  N   UNL     1      -8.904   5.367  70.563  1.00  0.00    -0.132 N  
HETATM    9  C   UNL     1     -10.317   4.988  72.603  1.00  0.00    -0.199 C  
HETATM   10  O   UNL     1     -11.101   5.444  73.420  1.00  0.00    -0.297 OA 
HETATM   11  O   UNL     1      -9.565   3.902  72.891  1.00  0.00    -0.120 OA 
HETATM   12  C   UNL     1      -8.549   4.158  70.036  1.00  0.00    -0.065 C  
ENDROOT
BRANCH   3  13
HETATM   13  S   UNL     1     -12.467   7.018  71.013  1.00  0.00    -0.250 SA 
BRANCH  13  14
HETATM   14  C   UNL     1     -12.024   8.409  72.123  1.00  0.00    -0.374 C  
HETATM   15  C   UNL     1     -13.123   9.448  72.319  1.00  0.00    -0.428 C  
HETATM   16  N   UNL     1     -13.058  10.249  71.109  1.00  0.00    -0.391 NA 
HETATM   17  C   UNL     1     -11.630  10.407  70.753  1.00  0.00    -0.358 C  
HETATM   18  C   UNL     1     -10.923   9.232  71.440  1.00  0.00    -0.429 C  
HETATM   19  H   UNL     1     -13.547  11.141  71.197  1.00  0.00     0.000 HD 
BRANCH  17  20
HETATM   20  C   UNL     1     -11.513  10.540  69.208  1.00  0.00    -0.256 C  
HETATM   21  O   UNL     1     -12.388  11.134  68.574  1.00  0.00    -0.561 OA 
HETATM   22  N   UNL     1     -10.335  10.060  68.653  1.00  0.00    -0.181 N  
HETATM   23  H   UNL     1      -9.649   9.673  69.300  1.00  0.00     0.000 HD 
BRANCH  22  24
HETATM   24  C   UNL     1      -9.986  10.051  67.279  1.00  0.00    -0.197 A  
HETATM   25  C   UNL     1     -10.640  10.811  66.303  1.00  0.00    -0.257 A  
HETATM   26  C   UNL     1     -10.239  10.769  64.964  1.00  0.00    -0.373 A  
HETATM   27  C   UNL     1      -9.182   9.954  64.573  1.00  0.00    -0.315 A  
HETATM   28  C   UNL     1      -8.537   9.162  65.528  1.00  0.00    -0.192 A  
HETATM   29  C   UNL     1      -7.408   8.272  65.163  1.00  0.00    -0.081 C  
HETATM   30  C   UNL     1      -8.926   9.229  66.879  1.00  0.00    -0.149 A  
HETATM   31  O   UNL     1      -7.506   7.739  63.926  1.00  0.00    -0.092 OA 
HETATM   32  O   UNL     1      -6.497   8.016  65.930  1.00  0.00    -0.045 OA 
ENDBRANCH  22  24
ENDBRANCH  17  20
ENDBRANCH  13  14
ENDBRANCH   3  13
BRANCH   7  33
HETATM   33  C   UNL     1      -7.503   4.620  67.672  1.00  0.00    -0.078 C  
HETATM   34  O   UNL     1      -6.694   5.747  68.008  1.00  0.00    -0.051 OA 
HETATM   35  H   UNL     1      -5.941   5.725  67.429  1.00  0.00     0.000 HD 
HETATM   36  C   UNL     1      -7.922   4.719  66.214  1.00  0.00    -0.103 C  
ENDBRANCH   7  33
TORSDOF 5
ENDMDL
MODEL      121
REMARK 921   NORMALIZED FREE ENERGY PREDICTED BY IDOCK:   -5.62 KCAL/MOL
REMARK 922        TOTAL FREE ENERGY PREDICTED BY IDOCK:   -8.94 KCAL/MOL
REMARK 923 INTER-LIGAND FREE ENERGY PREDICTED BY IDOCK:   -8.03 KCAL/MOL
REMARK 924 INTRA-LIGAND FREE ENERGY PREDICTED BY IDOCK:   -0.91 KCAL/MOL
REMARK 927      BINDING AFFINITY PREDICTED BY RF-SCORE:    0.00 PKD
ROOT
HETATM    1  C   UNL     1      -8.807   7.111  67.277  1.00  0.00    -0.120 C  
HETATM    2  C   UNL     1      -8.449   8.587  67.081  1.00  0.00    -0.118 C  
HETATM    3  C   UNL     1      -8.719   9.176  68.451  1.00  0.00    -0.129 C  
HETATM    4  C   UNL     1      -9.228   9.189  65.919  1.00  0.00    -0.286 C  
HETATM    5  O   UNL     1     -11.169   5.973  69.282  1.00  0.00    -0.384 OA 
HETATM    6  C   UNL     1      -9.113   8.218  69.315  1.00  0.00    -0.151 C  
HETATM    7  C   UNL     1     -10.202   6.482  66.966  1.00  0.00    -0.277 C  
HETATM    8  N   UNL     1      -9.148   6.963  68.720  1.00  0.00    -0.133 N  
HETATM    9  C   UNL     1      -9.395   8.382  70.775  1.00  0.00    -0.163 C  
HETATM   10  O   UNL     1      -8.969   9.299  71.458  1.00  0.00    -0.316 OA 
HETATM   11  O   UNL     1     -10.187   7.426  71.309  1.00  0.00    -0.190 OA 
HETATM   12  C   UNL     1     -10.325   6.312  68.482  1.00  0.00    -0.203 C  
ENDROOT
BRANCH   3  13
HETATM   13  S   UNL     1      -8.316  10.826  68.742  1.00  0.00    -0.148 SA 
BRANCH  13  14
HETATM   14  C   UNL     1      -6.509  10.824  69.061  1.00  0.00    -0.054 C  
HETATM   15  C   UNL     1      -6.116  10.956  70.527  1.00  0.00    -0.102 C  
HETATM   16  N   UNL     1      -6.273  12.375  70.799  1.00  0.00    -0.506 NA 
HETATM   17  C   UNL     1      -5.809  13.113  69.602  1.00  0.00    -0.109 C  
HETATM   18  C   UNL     1      -5.917  12.103  68.452  1.00  0.00    -0.050 C  
HETATM   19  H   UNL     1      -5.803  12.670  71.655  1.00  0.00     0.000 HD 
BRANCH  17  20
HETATM   20  C   UNL     1      -6.607  14.444  69.496  1.00  0.00    -0.141 C  
HETATM   21  O   UNL     1      -6.051  15.515  69.743  1.00  0.00    -0.138 OA 
HETATM   22  N   UNL     1      -7.901  14.328  69.007  1.00  0.00    -0.277 N  
HETATM   23  H   UNL     1      -8.212  13.391  68.752  1.00  0.00     0.000 HD 
BRANCH  22  24
HETATM   24  C   UNL     1      -8.837  15.378  68.824  1.00  0.00    -0.196 A  
HETATM   25  C   UNL     1      -9.911  15.623  69.687  1.00  0.00    -0.280 A  
HETATM   26  C   UNL     1     -10.793  16.685  69.460  1.00  0.00    -0.285 A  
HETATM   27  C   UNL     1     -10.624  17.514  68.356  1.00  0.00    -0.339 A  
HETATM   28  C   UNL     1      -9.575  17.264  67.465  1.00  0.00    -0.259 A  
HETATM   29  C   UNL     1      -9.354  18.115  66.271  1.00  0.00    -0.208 C  
HETATM   30  C   UNL     1      -8.674  16.213  67.713  1.00  0.00    -0.174 A  
HETATM   31  O   UNL     1     -10.490  18.600  65.723  1.00  0.00    -0.586 OA 
HETATM   32  O   UNL     1      -8.247  18.323  65.806  1.00  0.00    -0.503 OA 
ENDBRANCH  22  24
ENDBRANCH  17  20
ENDBRANCH  13  14
ENDBRANCH   3  13
BRANCH   7  33
HETATM   33  C   UNL     1     -10.155   5.246  66.089  1.00  0.00    -0.172 C  
HETATM   34  O   UNL     1     -11.478   5.043  65.595  1.00  0.00    -0.821 OA 
HETATM   35  H   UNL     1     -11.449   4.269  65.045  1.00  0.00     0.000 HD 
HETATM   36  C   UNL     1      -9.720   4.022  66.879  1.00  0.00    -0.215 C  
ENDBRANCH   7  33
TORSDOF 5
ENDMDL
MODEL      122
REMARK 921   NORMALIZED FREE ENERGY PREDICTED BY IDOCK:   -5.61 KCAL/MOL
REMARK 922        TOTAL FREE ENERGY PREDICTED BY IDOCK:   -8.93 KCAL/MOL
REMARK 923 INTER-LIGAND FREE ENERGY PREDICTED BY IDOCK:   -7.34 KCAL/MOL
REMARK 924 INTRA-LIGAND FREE ENERGY PREDICTED BY IDOCK:   -1.59 KCAL/MOL
REMARK 927      BINDING AFFINITY PREDICTED BY RF-SCORE:    0.00 PKD
ROOT
HETATM    1  C   UNL     1     -11.117  11.331  70.054  1.00  0.00    -0.037 C  
HETATM    2  C   UNL     1     -11.076  12.344  68.906  1.00  0.00    -0.307 C  
HETATM    3  C   UNL     1     -11.998  13.440  69.402  1.00  0.00    -0.315 C  
HETATM    4  C   UNL     1     -11.453  11.688  67.585  1.00  0.00    -0.373 C  
HETATM    5  O   UNL     1     -13.731  10.739  71.981  1.00  0.00    -0.169 OA 
HETATM    6  C   UNL     1     -12.459  13.157  70.637  1.00  0.00    -0.286 C  
HETATM    7  C   UNL     1     -12.081  10.104  70.129  1.00  0.00    -0.224 C  
HETATM    8  N   UNL     1     -11.954  11.954  71.118  1.00  0.00     0.128 N  
HETATM    9  C   UNL     1     -13.325  14.022  71.496  1.00  0.00    -0.350 C  
HETATM   10  O   UNL     1     -13.437  15.230  71.363  1.00  0.00    -0.436 OA 
HETATM   11  O   UNL     1     -14.010  13.362  72.457  1.00  0.00    -0.707 OA 
HETATM   12  C   UNL     1     -12.748  10.855  71.283  1.00  0.00    -0.437 C  
ENDROOT
BRANCH   3  13
HETATM   13  S   UNL     1     -12.150  14.882  68.471  1.00  0.00    -0.075 SA 
BRANCH  13  14
HETATM   14  C   UNL     1     -11.238  16.159  69.421  1.00  0.00    -0.335 C  
HETATM   15  C   UNL     1     -10.734  17.336  68.594  1.00  0.00    -0.280 C  
HETATM   16  N   UNL     1      -9.545  16.814  67.943  1.00  0.00    -0.233 NA 
HETATM   17  C   UNL     1      -8.845  15.947  68.918  1.00  0.00    -0.225 C  
HETATM   18  C   UNL     1      -9.928  15.534  69.923  1.00  0.00    -0.243 C  
HETATM   19  H   UNL     1      -8.945  17.548  67.563  1.00  0.00     0.000 HD 
BRANCH  17  20
HETATM   20  C   UNL     1      -8.093  14.829  68.141  1.00  0.00    -0.134 C  
HETATM   21  O   UNL     1      -7.666  15.050  67.006  1.00  0.00    -0.198 OA 
HETATM   22  N   UNL     1      -7.854  13.662  68.853  1.00  0.00    -0.317 N  
HETATM   23  H   UNL     1      -8.180  13.641  69.818  1.00  0.00     0.000 HD 
BRANCH  22  24
HETATM   24  C   UNL     1      -7.202  12.495  68.378  1.00  0.00    -0.111 A  
HETATM   25  C   UNL     1      -6.036  11.969  68.943  1.00  0.00    -0.060 A  
HETATM   26  C   UNL     1      -5.447  10.806  68.437  1.00  0.00    -0.043 A  
HETATM   27  C   UNL     1      -6.009  10.153  67.345  1.00  0.00    -0.054 A  
HETATM   28  C   UNL     1      -7.157  10.683  66.746  1.00  0.00    -0.118 A  
HETATM   29  C   UNL     1      -7.793  10.028  65.577  1.00  0.00    -0.134 C  
HETATM   30  C   UNL     1      -7.761  11.837  67.276  1.00  0.00    -0.158 A  
HETATM   31  O   UNL     1      -6.920   9.423  64.743  1.00  0.00    -0.092 OA 
HETATM   32  O   UNL     1      -8.993  10.070  65.371  1.00  0.00    -0.158 OA 
ENDBRANCH  22  24
ENDBRANCH  17  20
ENDBRANCH  13  14
ENDBRANCH   3  13
BRANCH   7  33
HETATM   33  C   UNL     1     -11.397   8.781  70.410  1.00  0.00    -0.192 C  
HETATM   34  O   UNL     1     -12.266   8.044  71.270  1.00  0.00    -0.304 OA 
HETATM   35  H   UNL     1     -11.836   7.215  71.446  1.00  0.00     0.000 HD 
HETATM   36  C   UNL     1     -10.059   8.986  71.104  1.00  0.00    -0.365 C  
ENDBRANCH   7  33
TORSDOF 5
ENDMDL
MODEL      123
REMARK 921   NORMALIZED FREE ENERGY PREDICTED BY IDOCK:   -5.60 KCAL/MOL
REMARK 922        TOTAL FREE ENERGY PREDICTED BY IDOCK:   -8.92 KCAL/MOL
REMARK 923 INTER-LIGAND FREE ENERGY PREDICTED BY IDOCK:   -7.98 KCAL/MOL
REMARK 924 INTRA-LIGAND FREE ENERGY PREDICTED BY IDOCK:   -0.94 KCAL/MOL
REMARK 927      BINDING AFFINITY PREDICTED BY RF-SCORE:    0.00 PKD
ROOT
HETATM    1  C   UNL     1      -8.892  15.059  67.064  1.00  0.00    -0.234 C  
HETATM    2  C   UNL     1      -9.986  13.992  66.976  1.00  0.00    -0.257 C  
HETATM    3  C   UNL     1     -11.018  14.651  66.083  1.00  0.00    -0.329 C  
HETATM    4  C   UNL     1     -10.457  13.577  68.364  1.00  0.00    -0.252 C  
HETATM    5  O   UNL     1      -9.403  18.320  67.020  1.00  0.00    -0.262 OA 
HETATM    6  C   UNL     1     -10.592  15.862  65.672  1.00  0.00    -0.378 C  
HETATM    7  C   UNL     1      -8.779  16.132  68.194  1.00  0.00    -0.175 C  
HETATM    8  N   UNL     1      -9.329  16.165  66.165  1.00  0.00    -0.312 N  
HETATM    9  C   UNL     1     -11.285  16.786  64.721  1.00  0.00     0.040 C  
HETATM   10  O   UNL     1     -12.131  16.434  63.915  1.00  0.00    -0.977 OA 
HETATM   11  O   UNL     1     -10.913  18.082  64.818  1.00  0.00    -0.706 OA 
HETATM   12  C   UNL     1      -9.136  17.142  67.101  1.00  0.00    -0.228 C  
ENDROOT
BRANCH   3  13
HETATM   13  S   UNL     1     -12.394  13.739  65.588  1.00  0.00    -0.497 SA 
BRANCH  13  14
HETATM   14  C   UNL     1     -12.029  13.223  63.867  1.00  0.00    -0.483 C  
HETATM   15  C   UNL     1     -12.723  11.942  63.419  1.00  0.00    -0.366 C  
HETATM   16  N   UNL     1     -11.924  10.889  64.020  1.00  0.00     0.670 NA 
HETATM   17  C   UNL     1     -10.504  11.301  63.933  1.00  0.00    -0.391 C  
HETATM   18  C   UNL     1     -10.547  12.828  63.792  1.00  0.00    -0.370 C  
HETATM   19  H   UNL     1     -12.097   9.972  63.606  1.00  0.00     0.000 HD 
BRANCH  17  20
HETATM   20  C   UNL     1      -9.733  10.691  65.138  1.00  0.00    -0.271 C  
HETATM   21  O   UNL     1      -8.555  10.999  65.334  1.00  0.00    -0.158 OA 
HETATM   22  N   UNL     1     -10.488   9.903  65.996  1.00  0.00    -0.115 N  
HETATM   23  H   UNL     1     -11.477   9.801  65.770  1.00  0.00     0.000 HD 
BRANCH  22  24
HETATM   24  C   UNL     1     -10.028   9.226  67.154  1.00  0.00    -0.216 A  
HETATM   25  C   UNL     1     -10.464   7.952  67.536  1.00  0.00    -0.332 A  
HETATM   26  C   UNL     1      -9.961   7.330  68.684  1.00  0.00    -0.169 A  
HETATM   27  C   UNL     1      -9.021   7.977  69.479  1.00  0.00    -0.148 A  
HETATM   28  C   UNL     1      -8.598   9.264  69.129  1.00  0.00    -0.134 A  
HETATM   29  C   UNL     1      -7.601  10.000  69.945  1.00  0.00    -0.170 C  
HETATM   30  C   UNL     1      -9.085   9.874  67.959  1.00  0.00    -0.123 A  
HETATM   31  O   UNL     1      -7.677   9.744  71.269  1.00  0.00    -0.194 OA 
HETATM   32  O   UNL     1      -6.812  10.793  69.463  1.00  0.00    -0.087 OA 
ENDBRANCH  22  24
ENDBRANCH  17  20
ENDBRANCH  13  14
ENDBRANCH   3  13
BRANCH   7  33
HETATM   33  C   UNL     1      -7.416  16.211  68.852  1.00  0.00    -0.197 C  
HETATM   34  O   UNL     1      -7.413  15.248  69.906  1.00  0.00    -0.177 OA 
HETATM   35  H   UNL     1      -6.558  15.299  70.319  1.00  0.00     0.000 HD 
HETATM   36  C   UNL     1      -7.162  17.593  69.434  1.00  0.00     0.021 C  
ENDBRANCH   7  33
TORSDOF 5
ENDMDL
MODEL      124
REMARK 921   NORMALIZED FREE ENERGY PREDICTED BY IDOCK:   -5.58 KCAL/MOL
REMARK 922        TOTAL FREE ENERGY PREDICTED BY IDOCK:   -8.89 KCAL/MOL
REMARK 923 INTER-LIGAND FREE ENERGY PREDICTED BY IDOCK:   -8.31 KCAL/MOL
REMARK 924 INTRA-LIGAND FREE ENERGY PREDICTED BY IDOCK:   -0.58 KCAL/MOL
REMARK 927      BINDING AFFINITY PREDICTED BY RF-SCORE:    0.00 PKD
ROOT
HETATM    1  C   UNL     1      -9.030   5.843  69.131  1.00  0.00    -0.119 C  
HETATM    2  C   UNL     1     -10.331   6.647  69.048  1.00  0.00    -0.216 C  
HETATM    3  C   UNL     1     -11.051   6.241  70.318  1.00  0.00    -0.364 C  
HETATM    4  C   UNL     1     -11.060   6.373  67.739  1.00  0.00    -0.376 C  
HETATM    5  O   UNL     1      -8.725   2.848  70.485  1.00  0.00    -0.060 OA 
HETATM    6  C   UNL     1     -10.295   5.395  71.047  1.00  0.00    -0.236 C  
HETATM    7  C   UNL     1      -8.804   4.441  68.481  1.00  0.00    -0.133 C  
HETATM    8  N   UNL     1      -9.068   5.141  70.445  1.00  0.00    -0.131 N  
HETATM    9  C   UNL     1     -10.617   4.833  72.396  1.00  0.00    -0.180 C  
HETATM   10  O   UNL     1     -11.415   5.331  73.175  1.00  0.00    -0.310 OA 
HETATM   11  O   UNL     1      -9.957   3.696  72.709  1.00  0.00    -0.139 OA 
HETATM   12  C   UNL     1      -8.764   3.918  69.919  1.00  0.00    -0.075 C  
ENDROOT
BRANCH   3  13
HETATM   13  S   UNL     1     -12.533   7.022  70.720  1.00  0.00    -0.084 SA 
BRANCH  13  14
HETATM   14  C   UNL     1     -12.102   8.199  72.059  1.00  0.00    -0.340 C  
HETATM   15  C   UNL     1     -13.180   9.229  72.380  1.00  0.00    -0.426 C  
HETATM   16  N   UNL     1     -13.041  10.213  71.321  1.00  0.00    -0.385 NA 
HETATM   17  C   UNL     1     -11.594  10.378  71.051  1.00  0.00    -0.295 C  
HETATM   18  C   UNL     1     -10.950   9.084  71.563  1.00  0.00    -0.418 C  
HETATM   19  H   UNL     1     -13.508  11.095  71.534  1.00  0.00     0.000 HD 
BRANCH  17  20
HETATM   20  C   UNL     1     -11.406  10.757  69.554  1.00  0.00    -0.289 C  
HETATM   21  O   UNL     1     -11.280   9.870  68.707  1.00  0.00    -0.175 OA 
HETATM   22  N   UNL     1     -11.508  12.110  69.261  1.00  0.00    -0.287 N  
HETATM   23  H   UNL     1     -11.705  12.733  70.044  1.00  0.00     0.000 HD 
BRANCH  22  24
HETATM   24  C   UNL     1     -11.366  12.716  67.987  1.00  0.00    -0.290 A  
HETATM   25  C   UNL     1     -11.630  12.061  66.779  1.00  0.00    -0.391 A  
HETATM   26  C   UNL     1     -11.484  12.718  65.553  1.00  0.00    -0.372 A  
HETATM   27  C   UNL     1     -11.057  14.041  65.512  1.00  0.00    -0.309 A  
HETATM   28  C   UNL     1     -10.757  14.702  66.708  1.00  0.00    -0.301 A  
HETATM   29  C   UNL     1     -10.293  16.111  66.720  1.00  0.00    -0.291 C  
HETATM   30  C   UNL     1     -10.932  14.046  67.940  1.00  0.00    -0.261 A  
HETATM   31  O   UNL     1      -9.536  16.450  65.654  1.00  0.00    -0.495 OA 
HETATM   32  O   UNL     1     -10.543  16.879  67.633  1.00  0.00    -0.328 OA 
ENDBRANCH  22  24
ENDBRANCH  17  20
ENDBRANCH  13  14
ENDBRANCH   3  13
BRANCH   7  33
HETATM   33  C   UNL     1      -7.557   4.337  67.626  1.00  0.00    -0.073 C  
HETATM   34  O   UNL     1      -7.556   5.473  66.762  1.00  0.00    -0.086 OA 
HETATM   35  H   UNL     1      -6.774   5.407  66.225  1.00  0.00     0.000 HD 
HETATM   36  C   UNL     1      -7.564   3.068  66.788  1.00  0.00    -0.075 C  
ENDBRANCH   7  33
TORSDOF 5
ENDMDL
MODEL      125
REMARK 921   NORMALIZED FREE ENERGY PREDICTED BY IDOCK:   -5.57 KCAL/MOL
REMARK 922        TOTAL FREE ENERGY PREDICTED BY IDOCK:   -8.88 KCAL/MOL
REMARK 923 INTER-LIGAND FREE ENERGY PREDICTED BY IDOCK:   -7.85 KCAL/MOL
REMARK 924 INTRA-LIGAND FREE ENERGY PREDICTED BY IDOCK:   -1.02 KCAL/MOL
REMARK 927      BINDING AFFINITY PREDICTED BY RF-SCORE:    0.00 PKD
ROOT
HETATM    1  C   UNL     1     -10.043  11.136  66.286  1.00  0.00    -0.232 C  
HETATM    2  C   UNL     1      -9.501  11.840  67.532  1.00  0.00    -0.174 C  
HETATM    3  C   UNL     1      -9.772  13.300  67.229  1.00  0.00    -0.231 C  
HETATM    4  C   UNL     1      -8.050  11.458  67.788  1.00  0.00    -0.121 C  
HETATM    5  O   UNL     1      -9.990  12.371  63.224  1.00  0.00    -0.392 OA 
HETATM    6  C   UNL     1     -10.405  13.435  66.047  1.00  0.00    -0.297 C  
HETATM    7  C   UNL     1      -9.190  10.748  65.037  1.00  0.00    -0.241 C  
HETATM    8  N   UNL     1     -10.647  12.207  65.443  1.00  0.00    -0.263 N  
HETATM    9  C   UNL     1     -10.913  14.702  65.436  1.00  0.00    -0.353 C  
HETATM   10  O   UNL     1     -11.151  15.721  66.065  1.00  0.00    -0.229 OA 
HETATM   11  O   UNL     1     -11.089  14.655  64.097  1.00  0.00    -0.063 OA 
HETATM   12  C   UNL     1      -9.996  11.824  64.305  1.00  0.00    -0.257 C  
ENDROOT
BRANCH   3  13
HETATM   13  S   UNL     1      -9.441  14.477  68.445  1.00  0.00    -0.211 SA 
BRANCH  13  14
HETATM   14  C   UNL     1     -11.087  15.085  68.977  1.00  0.00    -0.262 C  
HETATM   15  C   UNL     1     -11.282  15.174  70.487  1.00  0.00    -0.280 C  
HETATM   16  N   UNL     1     -11.540  13.800  70.881  1.00  0.00    -0.430 NA 
HETATM   17  C   UNL     1     -12.384  13.184  69.832  1.00  0.00    -0.135 C  
HETATM   18  C   UNL     1     -12.135  14.035  68.580  1.00  0.00    -0.332 C  
HETATM   19  H   UNL     1     -11.948  13.724  71.814  1.00  0.00     0.000 HD 
BRANCH  17  20
HETATM   20  C   UNL     1     -12.069  11.663  69.768  1.00  0.00    -0.289 C  
HETATM   21  O   UNL     1     -12.460  10.994  68.808  1.00  0.00    -0.468 OA 
HETATM   22  N   UNL     1     -11.249  11.178  70.777  1.00  0.00    -0.126 N  
HETATM   23  H   UNL     1     -10.918  11.856  71.462  1.00  0.00     0.000 HD 
BRANCH  22  24
HETATM   24  C   UNL     1     -10.823   9.837  70.954  1.00  0.00    -0.328 A  
HETATM   25  C   UNL     1     -11.308   8.992  71.959  1.00  0.00    -0.395 A  
HETATM   26  C   UNL     1     -10.857   7.672  72.073  1.00  0.00    -0.282 A  
HETATM   27  C   UNL     1      -9.902   7.177  71.192  1.00  0.00    -0.180 A  
HETATM   28  C   UNL     1      -9.382   8.017  70.202  1.00  0.00    -0.156 A  
HETATM   29  C   UNL     1      -8.359   7.540  69.240  1.00  0.00    -0.132 C  
HETATM   30  C   UNL     1      -9.859   9.335  70.073  1.00  0.00    -0.232 A  
HETATM   31  O   UNL     1      -7.499   6.636  69.755  1.00  0.00    -0.087 OA 
HETATM   32  O   UNL     1      -8.282   7.961  68.099  1.00  0.00    -0.121 OA 
ENDBRANCH  22  24
ENDBRANCH  17  20
ENDBRANCH  13  14
ENDBRANCH   3  13
BRANCH   7  33
HETATM   33  C   UNL     1      -9.329   9.302  64.603  1.00  0.00     0.050 C  
HETATM   34  O   UNL     1      -9.755   8.569  65.751  1.00  0.00    -0.452 OA 
HETATM   35  H   UNL     1      -9.842   7.662  65.479  1.00  0.00     0.000 HD 
HETATM   36  C   UNL     1      -8.004   8.741  64.111  1.00  0.00    -0.154 C  
ENDBRANCH   7  33
TORSDOF 5
ENDMDL
MODEL      126
REMARK 921   NORMALIZED FREE ENERGY PREDICTED BY IDOCK:   -5.55 KCAL/MOL
REMARK 922        TOTAL FREE ENERGY PREDICTED BY IDOCK:   -8.85 KCAL/MOL
REMARK 923 INTER-LIGAND FREE ENERGY PREDICTED BY IDOCK:   -7.59 KCAL/MOL
REMARK 924 INTRA-LIGAND FREE ENERGY PREDICTED BY IDOCK:   -1.27 KCAL/MOL
REMARK 927      BINDING AFFINITY PREDICTED BY RF-SCORE:    0.00 PKD
ROOT
HETATM    1  C   UNL     1     -11.461  13.813  66.045  1.00  0.00    -0.326 C  
HETATM    2  C   UNL     1     -10.569  13.434  67.231  1.00  0.00    -0.256 C  
HETATM    3  C   UNL     1     -10.106  14.784  67.739  1.00  0.00    -0.224 C  
HETATM    4  C   UNL     1      -9.480  12.459  66.805  1.00  0.00    -0.228 C  
HETATM    5  O   UNL     1     -10.992  16.410  64.062  1.00  0.00    -0.592 OA 
HETATM    6  C   UNL     1     -10.661  15.782  67.023  1.00  0.00    -0.306 C  
HETATM    7  C   UNL     1     -10.985  13.899  64.560  1.00  0.00    -0.379 C  
HETATM    8  N   UNL     1     -11.511  15.303  66.033  1.00  0.00    -0.169 N  
HETATM    9  C   UNL     1     -10.517  17.252  67.263  1.00  0.00    -0.319 C  
HETATM   10  O   UNL     1     -10.186  17.745  68.329  1.00  0.00    -0.339 OA 
HETATM   11  O   UNL     1     -10.774  18.029  66.187  1.00  0.00    -0.302 OA 
HETATM   12  C   UNL     1     -11.201  15.406  64.707  1.00  0.00    -0.395 C  
ENDROOT
BRANCH   3  13
HETATM   13  S   UNL     1      -9.168  14.852  69.184  1.00  0.00    -0.093 SA 
BRANCH  13  14
HETATM   14  C   UNL     1      -7.528  15.483  68.657  1.00  0.00    -0.131 C  
HETATM   15  C   UNL     1      -7.094  15.054  67.260  1.00  0.00    -0.099 C  
HETATM   16  N   UNL     1      -6.631  13.690  67.447  1.00  0.00    -0.398 NA 
HETATM   17  C   UNL     1      -5.916  13.634  68.742  1.00  0.00    -0.084 C  
HETATM   18  C   UNL     1      -6.459  14.826  69.541  1.00  0.00    -0.142 C  
HETATM   19  H   UNL     1      -6.067  13.351  66.667  1.00  0.00     0.000 HD 
BRANCH  17  20
HETATM   20  C   UNL     1      -6.076  12.208  69.340  1.00  0.00    -0.103 C  
HETATM   21  O   UNL     1      -6.346  12.069  70.534  1.00  0.00    -0.189 OA 
HETATM   22  N   UNL     1      -6.009  11.164  68.426  1.00  0.00    -0.046 N  
HETATM   23  H   UNL     1      -5.872  11.421  67.449  1.00  0.00     0.000 HD 
BRANCH  22  24
HETATM   24  C   UNL     1      -6.112   9.779  68.710  1.00  0.00    -0.042 A  
HETATM   25  C   UNL     1      -5.344   9.123  69.679  1.00  0.00    -0.034 A  
HETATM   26  C   UNL     1      -5.502   7.755  69.922  1.00  0.00    -0.023 A  
HETATM   27  C   UNL     1      -6.424   7.013  69.191  1.00  0.00    -0.040 A  
HETATM   28  C   UNL     1      -7.177   7.646  68.196  1.00  0.00    -0.093 A  
HETATM   29  C   UNL     1      -8.170   6.900  67.385  1.00  0.00    -0.119 C  
HETATM   30  C   UNL     1      -7.035   9.027  67.974  1.00  0.00    -0.077 A  
HETATM   31  O   UNL     1      -7.826   5.617  67.137  1.00  0.00    -0.100 OA 
HETATM   32  O   UNL     1      -9.185   7.415  66.949  1.00  0.00    -0.139 OA 
ENDBRANCH  22  24
ENDBRANCH  17  20
ENDBRANCH  13  14
ENDBRANCH   3  13
BRANCH   7  33
HETATM   33  C   UNL     1     -11.842  13.124  63.578  1.00  0.00    -0.476 C  
HETATM   34  O   UNL     1     -12.638  14.084  62.884  1.00  0.00    -0.958 OA 
HETATM   35  H   UNL     1     -13.175  13.598  62.268  1.00  0.00     0.000 HD 
HETATM   36  C   UNL     1     -12.753  12.139  64.294  1.00  0.00    -0.366 C  
ENDBRANCH   7  33
TORSDOF 5
ENDMDL
MODEL      127
REMARK 921   NORMALIZED FREE ENERGY PREDICTED BY IDOCK:   -5.54 KCAL/MOL
REMARK 922        TOTAL FREE ENERGY PREDICTED BY IDOCK:   -8.84 KCAL/MOL
REMARK 923 INTER-LIGAND FREE ENERGY PREDICTED BY IDOCK:   -7.63 KCAL/MOL
REMARK 924 INTRA-LIGAND FREE ENERGY PREDICTED BY IDOCK:   -1.21 KCAL/MOL
REMARK 927      BINDING AFFINITY PREDICTED BY RF-SCORE:    0.00 PKD
ROOT
HETATM    1  C   UNL     1      -9.416  16.702  67.228  1.00  0.00    -0.232 C  
HETATM    2  C   UNL     1     -10.641  16.105  66.530  1.00  0.00    -0.268 C  
HETATM    3  C   UNL     1     -10.356  14.617  66.580  1.00  0.00    -0.273 C  
HETATM    4  C   UNL     1     -10.831  16.712  65.146  1.00  0.00    -0.199 C  
HETATM    5  O   UNL     1      -6.360  15.457  67.112  1.00  0.00    -0.305 OA 
HETATM    6  C   UNL     1      -9.203  14.372  67.234  1.00  0.00    -0.209 C  
HETATM    7  C   UNL     1      -8.129  17.205  66.500  1.00  0.00    -0.318 C  
HETATM    8  N   UNL     1      -8.605  15.540  67.692  1.00  0.00    -0.161 N  
HETATM    9  C   UNL     1      -8.619  13.034  67.562  1.00  0.00    -0.192 C  
HETATM   10  O   UNL     1      -9.262  11.998  67.611  1.00  0.00    -0.172 OA 
HETATM   11  O   UNL     1      -7.289  13.039  67.800  1.00  0.00    -0.109 OA 
HETATM   12  C   UNL     1      -7.438  16.008  67.157  1.00  0.00    -0.218 C  
ENDROOT
BRANCH   3  13
HETATM   13  S   UNL     1     -11.560  13.520  66.018  1.00  0.00    -0.353 SA 
BRANCH  13  14
HETATM   14  C   UNL     1     -11.299  13.416  64.205  1.00  0.00    -0.389 C  
HETATM   15  C   UNL     1     -12.223  12.445  63.478  1.00  0.00    -0.563 C  
HETATM   16  N   UNL     1     -11.636  11.145  63.748  1.00  0.00    -0.288 NA 
HETATM   17  C   UNL     1     -10.164  11.300  63.699  1.00  0.00    -0.392 C  
HETATM   18  C   UNL     1      -9.919  12.791  63.958  1.00  0.00    -0.099 C  
HETATM   19  H   UNL     1     -11.979  10.416  63.121  1.00  0.00     0.000 HD 
BRANCH  17  20
HETATM   20  C   UNL     1      -9.521  10.265  64.667  1.00  0.00    -0.293 C  
HETATM   21  O   UNL     1      -8.314  10.026  64.597  1.00  0.00    -0.148 OA 
HETATM   22  N   UNL     1     -10.365   9.753  65.643  1.00  0.00    -0.146 N  
HETATM   23  H   UNL     1     -11.322  10.103  65.648  1.00  0.00     0.000 HD 
BRANCH  22  24
HETATM   24  C   UNL     1     -10.034   8.795  66.634  1.00  0.00    -0.285 A  
HETATM   25  C   UNL     1     -10.424   8.893  67.974  1.00  0.00    -0.263 A  
HETATM   26  C   UNL     1     -10.077   7.905  68.902  1.00  0.00    -0.203 A  
HETATM   27  C   UNL     1      -9.321   6.807  68.509  1.00  0.00    -0.126 A  
HETATM   28  C   UNL     1      -8.894   6.708  67.180  1.00  0.00    -0.115 A  
HETATM   29  C   UNL     1      -8.082   5.560  66.711  1.00  0.00    -0.105 C  
HETATM   30  C   UNL     1      -9.269   7.689  66.244  1.00  0.00    -0.204 A  
HETATM   31  O   UNL     1      -7.232   5.070  67.639  1.00  0.00    -0.068 OA 
HETATM   32  O   UNL     1      -8.150   5.126  65.574  1.00  0.00    -0.109 OA 
ENDBRANCH  22  24
ENDBRANCH  17  20
ENDBRANCH  13  14
ENDBRANCH   3  13
BRANCH   7  33
HETATM   33  C   UNL     1      -7.696  18.606  66.883  1.00  0.00    -0.230 C  
HETATM   34  O   UNL     1      -8.882  19.322  67.229  1.00  0.00    -0.284 OA 
HETATM   35  H   UNL     1      -8.610  20.200  67.469  1.00  0.00     0.000 HD 
HETATM   36  C   UNL     1      -7.006  19.309  65.724  1.00  0.00    -0.307 C  
ENDBRANCH   7  33
TORSDOF 5
ENDMDL
MODEL      128
REMARK 921   NORMALIZED FREE ENERGY PREDICTED BY IDOCK:   -5.51 KCAL/MOL
REMARK 922        TOTAL FREE ENERGY PREDICTED BY IDOCK:   -8.80 KCAL/MOL
REMARK 923 INTER-LIGAND FREE ENERGY PREDICTED BY IDOCK:   -7.46 KCAL/MOL
REMARK 924 INTRA-LIGAND FREE ENERGY PREDICTED BY IDOCK:   -1.34 KCAL/MOL
REMARK 927      BINDING AFFINITY PREDICTED BY RF-SCORE:    0.00 PKD
ROOT
HETATM    1  C   UNL     1     -11.286  12.560  65.831  1.00  0.00    -0.320 C  
HETATM    2  C   UNL     1     -10.539  11.490  66.632  1.00  0.00    -0.294 C  
HETATM    3  C   UNL     1      -9.661  12.319  67.549  1.00  0.00    -0.190 C  
HETATM    4  C   UNL     1      -9.823  10.516  65.707  1.00  0.00    -0.295 C  
HETATM    5  O   UNL     1     -10.054  15.497  64.962  1.00  0.00    -0.352 OA 
HETATM    6  C   UNL     1      -9.884  13.635  67.365  1.00  0.00    -0.234 C  
HETATM    7  C   UNL     1     -10.835  13.114  64.442  1.00  0.00    -0.417 C  
HETATM    8  N   UNL     1     -10.861  13.869  66.404  1.00  0.00    -0.289 N  
HETATM    9  C   UNL     1      -9.277  14.768  68.131  1.00  0.00    -0.195 C  
HETATM   10  O   UNL     1      -8.787  14.660  69.244  1.00  0.00    -0.090 OA 
HETATM   11  O   UNL     1      -9.294  15.958  67.491  1.00  0.00    -0.214 OA 
HETATM   12  C   UNL     1     -10.559  14.420  65.191  1.00  0.00    -0.410 C  
ENDROOT
BRANCH   3  13
HETATM   13  S   UNL     1      -8.724  11.515  68.752  1.00  0.00     0.027 SA 
BRANCH  13  14
HETATM   14  C   UNL     1      -6.979  11.804  68.266  1.00  0.00    -0.075 C  
HETATM   15  C   UNL     1      -6.657  11.485  66.811  1.00  0.00    -0.119 C  
HETATM   16  N   UNL     1      -6.536  10.037  66.795  1.00  0.00    -0.070 NA 
HETATM   17  C   UNL     1      -5.859   9.631  68.047  1.00  0.00    -0.040 C  
HETATM   18  C   UNL     1      -6.101  10.794  69.018  1.00  0.00    -0.041 C  
HETATM   19  H   UNL     1      -6.068   9.686  65.959  1.00  0.00     0.000 HD 
BRANCH  17  20
HETATM   20  C   UNL     1      -6.360   8.215  68.449  1.00  0.00    -0.050 C  
HETATM   21  O   UNL     1      -5.559   7.281  68.535  1.00  0.00    -0.020 OA 
HETATM   22  N   UNL     1      -7.700   8.131  68.800  1.00  0.00    -0.105 N  
HETATM   23  H   UNL     1      -8.234   8.999  68.774  1.00  0.00     0.000 HD 
BRANCH  22  24
HETATM   24  C   UNL     1      -8.404   6.964  69.191  1.00  0.00    -0.125 A  
HETATM   25  C   UNL     1      -8.835   6.715  70.499  1.00  0.00    -0.152 A  
HETATM   26  C   UNL     1      -9.538   5.549  70.820  1.00  0.00    -0.220 A  
HETATM   27  C   UNL     1      -9.812   4.602  69.839  1.00  0.00    -0.296 A  
HETATM   28  C   UNL     1      -9.360   4.818  68.533  1.00  0.00    -0.181 A  
HETATM   29  C   UNL     1      -9.621   3.837  67.451  1.00  0.00    -0.161 C  
HETATM   30  C   UNL     1      -8.678   6.005  68.209  1.00  0.00    -0.113 A  
HETATM   31  O   UNL     1      -9.633   2.552  67.865  1.00  0.00    -0.186 OA 
HETATM   32  O   UNL     1      -9.771   4.166  66.287  1.00  0.00    -0.189 OA 
ENDBRANCH  22  24
ENDBRANCH  17  20
ENDBRANCH  13  14
ENDBRANCH   3  13
BRANCH   7  33
HETATM   33  C   UNL     1     -11.911  13.092  63.375  1.00  0.00    -0.520 C  
HETATM   34  O   UNL     1     -12.589  14.345  63.450  1.00  0.00    -1.054 OA 
HETATM   35  H   UNL     1     -13.264  14.331  62.781  1.00  0.00     0.000 HD 
HETATM   36  C   UNL     1     -12.906  11.967  63.616  1.00  0.00    -0.472 C  
ENDBRANCH   7  33
TORSDOF 5
ENDMDL
MODEL      129
REMARK 921   NORMALIZED FREE ENERGY PREDICTED BY IDOCK:   -5.50 KCAL/MOL
REMARK 922        TOTAL FREE ENERGY PREDICTED BY IDOCK:   -8.79 KCAL/MOL
REMARK 923 INTER-LIGAND FREE ENERGY PREDICTED BY IDOCK:   -7.25 KCAL/MOL
REMARK 924 INTRA-LIGAND FREE ENERGY PREDICTED BY IDOCK:   -1.54 KCAL/MOL
REMARK 927      BINDING AFFINITY PREDICTED BY RF-SCORE:    0.00 PKD
ROOT
HETATM    1  C   UNL     1      -8.595   4.947  65.484  1.00  0.00    -0.135 C  
HETATM    2  C   UNL     1      -9.749   5.126  66.474  1.00  0.00    -0.184 C  
HETATM    3  C   UNL     1      -9.770   6.626  66.688  1.00  0.00    -0.159 C  
HETATM    4  C   UNL     1      -9.543   4.267  67.715  1.00  0.00    -0.210 C  
HETATM    5  O   UNL     1      -5.872   6.810  65.373  1.00  0.00    -0.033 OA 
HETATM    6  C   UNL     1      -8.837   7.231  65.926  1.00  0.00    -0.109 C  
HETATM    7  C   UNL     1      -7.118   4.631  65.881  1.00  0.00    -0.074 C  
HETATM    8  N   UNL     1      -8.129   6.322  65.148  1.00  0.00    -0.126 N  
HETATM    9  C   UNL     1      -8.597   8.702  65.793  1.00  0.00    -0.163 C  
HETATM   10  O   UNL     1      -9.423   9.560  66.062  1.00  0.00    -0.193 OA 
HETATM   11  O   UNL     1      -7.364   9.037  65.353  1.00  0.00    -0.084 OA 
HETATM   12  C   UNL     1      -6.812   6.046  65.384  1.00  0.00    -0.052 C  
ENDROOT
BRANCH   3  13
HETATM   13  S   UNL     1     -11.026   7.312  67.647  1.00  0.00    -0.033 SA 
BRANCH  13  14
HETATM   14  C   UNL     1     -10.298   7.501  69.320  1.00  0.00    -0.209 C  
HETATM   15  C   UNL     1     -11.308   7.515  70.462  1.00  0.00    -0.260 C  
HETATM   16  N   UNL     1     -11.850   8.862  70.426  1.00  0.00    -0.476 NA 
HETATM   17  C   UNL     1     -10.735   9.784  70.109  1.00  0.00    -0.289 C  
HETATM   18  C   UNL     1      -9.685   8.906  69.417  1.00  0.00    -0.169 C  
HETATM   19  H   UNL     1     -12.343   9.116  71.282  1.00  0.00     0.000 HD 
BRANCH  17  20
HETATM   20  C   UNL     1     -11.303  11.007  69.334  1.00  0.00    -0.284 C  
HETATM   21  O   UNL     1     -12.515  11.235  69.349  1.00  0.00    -0.272 OA 
HETATM   22  N   UNL     1     -10.357  11.842  68.757  1.00  0.00    -0.321 N  
HETATM   23  H   UNL     1      -9.379  11.590  68.896  1.00  0.00     0.000 HD 
BRANCH  22  24
HETATM   24  C   UNL     1     -10.608  13.010  67.993  1.00  0.00    -0.235 A  
HETATM   25  C   UNL     1     -10.441  14.311  68.480  1.00  0.00    -0.253 A  
HETATM   26  C   UNL     1     -10.693  15.424  67.671  1.00  0.00    -0.292 A  
HETATM   27  C   UNL     1     -11.131  15.256  66.362  1.00  0.00    -0.273 A  
HETATM   28  C   UNL     1     -11.335  13.963  65.868  1.00  0.00    -0.314 A  
HETATM   29  C   UNL     1     -11.805  13.729  64.481  1.00  0.00    -0.417 C  
HETATM   30  C   UNL     1     -11.053  12.847  66.676  1.00  0.00    -0.316 A  
HETATM   31  O   UNL     1     -12.650  14.676  64.019  1.00  0.00    -0.819 OA 
HETATM   32  O   UNL     1     -11.485  12.747  63.834  1.00  0.00    -0.382 OA 
ENDBRANCH  22  24
ENDBRANCH  17  20
ENDBRANCH  13  14
ENDBRANCH   3  13
BRANCH   7  33
HETATM   33  C   UNL     1      -6.509   3.449  65.154  1.00  0.00    -0.035 C  
HETATM   34  O   UNL     1      -5.431   3.960  64.370  1.00  0.00    -0.012 OA 
HETATM   35  H   UNL     1      -5.049   3.218  63.914  1.00  0.00     0.000 HD 
HETATM   36  C   UNL     1      -7.523   2.780  64.238  1.00  0.00    -0.070 C  
ENDBRANCH   7  33
TORSDOF 5
ENDMDL
MODEL      130
REMARK 921   NORMALIZED FREE ENERGY PREDICTED BY IDOCK:   -5.49 KCAL/MOL
REMARK 922        TOTAL FREE ENERGY PREDICTED BY IDOCK:   -8.78 KCAL/MOL
REMARK 923 INTER-LIGAND FREE ENERGY PREDICTED BY IDOCK:   -8.02 KCAL/MOL
REMARK 924 INTRA-LIGAND FREE ENERGY PREDICTED BY IDOCK:   -0.76 KCAL/MOL
REMARK 927      BINDING AFFINITY PREDICTED BY RF-SCORE:    0.00 PKD
ROOT
HETATM    1  C   UNL     1     -10.411  11.128  64.303  1.00  0.00    -0.362 C  
HETATM    2  C   UNL     1      -9.038  10.481  64.101  1.00  0.00    -0.258 C  
HETATM    3  C   UNL     1      -8.390  10.652  65.460  1.00  0.00    -0.158 C  
HETATM    4  C   UNL     1      -8.309  11.104  62.919  1.00  0.00     0.023 C  
HETATM    5  O   UNL     1     -11.033  13.703  66.272  1.00  0.00    -0.297 OA 
HETATM    6  C   UNL     1      -9.240  11.243  66.325  1.00  0.00    -0.200 C  
HETATM    7  C   UNL     1     -10.755  12.614  63.971  1.00  0.00    -0.457 C  
HETATM    8  N   UNL     1     -10.471  11.516  65.740  1.00  0.00    -0.252 N  
HETATM    9  C   UNL     1      -9.004  11.513  67.777  1.00  0.00    -0.160 C  
HETATM   10  O   UNL     1      -8.181  10.925  68.460  1.00  0.00    -0.124 OA 
HETATM   11  O   UNL     1      -9.777  12.488  68.305  1.00  0.00    -0.219 OA 
HETATM   12  C   UNL     1     -10.878  12.795  65.485  1.00  0.00    -0.274 C  
ENDROOT
BRANCH   3  13
HETATM   13  S   UNL     1      -6.850   9.934  65.744  1.00  0.00    -0.111 SA 
BRANCH  13  14
HETATM   14  C   UNL     1      -7.018   8.203  65.160  1.00  0.00    -0.063 C  
HETATM   15  C   UNL     1      -8.437   7.785  64.792  1.00  0.00     0.031 C  
HETATM   16  N   UNL     1      -9.064   7.528  66.076  1.00  0.00    -0.323 NA 
HETATM   17  C   UNL     1      -8.057   6.874  66.943  1.00  0.00    -0.109 C  
HETATM   18  C   UNL     1      -6.704   7.270  66.339  1.00  0.00    -0.060 C  
HETATM   19  H   UNL     1      -9.927   6.990  65.997  1.00  0.00     0.000 HD 
BRANCH  17  20
HETATM   20  C   UNL     1      -8.347   7.258  68.422  1.00  0.00    -0.125 C  
HETATM   21  O   UNL     1      -7.423   7.606  69.160  1.00  0.00    -0.090 OA 
HETATM   22  N   UNL     1      -9.688   7.286  68.781  1.00  0.00    -0.149 N  
HETATM   23  H   UNL     1     -10.362   7.064  68.049  1.00  0.00     0.000 HD 
BRANCH  22  24
HETATM   24  C   UNL     1     -10.218   7.590  70.061  1.00  0.00    -0.215 A  
HETATM   25  C   UNL     1     -10.016   6.798  71.196  1.00  0.00    -0.194 A  
HETATM   26  C   UNL     1     -10.555   7.160  72.436  1.00  0.00    -0.257 A  
HETATM   27  C   UNL     1     -11.318   8.316  72.559  1.00  0.00    -0.455 A  
HETATM   28  C   UNL     1     -11.557   9.103  71.427  1.00  0.00    -0.411 A  
HETATM   29  C   UNL     1     -12.368  10.343  71.504  1.00  0.00    -0.368 C  
HETATM   30  C   UNL     1     -10.990   8.751  70.189  1.00  0.00    -0.236 A  
HETATM   31  O   UNL     1     -13.371  10.290  72.407  1.00  0.00    -0.325 OA 
HETATM   32  O   UNL     1     -12.167  11.306  70.784  1.00  0.00    -0.356 OA 
ENDBRANCH  22  24
ENDBRANCH  17  20
ENDBRANCH  13  14
ENDBRANCH   3  13
BRANCH   7  33
HETATM   33  C   UNL     1     -11.987  12.798  63.106  1.00  0.00    -0.267 C  
HETATM   34  O   UNL     1     -12.436  14.137  63.311  1.00  0.00    -1.146 OA 
HETATM   35  H   UNL     1     -13.208  14.252  62.768  1.00  0.00     0.000 HD 
HETATM   36  C   UNL     1     -13.092  11.831  63.502  1.00  0.00    -0.055 C  
ENDBRANCH   7  33
TORSDOF 5
ENDMDL
MODEL      131
REMARK 921   NORMALIZED FREE ENERGY PREDICTED BY IDOCK:   -5.49 KCAL/MOL
REMARK 922        TOTAL FREE ENERGY PREDICTED BY IDOCK:   -8.78 KCAL/MOL
REMARK 923 INTER-LIGAND FREE ENERGY PREDICTED BY IDOCK:   -7.80 KCAL/MOL
REMARK 924 INTRA-LIGAND FREE ENERGY PREDICTED BY IDOCK:   -0.97 KCAL/MOL
REMARK 927      BINDING AFFINITY PREDICTED BY RF-SCORE:    0.00 PKD
ROOT
HETATM    1  C   UNL     1     -11.557  13.899  66.187  1.00  0.00    -0.359 C  
HETATM    2  C   UNL     1     -10.774  13.472  67.431  1.00  0.00    -0.269 C  
HETATM    3  C   UNL     1     -10.247  14.791  67.957  1.00  0.00    -0.226 C  
HETATM    4  C   UNL     1      -9.734  12.415  67.085  1.00  0.00    -0.207 C  
HETATM    5  O   UNL     1     -10.773  16.429  64.217  1.00  0.00    -0.503 OA 
HETATM    6  C   UNL     1     -10.680  15.818  67.198  1.00  0.00    -0.312 C  
HETATM    7  C   UNL     1     -10.982  13.930  64.735  1.00  0.00    -0.407 C  
HETATM    8  N   UNL     1     -11.497  15.388  66.159  1.00  0.00    -0.095 N  
HETATM    9  C   UNL     1     -10.445  17.276  67.434  1.00  0.00    -0.338 C  
HETATM   10  O   UNL     1     -10.148  17.757  68.516  1.00  0.00    -0.336 OA 
HETATM   11  O   UNL     1     -10.574  18.056  66.338  1.00  0.00    -0.339 OA 
HETATM   12  C   UNL     1     -11.096  15.452  64.855  1.00  0.00    -0.423 C  
ENDROOT
BRANCH   3  13
HETATM   13  S   UNL     1      -9.401  14.809  69.459  1.00  0.00     0.208 SA 
BRANCH  13  14
HETATM   14  C   UNL     1      -7.713  15.395  69.047  1.00  0.00    -0.186 C  
HETATM   15  C   UNL     1      -7.389  15.425  67.557  1.00  0.00    -0.195 C  
HETATM   16  N   UNL     1      -7.104  14.037  67.239  1.00  0.00    -0.367 NA 
HETATM   17  C   UNL     1      -6.356  13.461  68.380  1.00  0.00    -0.088 C  
HETATM   18  C   UNL     1      -6.708  14.360  69.573  1.00  0.00    -0.141 C  
HETATM   19  H   UNL     1      -6.618  13.925  66.349  1.00  0.00     0.000 HD 
BRANCH  17  20
HETATM   20  C   UNL     1      -6.682  11.943  68.476  1.00  0.00    -0.068 C  
HETATM   21  O   UNL     1      -6.122  11.146  67.721  1.00  0.00    -0.046 OA 
HETATM   22  N   UNL     1      -7.525  11.576  69.515  1.00  0.00    -0.349 N  
HETATM   23  H   UNL     1      -7.849  12.325  70.127  1.00  0.00     0.000 HD 
BRANCH  22  24
HETATM   24  C   UNL     1      -7.984  10.269  69.815  1.00  0.00    -0.126 A  
HETATM   25  C   UNL     1      -9.333   9.894  69.801  1.00  0.00    -0.248 A  
HETATM   26  C   UNL     1      -9.722   8.583  70.093  1.00  0.00    -0.175 A  
HETATM   27  C   UNL     1      -8.769   7.623  70.418  1.00  0.00    -0.143 A  
HETATM   28  C   UNL     1      -7.419   7.987  70.468  1.00  0.00    -0.071 A  
HETATM   29  C   UNL     1      -6.364   7.004  70.813  1.00  0.00    -0.043 C  
HETATM   30  C   UNL     1      -7.030   9.300  70.146  1.00  0.00    -0.067 A  
HETATM   31  O   UNL     1      -6.755   6.068  71.705  1.00  0.00    -0.056 OA 
HETATM   32  O   UNL     1      -5.234   7.064  70.360  1.00  0.00    -0.022 OA 
ENDBRANCH  22  24
ENDBRANCH  17  20
ENDBRANCH  13  14
ENDBRANCH   3  13
BRANCH   7  33
HETATM   33  C   UNL     1     -11.828  13.207  63.706  1.00  0.00    -0.486 C  
HETATM   34  O   UNL     1     -12.593  14.205  63.030  1.00  0.00    -1.002 OA 
HETATM   35  H   UNL     1     -13.124  13.752  62.385  1.00  0.00     0.000 HD 
HETATM   36  C   UNL     1     -12.770  12.212  64.364  1.00  0.00    -0.317 C  
ENDBRANCH   7  33
TORSDOF 5
ENDMDL
MODEL      132
REMARK 921   NORMALIZED FREE ENERGY PREDICTED BY IDOCK:   -5.48 KCAL/MOL
REMARK 922        TOTAL FREE ENERGY PREDICTED BY IDOCK:   -8.77 KCAL/MOL
REMARK 923 INTER-LIGAND FREE ENERGY PREDICTED BY IDOCK:   -7.03 KCAL/MOL
REMARK 924 INTRA-LIGAND FREE ENERGY PREDICTED BY IDOCK:   -1.74 KCAL/MOL
REMARK 927      BINDING AFFINITY PREDICTED BY RF-SCORE:    0.00 PKD
ROOT
HETATM    1  C   UNL     1     -11.273  12.620  68.554  1.00  0.00    -0.279 C  
HETATM    2  C   UNL     1      -9.946  11.994  68.118  1.00  0.00    -0.203 C  
HETATM    3  C   UNL     1      -9.905  10.712  68.927  1.00  0.00    -0.201 C  
HETATM    4  C   UNL     1      -8.790  12.963  68.326  1.00  0.00    -0.168 C  
HETATM    5  O   UNL     1     -12.609  12.356  71.561  1.00  0.00    -0.263 OA 
HETATM    6  C   UNL     1     -11.025  10.576  69.665  1.00  0.00    -0.283 C  
HETATM    7  C   UNL     1     -11.433  13.666  69.702  1.00  0.00    -0.286 C  
HETATM    8  N   UNL     1     -11.908  11.632  69.471  1.00  0.00    -0.329 N  
HETATM    9  C   UNL     1     -11.398   9.415  70.531  1.00  0.00    -0.274 C  
HETATM   10  O   UNL     1     -10.932   8.293  70.413  1.00  0.00    -0.239 OA 
HETATM   11  O   UNL     1     -12.306   9.693  71.492  1.00  0.00    -0.338 OA 
HETATM   12  C   UNL     1     -12.160  12.548  70.453  1.00  0.00    -0.297 C  
ENDROOT
BRANCH   3  13
HETATM   13  S   UNL     1      -8.623   9.595  68.650  1.00  0.00    -0.122 SA 
BRANCH  13  14
HETATM   14  C   UNL     1      -8.947   8.903  66.982  1.00  0.00    -0.127 C  
HETATM   15  C   UNL     1     -10.419   8.681  66.654  1.00  0.00    -0.169 C  
HETATM   16  N   UNL     1     -10.744   7.448  67.348  1.00  0.00    -0.440 NA 
HETATM   17  C   UNL     1      -9.578   6.544  67.223  1.00  0.00    -0.126 C  
HETATM   18  C   UNL     1      -8.390   7.473  66.943  1.00  0.00    -0.125 C  
HETATM   19  H   UNL     1     -11.612   7.023  67.020  1.00  0.00     0.000 HD 
BRANCH  17  20
HETATM   20  C   UNL     1      -9.520   5.627  68.479  1.00  0.00    -0.125 C  
HETATM   21  O   UNL     1      -9.867   4.447  68.394  1.00  0.00    -0.137 OA 
HETATM   22  N   UNL     1      -8.958   6.198  69.612  1.00  0.00    -0.133 N  
HETATM   23  H   UNL     1      -8.626   7.158  69.523  1.00  0.00     0.000 HD 
BRANCH  22  24
HETATM   24  C   UNL     1      -8.799   5.587  70.881  1.00  0.00    -0.139 A  
HETATM   25  C   UNL     1      -7.562   5.411  71.511  1.00  0.00    -0.103 A  
HETATM   26  C   UNL     1      -7.471   4.811  72.772  1.00  0.00    -0.086 A  
HETATM   27  C   UNL     1      -8.616   4.363  73.420  1.00  0.00    -0.097 A  
HETATM   28  C   UNL     1      -9.859   4.501  72.792  1.00  0.00    -0.191 A  
HETATM   29  C   UNL     1     -11.110   4.036  73.438  1.00  0.00    -0.246 C  
HETATM   30  C   UNL     1      -9.948   5.130  71.537  1.00  0.00    -0.248 A  
HETATM   31  O   UNL     1     -10.957   2.935  74.204  1.00  0.00    -0.181 OA 
HETATM   32  O   UNL     1     -12.185   4.581  73.258  1.00  0.00    -0.011 OA 
ENDBRANCH  22  24
ENDBRANCH  17  20
ENDBRANCH  13  14
ENDBRANCH   3  13
BRANCH   7  33
HETATM   33  C   UNL     1     -12.203  14.914  69.315  1.00  0.00    -0.186 C  
HETATM   34  O   UNL     1     -12.528  14.782  67.931  1.00  0.00    -0.556 OA 
HETATM   35  H   UNL     1     -13.011  15.564  67.688  1.00  0.00     0.000 HD 
HETATM   36  C   UNL     1     -11.366  16.167  69.517  1.00  0.00    -0.321 C  
ENDBRANCH   7  33
TORSDOF 5
ENDMDL
MODEL      133
REMARK 921   NORMALIZED FREE ENERGY PREDICTED BY IDOCK:   -5.46 KCAL/MOL
REMARK 922        TOTAL FREE ENERGY PREDICTED BY IDOCK:   -8.74 KCAL/MOL
REMARK 923 INTER-LIGAND FREE ENERGY PREDICTED BY IDOCK:   -7.37 KCAL/MOL
REMARK 924 INTRA-LIGAND FREE ENERGY PREDICTED BY IDOCK:   -1.37 KCAL/MOL
REMARK 927      BINDING AFFINITY PREDICTED BY RF-SCORE:    0.00 PKD
ROOT
HETATM    1  C   UNL     1      -8.756   6.379  68.475  1.00  0.00    -0.121 C  
HETATM    2  C   UNL     1      -9.835   7.016  67.596  1.00  0.00    -0.180 C  
HETATM    3  C   UNL     1      -9.846   8.453  68.078  1.00  0.00    -0.169 C  
HETATM    4  C   UNL     1     -11.149   6.254  67.705  1.00  0.00    -0.361 C  
HETATM    5  O   UNL     1      -8.093   7.227  71.595  1.00  0.00    -0.099 OA 
HETATM    6  C   UNL     1      -8.910   8.646  69.028  1.00  0.00    -0.138 C  
HETATM    7  C   UNL     1      -9.025   5.634  69.821  1.00  0.00    -0.140 C  
HETATM    8  N   UNL     1      -8.189   7.488  69.292  1.00  0.00    -0.129 N  
HETATM    9  C   UNL     1      -8.555   9.938  69.694  1.00  0.00    -0.194 C  
HETATM   10  O   UNL     1      -8.796  11.040  69.227  1.00  0.00    -0.050 OA 
HETATM   11  O   UNL     1      -7.940   9.809  70.890  1.00  0.00    -0.279 OA 
HETATM   12  C   UNL     1      -8.311   6.818  70.476  1.00  0.00    -0.129 C  
ENDROOT
BRANCH   3  13
HETATM   13  S   UNL     1     -10.838   9.598  67.256  1.00  0.00    -0.032 SA 
BRANCH  13  14
HETATM   14  C   UNL     1      -9.906  10.031  65.737  1.00  0.00    -0.278 C  
HETATM   15  C   UNL     1      -8.476  10.504  65.974  1.00  0.00    -0.156 C  
HETATM   16  N   UNL     1      -8.636  11.883  66.400  1.00  0.00    -0.347 NA 
HETATM   17  C   UNL     1      -9.730  12.475  65.597  1.00  0.00    -0.158 C  
HETATM   18  C   UNL     1     -10.557  11.275  65.117  1.00  0.00    -0.343 C  
HETATM   19  H   UNL     1      -7.770  12.419  66.346  1.00  0.00     0.000 HD 
BRANCH  17  20
HETATM   20  C   UNL     1     -10.438  13.568  66.447  1.00  0.00    -0.287 C  
HETATM   21  O   UNL     1     -10.891  14.575  65.900  1.00  0.00    -0.293 OA 
HETATM   22  N   UNL     1     -10.610  13.264  67.791  1.00  0.00    -0.238 N  
HETATM   23  H   UNL     1     -10.270  12.355  68.101  1.00  0.00     0.000 HD 
BRANCH  22  24
HETATM   24  C   UNL     1     -11.211  14.087  68.777  1.00  0.00    -0.271 A  
HETATM   25  C   UNL     1     -11.185  15.485  68.746  1.00  0.00    -0.316 A  
HETATM   26  C   UNL     1     -11.809  16.243  69.744  1.00  0.00     0.017 A  
HETATM   27  C   UNL     1     -12.458  15.613  70.800  1.00  0.00    -0.484 A  
HETATM   28  C   UNL     1     -12.466  14.216  70.865  1.00  0.00    -0.436 A  
HETATM   29  C   UNL     1     -13.141  13.496  71.972  1.00  0.00    -0.387 C  
HETATM   30  C   UNL     1     -11.862  13.458  69.845  1.00  0.00    -0.385 A  
HETATM   31  O   UNL     1     -13.092  14.140  73.158  1.00  0.00    -0.547 OA 
HETATM   32  O   UNL     1     -13.657  12.401  71.828  1.00  0.00    -0.253 OA 
ENDBRANCH  22  24
ENDBRANCH  17  20
ENDBRANCH  13  14
ENDBRANCH   3  13
BRANCH   7  33
HETATM   33  C   UNL     1      -8.400   4.256  69.914  1.00  0.00    -0.061 C  
HETATM   34  O   UNL     1      -8.919   3.649  71.097  1.00  0.00    -0.087 OA 
HETATM   35  H   UNL     1      -8.527   2.785  71.155  1.00  0.00     0.000 HD 
HETATM   36  C   UNL     1      -6.885   4.340  70.015  1.00  0.00    -0.038 C  
ENDBRANCH   7  33
TORSDOF 5
ENDMDL
MODEL      134
REMARK 921   NORMALIZED FREE ENERGY PREDICTED BY IDOCK:   -5.46 KCAL/MOL
REMARK 922        TOTAL FREE ENERGY PREDICTED BY IDOCK:   -8.74 KCAL/MOL
REMARK 923 INTER-LIGAND FREE ENERGY PREDICTED BY IDOCK:   -8.14 KCAL/MOL
REMARK 924 INTRA-LIGAND FREE ENERGY PREDICTED BY IDOCK:   -0.59 KCAL/MOL
REMARK 927      BINDING AFFINITY PREDICTED BY RF-SCORE:    0.00 PKD
ROOT
HETATM    1  C   UNL     1      -8.441  16.343  67.109  1.00  0.00    -0.183 C  
HETATM    2  C   UNL     1      -8.741  14.895  67.505  1.00  0.00    -0.197 C  
HETATM    3  C   UNL     1      -9.874  14.526  66.569  1.00  0.00    -0.285 C  
HETATM    4  C   UNL     1      -9.031  14.785  68.996  1.00  0.00    -0.135 C  
HETATM    5  O   UNL     1     -10.674  18.530  66.047  1.00  0.00    -0.386 OA 
HETATM    6  C   UNL     1     -10.159  15.546  65.735  1.00  0.00    -0.360 C  
HETATM    7  C   UNL     1      -9.052  17.603  67.799  1.00  0.00    -0.247 C  
HETATM    8  N   UNL     1      -9.331  16.641  65.951  1.00  0.00    -0.225 N  
HETATM    9  C   UNL     1     -11.154  15.546  64.618  1.00  0.00    -0.359 C  
HETATM   10  O   UNL     1     -11.579  14.538  64.076  1.00  0.00    -0.186 OA 
HETATM   11  O   UNL     1     -11.577  16.772  64.237  1.00  0.00    -1.027 OA 
HETATM   12  C   UNL     1      -9.805  17.807  66.482  1.00  0.00    -0.329 C  
ENDROOT
BRANCH   3  13
HETATM   13  S   UNL     1     -10.455  12.903  66.566  1.00  0.00    -0.268 SA 
BRANCH  13  14
HETATM   14  C   UNL     1      -9.491  12.056  65.255  1.00  0.00    -0.026 C  
HETATM   15  C   UNL     1     -10.313  11.171  64.324  1.00  0.00    -0.351 C  
HETATM   16  N   UNL     1     -10.527   9.962  65.101  1.00  0.00    -0.020 NA 
HETATM   17  C   UNL     1      -9.280   9.684  65.849  1.00  0.00    -0.194 C  
HETATM   18  C   UNL     1      -8.562  11.037  65.930  1.00  0.00    -0.165 C  
HETATM   19  H   UNL     1     -10.832   9.172  64.530  1.00  0.00     0.000 HD 
BRANCH  17  20
HETATM   20  C   UNL     1      -9.645   8.960  67.176  1.00  0.00    -0.172 C  
HETATM   21  O   UNL     1     -10.331   9.536  68.023  1.00  0.00    -0.190 OA 
HETATM   22  N   UNL     1      -9.250   7.631  67.261  1.00  0.00    -0.129 N  
HETATM   23  H   UNL     1      -8.768   7.245  66.451  1.00  0.00     0.000 HD 
BRANCH  22  24
HETATM   24  C   UNL     1      -9.448   6.756  68.359  1.00  0.00    -0.126 A  
HETATM   25  C   UNL     1      -9.024   5.422  68.378  1.00  0.00    -0.113 A  
HETATM   26  C   UNL     1      -9.237   4.612  69.498  1.00  0.00    -0.182 A  
HETATM   27  C   UNL     1      -9.891   5.117  70.616  1.00  0.00    -0.274 A  
HETATM   28  C   UNL     1     -10.351   6.438  70.603  1.00  0.00    -0.243 A  
HETATM   29  C   UNL     1     -11.059   7.024  71.767  1.00  0.00    -0.239 C  
HETATM   30  C   UNL     1     -10.110   7.258  69.485  1.00  0.00    -0.182 A  
HETATM   31  O   UNL     1     -11.822   6.142  72.448  1.00  0.00    -0.303 OA 
HETATM   32  O   UNL     1     -10.986   8.206  72.055  1.00  0.00    -0.247 OA 
ENDBRANCH  22  24
ENDBRANCH  17  20
ENDBRANCH  13  14
ENDBRANCH   3  13
BRANCH   7  33
HETATM   33  C   UNL     1      -8.035  18.640  68.233  1.00  0.00    -0.312 C  
HETATM   34  O   UNL     1      -7.943  19.593  67.174  1.00  0.00    -0.260 OA 
HETATM   35  H   UNL     1      -7.305  20.242  67.446  1.00  0.00     0.000 HD 
HETATM   36  C   UNL     1      -6.669  18.012  68.464  1.00  0.00    -0.225 C  
ENDBRANCH   7  33
TORSDOF 5
ENDMDL
MODEL      135
REMARK 921   NORMALIZED FREE ENERGY PREDICTED BY IDOCK:   -5.46 KCAL/MOL
REMARK 922        TOTAL FREE ENERGY PREDICTED BY IDOCK:   -8.74 KCAL/MOL
REMARK 923 INTER-LIGAND FREE ENERGY PREDICTED BY IDOCK:   -7.68 KCAL/MOL
REMARK 924 INTRA-LIGAND FREE ENERGY PREDICTED BY IDOCK:   -1.06 KCAL/MOL
REMARK 927      BINDING AFFINITY PREDICTED BY RF-SCORE:    0.00 PKD
ROOT
HETATM    1  C   UNL     1      -9.944   7.708  70.269  1.00  0.00    -0.189 C  
HETATM    2  C   UNL     1     -10.490   9.059  69.801  1.00  0.00    -0.227 C  
HETATM    3  C   UNL     1      -9.305   9.660  69.072  1.00  0.00    -0.159 C  
HETATM    4  C   UNL     1     -11.043   9.861  70.972  1.00  0.00    -0.401 C  
HETATM    5  O   UNL     1      -6.816   7.118  71.145  1.00  0.00    -0.058 OA 
HETATM    6  C   UNL     1      -8.264   8.802  69.063  1.00  0.00    -0.117 C  
HETATM    7  C   UNL     1      -9.302   7.440  71.668  1.00  0.00    -0.162 C  
HETATM    8  N   UNL     1      -8.568   7.608  69.705  1.00  0.00    -0.134 N  
HETATM    9  C   UNL     1      -6.947   8.991  68.379  1.00  0.00    -0.068 C  
HETATM   10  O   UNL     1      -6.760   9.761  67.450  1.00  0.00    -0.072 OA 
HETATM   11  O   UNL     1      -5.939   8.240  68.874  1.00  0.00    -0.041 OA 
HETATM   12  C   UNL     1      -7.992   7.265  70.896  1.00  0.00    -0.098 C  
ENDROOT
BRANCH   3  13
HETATM   13  S   UNL     1      -9.509  11.156  68.243  1.00  0.00    -0.188 SA 
BRANCH  13  14
HETATM   14  C   UNL     1     -10.976  10.908  67.169  1.00  0.00    -0.272 C  
HETATM   15  C   UNL     1     -10.658  10.598  65.711  1.00  0.00    -0.098 C  
HETATM   16  N   UNL     1     -10.329  11.896  65.147  1.00  0.00    -0.267 NA 
HETATM   17  C   UNL     1     -11.248  12.890  65.747  1.00  0.00    -0.294 C  
HETATM   18  C   UNL     1     -11.718  12.248  67.059  1.00  0.00    -0.399 C  
HETATM   19  H   UNL     1     -10.348  11.903  64.127  1.00  0.00     0.000 HD 
BRANCH  17  20
HETATM   20  C   UNL     1     -10.522  14.264  65.815  1.00  0.00    -0.316 C  
HETATM   21  O   UNL     1     -10.274  14.880  64.776  1.00  0.00    -0.331 OA 
HETATM   22  N   UNL     1     -10.300  14.761  67.092  1.00  0.00    -0.253 N  
HETATM   23  H   UNL     1     -10.637  14.194  67.868  1.00  0.00     0.000 HD 
BRANCH  22  24
HETATM   24  C   UNL     1      -9.653  15.977  67.428  1.00  0.00    -0.225 A  
HETATM   25  C   UNL     1      -8.573  16.066  68.314  1.00  0.00    -0.179 A  
HETATM   26  C   UNL     1      -7.968  17.295  68.595  1.00  0.00    -0.267 A  
HETATM   27  C   UNL     1      -8.441  18.462  68.006  1.00  0.00    -0.291 A  
HETATM   28  C   UNL     1      -9.540  18.397  67.143  1.00  0.00    -0.299 A  
HETATM   29  C   UNL     1     -10.087  19.613  66.492  1.00  0.00    -0.461 C  
HETATM   30  C   UNL     1     -10.128  17.156  66.841  1.00  0.00    -0.298 A  
HETATM   31  O   UNL     1      -9.995  20.729  67.246  1.00  0.00    -0.433 OA 
HETATM   32  O   UNL     1     -10.607  19.592  65.390  1.00  0.00    -0.467 OA 
ENDBRANCH  22  24
ENDBRANCH  17  20
ENDBRANCH  13  14
ENDBRANCH   3  13
BRANCH   7  33
HETATM   33  C   UNL     1      -9.882   6.253  72.410  1.00  0.00    -0.164 C  
HETATM   34  O   UNL     1      -8.962   5.175  72.243  1.00  0.00    -0.128 OA 
HETATM   35  H   UNL     1      -9.326   4.430  72.708  1.00  0.00     0.000 HD 
HETATM   36  C   UNL     1     -11.235   5.852  71.842  1.00  0.00    -0.323 C  
ENDBRANCH   7  33
TORSDOF 5
ENDMDL
MODEL      136
REMARK 921   NORMALIZED FREE ENERGY PREDICTED BY IDOCK:   -5.45 KCAL/MOL
REMARK 922        TOTAL FREE ENERGY PREDICTED BY IDOCK:   -8.72 KCAL/MOL
REMARK 923 INTER-LIGAND FREE ENERGY PREDICTED BY IDOCK:   -7.18 KCAL/MOL
REMARK 924 INTRA-LIGAND FREE ENERGY PREDICTED BY IDOCK:   -1.54 KCAL/MOL
REMARK 927      BINDING AFFINITY PREDICTED BY RF-SCORE:    0.00 PKD
ROOT
HETATM    1  C   UNL     1      -9.667   6.151  71.731  1.00  0.00    -0.153 C  
HETATM    2  C   UNL     1      -9.444   5.929  70.232  1.00  0.00    -0.191 C  
HETATM    3  C   UNL     1      -9.927   7.233  69.630  1.00  0.00    -0.176 C  
HETATM    4  C   UNL     1     -10.143   4.663  69.757  1.00  0.00    -0.243 C  
HETATM    5  O   UNL     1     -12.112   7.936  73.048  1.00  0.00    -0.135 OA 
HETATM    6  C   UNL     1     -10.315   8.091  70.595  1.00  0.00    -0.202 C  
HETATM    7  C   UNL     1     -10.946   5.719  72.517  1.00  0.00    -0.309 C  
HETATM    8  N   UNL     1     -10.153   7.554  71.866  1.00  0.00    -0.171 N  
HETATM    9  C   UNL     1     -10.777   9.502  70.413  1.00  0.00    -0.284 C  
HETATM   10  O   UNL     1     -10.528  10.186  69.433  1.00  0.00    -0.202 OA 
HETATM   11  O   UNL     1     -11.522   9.990  71.430  1.00  0.00    -0.360 OA 
HETATM   12  C   UNL     1     -11.222   7.218  72.648  1.00  0.00    -0.313 C  
ENDROOT
BRANCH   3  13
HETATM   13  S   UNL     1      -9.731   7.491  67.938  1.00  0.00    -0.151 SA 
BRANCH  13  14
HETATM   14  C   UNL     1      -7.927   7.722  67.698  1.00  0.00    -0.124 C  
HETATM   15  C   UNL     1      -7.214   8.438  68.840  1.00  0.00    -0.078 C  
HETATM   16  N   UNL     1      -7.534   9.838  68.620  1.00  0.00    -0.074 NA 
HETATM   17  C   UNL     1      -7.506  10.080  67.160  1.00  0.00    -0.091 C  
HETATM   18  C   UNL     1      -7.723   8.698  66.530  1.00  0.00    -0.095 C  
HETATM   19  H   UNL     1      -6.924  10.471  69.139  1.00  0.00     0.000 HD 
BRANCH  17  20
HETATM   20  C   UNL     1      -8.516  11.213  66.822  1.00  0.00    -0.153 C  
HETATM   21  O   UNL     1      -9.023  11.271  65.701  1.00  0.00    -0.207 OA 
HETATM   22  N   UNL     1      -8.866  12.039  67.882  1.00  0.00    -0.167 N  
HETATM   23  H   UNL     1      -8.443  11.827  68.785  1.00  0.00     0.000 HD 
BRANCH  22  24
HETATM   24  C   UNL     1      -9.751  13.146  67.840  1.00  0.00    -0.221 A  
HETATM   25  C   UNL     1      -9.778  14.083  66.802  1.00  0.00    -0.283 A  
HETATM   26  C   UNL     1     -10.685  15.148  66.811  1.00  0.00    -0.311 A  
HETATM   27  C   UNL     1     -11.576  15.301  67.868  1.00  0.00    -0.301 A  
HETATM   28  C   UNL     1     -11.542  14.392  68.931  1.00  0.00    -0.340 A  
HETATM   29  C   UNL     1     -12.467  14.514  70.084  1.00  0.00    -0.321 C  
HETATM   30  C   UNL     1     -10.647  13.308  68.903  1.00  0.00    -0.167 A  
HETATM   31  O   UNL     1     -12.777  15.788  70.408  1.00  0.00    -0.393 OA 
HETATM   32  O   UNL     1     -12.876  13.548  70.705  1.00  0.00    -0.228 OA 
ENDBRANCH  22  24
ENDBRANCH  17  20
ENDBRANCH  13  14
ENDBRANCH   3  13
BRANCH   7  33
HETATM   33  C   UNL     1     -10.672   4.909  73.769  1.00  0.00    -0.301 C  
HETATM   34  O   UNL     1      -9.365   5.272  74.214  1.00  0.00    -0.126 OA 
HETATM   35  H   UNL     1      -9.194   4.764  74.999  1.00  0.00     0.000 HD 
HETATM   36  C   UNL     1     -10.709   3.416  73.482  1.00  0.00    -0.306 C  
ENDBRANCH   7  33
TORSDOF 5
ENDMDL
MODEL      137
REMARK 921   NORMALIZED FREE ENERGY PREDICTED BY IDOCK:   -5.42 KCAL/MOL
REMARK 922        TOTAL FREE ENERGY PREDICTED BY IDOCK:   -8.68 KCAL/MOL
REMARK 923 INTER-LIGAND FREE ENERGY PREDICTED BY IDOCK:   -7.08 KCAL/MOL
REMARK 924 INTRA-LIGAND FREE ENERGY PREDICTED BY IDOCK:   -1.60 KCAL/MOL
REMARK 927      BINDING AFFINITY PREDICTED BY RF-SCORE:    0.00 PKD
ROOT
HETATM    1  C   UNL     1      -8.208   4.839  65.856  1.00  0.00    -0.112 C  
HETATM    2  C   UNL     1      -9.347   4.947  66.873  1.00  0.00    -0.137 C  
HETATM    3  C   UNL     1      -9.645   6.433  66.878  1.00  0.00    -0.149 C  
HETATM    4  C   UNL     1      -8.949   4.331  68.208  1.00  0.00    -0.151 C  
HETATM    5  O   UNL     1      -5.890   7.132  65.341  1.00  0.00    -0.035 OA 
HETATM    6  C   UNL     1      -8.864   7.080  65.989  1.00  0.00    -0.135 C  
HETATM    7  C   UNL     1      -6.688   4.860  66.213  1.00  0.00    -0.050 C  
HETATM    8  N   UNL     1      -8.019   6.212  65.309  1.00  0.00    -0.109 N  
HETATM    9  C   UNL     1      -8.910   8.534  65.641  1.00  0.00    -0.173 C  
HETATM   10  O   UNL     1      -9.875   9.257  65.833  1.00  0.00    -0.281 OA 
HETATM   11  O   UNL     1      -7.775   9.021  65.093  1.00  0.00    -0.096 OA 
HETATM   12  C   UNL     1      -6.668   6.219  65.509  1.00  0.00    -0.048 C  
ENDROOT
BRANCH   3  13
HETATM   13  S   UNL     1     -10.982   7.011  67.799  1.00  0.00    -0.115 SA 
BRANCH  13  14
HETATM   14  C   UNL     1     -10.259   7.562  69.392  1.00  0.00    -0.204 C  
HETATM   15  C   UNL     1     -11.276   7.908  70.473  1.00  0.00    -0.253 C  
HETATM   16  N   UNL     1     -11.737   9.234  70.098  1.00  0.00    -0.465 NA 
HETATM   17  C   UNL     1     -10.568   9.988  69.593  1.00  0.00    -0.252 C  
HETATM   18  C   UNL     1      -9.565   8.911  69.159  1.00  0.00    -0.162 C  
HETATM   19  H   UNL     1     -12.222   9.715  70.856  1.00  0.00     0.000 HD 
BRANCH  17  20
HETATM   20  C   UNL     1     -11.056  11.015  68.532  1.00  0.00    -0.243 C  
HETATM   21  O   UNL     1     -12.263  11.216  68.381  1.00  0.00    -0.610 OA 
HETATM   22  N   UNL     1     -10.057  11.733  67.889  1.00  0.00    -0.182 N  
HETATM   23  H   UNL     1      -9.098  11.535  68.172  1.00  0.00     0.000 HD 
BRANCH  22  24
HETATM   24  C   UNL     1     -10.231  12.714  66.880  1.00  0.00    -0.234 A  
HETATM   25  C   UNL     1     -10.314  12.421  65.515  1.00  0.00    -0.298 A  
HETATM   26  C   UNL     1     -10.501  13.434  64.568  1.00  0.00    -0.431 A  
HETATM   27  C   UNL     1     -10.594  14.761  64.969  1.00  0.00    -0.452 A  
HETATM   28  C   UNL     1     -10.480  15.077  66.327  1.00  0.00    -0.309 A  
HETATM   29  C   UNL     1     -10.568  16.478  66.807  1.00  0.00    -0.224 C  
HETATM   30  C   UNL     1     -10.321  14.053  67.278  1.00  0.00    -0.264 A  
HETATM   31  O   UNL     1     -10.060  17.387  65.947  1.00  0.00    -0.500 OA 
HETATM   32  O   UNL     1     -11.023  16.772  67.899  1.00  0.00    -0.337 OA 
ENDBRANCH  22  24
ENDBRANCH  17  20
ENDBRANCH  13  14
ENDBRANCH   3  13
BRANCH   7  33
HETATM   33  C   UNL     1      -5.887   3.715  65.625  1.00  0.00    -0.019 C  
HETATM   34  O   UNL     1      -5.128   4.258  64.544  1.00  0.00    -0.008 OA 
HETATM   35  H   UNL     1      -4.626   3.540  64.175  1.00  0.00     0.000 HD 
HETATM   36  C   UNL     1      -6.796   2.616  65.098  1.00  0.00    -0.044 C  
ENDBRANCH   7  33
TORSDOF 5
ENDMDL
MODEL      138
REMARK 921   NORMALIZED FREE ENERGY PREDICTED BY IDOCK:   -5.39 KCAL/MOL
REMARK 922        TOTAL FREE ENERGY PREDICTED BY IDOCK:   -8.65 KCAL/MOL
REMARK 923 INTER-LIGAND FREE ENERGY PREDICTED BY IDOCK:   -7.10 KCAL/MOL
REMARK 924 INTRA-LIGAND FREE ENERGY PREDICTED BY IDOCK:   -1.54 KCAL/MOL
REMARK 927      BINDING AFFINITY PREDICTED BY RF-SCORE:    0.00 PKD
ROOT
HETATM    1  C   UNL     1      -7.766   8.614  70.941  1.00  0.00    -0.097 C  
HETATM    2  C   UNL     1      -6.828   9.154  69.859  1.00  0.00    -0.052 C  
HETATM    3  C   UNL     1      -7.730  10.086  69.076  1.00  0.00    -0.094 C  
HETATM    4  C   UNL     1      -6.185   8.017  69.076  1.00  0.00    -0.039 C  
HETATM    5  O   UNL     1     -11.002   8.079  70.564  1.00  0.00    -0.242 OA 
HETATM    6  C   UNL     1      -8.961  10.134  69.623  1.00  0.00    -0.169 C  
HETATM    7  C   UNL     1      -8.582   7.286  70.835  1.00  0.00    -0.136 C  
HETATM    8  N   UNL     1      -9.059   9.332  70.755  1.00  0.00    -0.250 N  
HETATM    9  C   UNL     1     -10.107  10.994  69.193  1.00  0.00    -0.146 C  
HETATM   10  O   UNL     1      -9.989  12.017  68.537  1.00  0.00    -0.209 OA 
HETATM   11  O   UNL     1     -11.324  10.551  69.578  1.00  0.00    -0.243 OA 
HETATM   12  C   UNL     1      -9.813   8.193  70.766  1.00  0.00    -0.180 C  
ENDROOT
BRANCH   3  13
HETATM   13  S   UNL     1      -7.046  11.041  67.815  1.00  0.00    -0.088 SA 
BRANCH  13  14
HETATM   14  C   UNL     1      -5.928  12.221  68.665  1.00  0.00    -0.055 C  
HETATM   15  C   UNL     1      -6.520  12.889  69.901  1.00  0.00     0.046 C  
HETATM   16  N   UNL     1      -7.376  13.927  69.353  1.00  0.00    -0.328 NA 
HETATM   17  C   UNL     1      -6.684  14.504  68.179  1.00  0.00    -0.125 C  
HETATM   18  C   UNL     1      -5.698  13.418  67.731  1.00  0.00    -0.112 C  
HETATM   19  H   UNL     1      -7.640  14.630  70.044  1.00  0.00     0.000 HD 
BRANCH  17  20
HETATM   20  C   UNL     1      -7.753  14.998  67.162  1.00  0.00    -0.167 C  
HETATM   21  O   UNL     1      -7.652  16.118  66.659  1.00  0.00    -0.239 OA 
HETATM   22  N   UNL     1      -8.713  14.062  66.802  1.00  0.00    -0.419 N  
HETATM   23  H   UNL     1      -8.631  13.137  67.223  1.00  0.00     0.000 HD 
BRANCH  22  24
HETATM   24  C   UNL     1      -9.797  14.258  65.909  1.00  0.00    -0.298 A  
HETATM   25  C   UNL     1     -10.446  15.485  65.730  1.00  0.00    -0.378 A  
HETATM   26  C   UNL     1     -11.502  15.618  64.822  1.00  0.00    -0.284 A  
HETATM   27  C   UNL     1     -11.937  14.522  64.085  1.00  0.00    -0.346 A  
HETATM   28  C   UNL     1     -11.321  13.281  64.275  1.00  0.00    -0.428 A  
HETATM   29  C   UNL     1     -11.751  12.080  63.518  1.00  0.00    -0.472 C  
HETATM   30  C   UNL     1     -10.242  13.158  65.168  1.00  0.00    -0.299 A  
HETATM   31  O   UNL     1     -13.072  12.045  63.244  1.00  0.00    -0.701 OA 
HETATM   32  O   UNL     1     -10.981  11.187  63.208  1.00  0.00    -0.242 OA 
ENDBRANCH  22  24
ENDBRANCH  17  20
ENDBRANCH  13  14
ENDBRANCH   3  13
BRANCH   7  33
HETATM   33  C   UNL     1      -8.422   6.352  72.018  1.00  0.00    -0.115 C  
HETATM   34  O   UNL     1      -8.628   7.138  73.192  1.00  0.00    -0.118 OA 
HETATM   35  H   UNL     1      -8.528   6.552  73.934  1.00  0.00     0.000 HD 
HETATM   36  C   UNL     1      -7.029   5.744  72.059  1.00  0.00    -0.078 C  
ENDBRANCH   7  33
TORSDOF 5
ENDMDL
MODEL      139
REMARK 921   NORMALIZED FREE ENERGY PREDICTED BY IDOCK:   -5.37 KCAL/MOL
REMARK 922        TOTAL FREE ENERGY PREDICTED BY IDOCK:   -8.62 KCAL/MOL
REMARK 923 INTER-LIGAND FREE ENERGY PREDICTED BY IDOCK:   -7.79 KCAL/MOL
REMARK 924 INTRA-LIGAND FREE ENERGY PREDICTED BY IDOCK:   -0.83 KCAL/MOL
REMARK 927      BINDING AFFINITY PREDICTED BY RF-SCORE:    0.00 PKD
ROOT
HETATM    1  C   UNL     1      -7.675   8.623  65.975  1.00  0.00    -0.100 C  
HETATM    2  C   UNL     1      -9.037   8.735  66.664  1.00  0.00    -0.196 C  
HETATM    3  C   UNL     1      -9.300   7.310  67.107  1.00  0.00    -0.141 C  
HETATM    4  C   UNL     1     -10.070   9.358  65.735  1.00  0.00    -0.166 C  
HETATM    5  O   UNL     1      -6.603   5.996  64.288  1.00  0.00    -0.032 OA 
HETATM    6  C   UNL     1      -8.263   6.510  66.788  1.00  0.00    -0.110 C  
HETATM    7  C   UNL     1      -7.464   8.403  64.443  1.00  0.00    -0.104 C  
HETATM    8  N   UNL     1      -7.240   7.210  66.159  1.00  0.00    -0.073 N  
HETATM    9  C   UNL     1      -8.106   5.060  67.124  1.00  0.00    -0.107 C  
HETATM   10  O   UNL     1      -8.703   4.496  68.027  1.00  0.00    -0.101 OA 
HETATM   11  O   UNL     1      -7.241   4.386  66.334  1.00  0.00    -0.073 OA 
HETATM   12  C   UNL     1      -6.943   7.019  64.840  1.00  0.00    -0.051 C  
ENDROOT
BRANCH   3  13
HETATM   13  S   UNL     1     -10.693   6.981  68.067  1.00  0.00    -0.170 SA 
BRANCH  13  14
HETATM   14  C   UNL     1     -10.221   7.468  69.772  1.00  0.00    -0.211 C  
HETATM   15  C   UNL     1     -11.391   7.736  70.710  1.00  0.00    -0.279 C  
HETATM   16  N   UNL     1     -11.834   9.068  70.335  1.00  0.00    -0.468 NA 
HETATM   17  C   UNL     1     -10.627   9.873  70.038  1.00  0.00    -0.288 C  
HETATM   18  C   UNL     1      -9.542   8.843  69.703  1.00  0.00    -0.170 C  
HETATM   19  H   UNL     1     -12.436   9.499  71.037  1.00  0.00     0.000 HD 
BRANCH  17  20
HETATM   20  C   UNL     1     -10.991  10.941  68.967  1.00  0.00    -0.235 C  
HETATM   21  O   UNL     1     -12.141  11.004  68.527  1.00  0.00    -0.573 OA 
HETATM   22  N   UNL     1      -9.984  11.845  68.657  1.00  0.00    -0.328 N  
HETATM   23  H   UNL     1      -9.104  11.739  69.161  1.00  0.00     0.000 HD 
BRANCH  22  24
HETATM   24  C   UNL     1     -10.052  12.901  67.713  1.00  0.00    -0.229 A  
HETATM   25  C   UNL     1      -9.186  13.999  67.709  1.00  0.00    -0.195 A  
HETATM   26  C   UNL     1      -9.295  15.003  66.741  1.00  0.00    -0.271 A  
HETATM   27  C   UNL     1     -10.284  14.933  65.766  1.00  0.00    -0.358 A  
HETATM   28  C   UNL     1     -11.180  13.859  65.774  1.00  0.00    -0.303 A  
HETATM   29  C   UNL     1     -12.255  13.740  64.759  1.00  0.00    -0.406 C  
HETATM   30  C   UNL     1     -11.048  12.837  66.732  1.00  0.00    -0.314 A  
HETATM   31  O   UNL     1     -12.759  14.923  64.350  1.00  0.00    -0.566 OA 
HETATM   32  O   UNL     1     -12.670  12.664  64.363  1.00  0.00    -0.656 OA 
ENDBRANCH  22  24
ENDBRANCH  17  20
ENDBRANCH  13  14
ENDBRANCH   3  13
BRANCH   7  33
HETATM   33  C   UNL     1      -6.514   9.387  63.790  1.00  0.00    -0.095 C  
HETATM   34  O   UNL     1      -6.400  10.498  64.679  1.00  0.00    -0.294 OA 
HETATM   35  H   UNL     1      -5.805  11.115  64.269  1.00  0.00     0.000 HD 
HETATM   36  C   UNL     1      -7.049   9.867  62.450  1.00  0.00    -0.124 C  
ENDBRANCH   7  33
TORSDOF 5
ENDMDL
MODEL      140
REMARK 921   NORMALIZED FREE ENERGY PREDICTED BY IDOCK:   -5.36 KCAL/MOL
REMARK 922        TOTAL FREE ENERGY PREDICTED BY IDOCK:   -8.61 KCAL/MOL
REMARK 923 INTER-LIGAND FREE ENERGY PREDICTED BY IDOCK:   -7.42 KCAL/MOL
REMARK 924 INTRA-LIGAND FREE ENERGY PREDICTED BY IDOCK:   -1.19 KCAL/MOL
REMARK 927      BINDING AFFINITY PREDICTED BY RF-SCORE:    0.00 PKD
ROOT
HETATM    1  C   UNL     1     -11.043  12.969  68.058  1.00  0.00    -0.260 C  
HETATM    2  C   UNL     1     -10.474  11.548  68.074  1.00  0.00    -0.214 C  
HETATM    3  C   UNL     1     -11.082  10.964  69.333  1.00  0.00    -0.260 C  
HETATM    4  C   UNL     1      -8.953  11.568  68.001  1.00  0.00    -0.170 C  
HETATM    5  O   UNL     1     -11.712  14.784  70.734  1.00  0.00    -0.284 OA 
HETATM    6  C   UNL     1     -11.902  11.854  69.927  1.00  0.00    -0.343 C  
HETATM    7  C   UNL     1     -10.329  14.225  68.652  1.00  0.00    -0.246 C  
HETATM    8  N   UNL     1     -11.976  13.048  69.218  1.00  0.00    -0.302 N  
HETATM    9  C   UNL     1     -12.747  11.631  71.141  1.00  0.00    -0.325 C  
HETATM   10  O   UNL     1     -13.091  10.532  71.546  1.00  0.00    -0.400 OA 
HETATM   11  O   UNL     1     -13.111  12.758  71.793  1.00  0.00    -0.404 OA 
HETATM   12  C   UNL     1     -11.441  14.207  69.704  1.00  0.00    -0.273 C  
ENDROOT
BRANCH   3  13
HETATM   13  S   UNL     1     -10.819   9.298  69.688  1.00  0.00    -0.176 SA 
BRANCH  13  14
HETATM   14  C   UNL     1      -9.935   9.288  71.295  1.00  0.00    -0.271 C  
HETATM   15  C   UNL     1      -8.428   9.079  71.198  1.00  0.00    -0.177 C  
HETATM   16  N   UNL     1      -8.292   7.648  70.990  1.00  0.00    -0.110 NA 
HETATM   17  C   UNL     1      -9.310   6.976  71.830  1.00  0.00    -0.144 C  
HETATM   18  C   UNL     1     -10.382   8.045  72.077  1.00  0.00    -0.298 C  
HETATM   19  H   UNL     1      -7.346   7.309  71.166  1.00  0.00     0.000 HD 
BRANCH  17  20
HETATM   20  C   UNL     1      -9.734   5.650  71.135  1.00  0.00    -0.172 C  
HETATM   21  O   UNL     1     -10.822   5.137  71.402  1.00  0.00    -0.144 OA 
HETATM   22  N   UNL     1      -8.872   5.189  70.149  1.00  0.00    -0.113 N  
HETATM   23  H   UNL     1      -8.047   5.758  69.960  1.00  0.00     0.000 HD 
BRANCH  22  24
HETATM   24  C   UNL     1      -9.018   4.008  69.378  1.00  0.00    -0.108 A  
HETATM   25  C   UNL     1      -9.078   2.722  69.926  1.00  0.00    -0.190 A  
HETATM   26  C   UNL     1      -9.237   1.596  69.112  1.00  0.00    -0.181 A  
HETATM   27  C   UNL     1      -9.327   1.734  67.731  1.00  0.00    -0.174 A  
HETATM   28  C   UNL     1      -9.236   3.010  67.163  1.00  0.00    -0.204 A  
HETATM   29  C   UNL     1      -9.321   3.212  65.696  1.00  0.00    -0.112 C  
HETATM   30  C   UNL     1      -9.104   4.142  67.988  1.00  0.00    -0.172 A  
HETATM   31  O   UNL     1      -8.789   2.205  64.970  1.00  0.00    -0.110 OA 
HETATM   32  O   UNL     1      -9.794   4.218  65.196  1.00  0.00    -0.182 OA 
ENDBRANCH  22  24
ENDBRANCH  17  20
ENDBRANCH  13  14
ENDBRANCH   3  13
BRANCH   7  33
HETATM   33  C   UNL     1     -10.233  15.403  67.704  1.00  0.00    -0.246 C  
HETATM   34  O   UNL     1     -11.177  16.373  68.156  1.00  0.00    -0.346 OA 
HETATM   35  H   UNL     1     -11.116  17.111  67.561  1.00  0.00     0.000 HD 
HETATM   36  C   UNL     1     -10.574  14.996  66.279  1.00  0.00    -0.309 C  
ENDBRANCH   7  33
TORSDOF 5
ENDMDL
MODEL      141
REMARK 921   NORMALIZED FREE ENERGY PREDICTED BY IDOCK:   -5.36 KCAL/MOL
REMARK 922        TOTAL FREE ENERGY PREDICTED BY IDOCK:   -8.61 KCAL/MOL
REMARK 923 INTER-LIGAND FREE ENERGY PREDICTED BY IDOCK:   -6.96 KCAL/MOL
REMARK 924 INTRA-LIGAND FREE ENERGY PREDICTED BY IDOCK:   -1.65 KCAL/MOL
REMARK 927      BINDING AFFINITY PREDICTED BY RF-SCORE:    0.00 PKD
ROOT
HETATM    1  C   UNL     1      -9.737   6.270  68.682  1.00  0.00    -0.127 C  
HETATM    2  C   UNL     1      -9.840   6.759  70.129  1.00  0.00    -0.187 C  
HETATM    3  C   UNL     1     -10.224   8.216  69.958  1.00  0.00    -0.202 C  
HETATM    4  C   UNL     1      -8.551   6.483  70.893  1.00  0.00    -0.135 C  
HETATM    5  O   UNL     1      -8.739   8.097  66.120  1.00  0.00    -0.139 OA 
HETATM    6  C   UNL     1     -10.374   8.521  68.653  1.00  0.00    -0.198 C  
HETATM    7  C   UNL     1      -8.419   6.231  67.844  1.00  0.00    -0.117 C  
HETATM    8  N   UNL     1     -10.151   7.422  67.832  1.00  0.00    -0.169 N  
HETATM    9  C   UNL     1     -10.823   9.828  68.080  1.00  0.00    -0.223 C  
HETATM   10  O   UNL     1     -11.455  10.669  68.699  1.00  0.00    -0.274 OA 
HETATM   11  O   UNL     1     -10.466  10.034  66.793  1.00  0.00    -0.232 OA 
HETATM   12  C   UNL     1      -9.060   7.345  67.013  1.00  0.00    -0.135 C  
ENDROOT
BRANCH   3  13
HETATM   13  S   UNL     1     -10.589   9.150  71.359  1.00  0.00    -0.349 SA 
BRANCH  13  14
HETATM   14  C   UNL     1     -12.261   8.599  71.875  1.00  0.00    -0.355 C  
HETATM   15  C   UNL     1     -13.297   8.559  70.757  1.00  0.00     0.480 C  
HETATM   16  N   UNL     1     -13.685   9.950  70.599  1.00  0.00    -0.403 NA 
HETATM   17  C   UNL     1     -13.741  10.555  71.949  1.00  0.00     0.010 C  
HETATM   18  C   UNL     1     -12.844   9.662  72.816  1.00  0.00     0.255 C  
HETATM   19  H   UNL     1     -14.554  10.064  70.077  1.00  0.00     0.000 HD 
BRANCH  17  20
HETATM   20  C   UNL     1     -13.390  12.066  71.834  1.00  0.00    -0.304 C  
HETATM   21  O   UNL     1     -13.885  12.874  72.622  1.00  0.00    -0.596 OA 
HETATM   22  N   UNL     1     -12.427  12.387  70.887  1.00  0.00    -0.342 N  
HETATM   23  H   UNL     1     -12.028  11.611  70.360  1.00  0.00     0.000 HD 
BRANCH  22  24
HETATM   24  C   UNL     1     -11.939  13.682  70.577  1.00  0.00    -0.280 A  
HETATM   25  C   UNL     1     -12.008  14.771  71.452  1.00  0.00    -0.403 A  
HETATM   26  C   UNL     1     -11.496  16.022  71.092  1.00  0.00    -0.470 A  
HETATM   27  C   UNL     1     -10.917  16.210  69.843  1.00  0.00    -0.362 A  
HETATM   28  C   UNL     1     -10.868  15.141  68.942  1.00  0.00    -0.241 A  
HETATM   29  C   UNL     1     -10.265  15.290  67.595  1.00  0.00    -0.242 C  
HETATM   30  C   UNL     1     -11.359  13.878  69.318  1.00  0.00    -0.321 A  
HETATM   31  O   UNL     1     -10.435  16.513  67.048  1.00  0.00    -0.304 OA 
HETATM   32  O   UNL     1      -9.702  14.374  67.020  1.00  0.00    -0.241 OA 
ENDBRANCH  22  24
ENDBRANCH  17  20
ENDBRANCH  13  14
ENDBRANCH   3  13
BRANCH   7  33
HETATM   33  C   UNL     1      -8.130   4.896  67.187  1.00  0.00    -0.107 C  
HETATM   34  O   UNL     1      -8.734   4.937  65.894  1.00  0.00    -0.121 OA 
HETATM   35  H   UNL     1      -8.553   4.100  65.482  1.00  0.00     0.000 HD 
HETATM   36  C   UNL     1      -8.725   3.746  67.983  1.00  0.00    -0.125 C  
ENDBRANCH   7  33
TORSDOF 5
ENDMDL
MODEL      142
REMARK 921   NORMALIZED FREE ENERGY PREDICTED BY IDOCK:   -5.34 KCAL/MOL
REMARK 922        TOTAL FREE ENERGY PREDICTED BY IDOCK:   -8.59 KCAL/MOL
REMARK 923 INTER-LIGAND FREE ENERGY PREDICTED BY IDOCK:   -7.18 KCAL/MOL
REMARK 924 INTRA-LIGAND FREE ENERGY PREDICTED BY IDOCK:   -1.41 KCAL/MOL
REMARK 927      BINDING AFFINITY PREDICTED BY RF-SCORE:    0.00 PKD
ROOT
HETATM    1  C   UNL     1      -9.279   9.513  65.417  1.00  0.00    -0.247 C  
HETATM    2  C   UNL     1      -9.100  10.202  66.773  1.00  0.00    -0.159 C  
HETATM    3  C   UNL     1      -9.705  11.570  66.530  1.00  0.00    -0.203 C  
HETATM    4  C   UNL     1      -7.642  10.174  67.211  1.00  0.00    -0.095 C  
HETATM    5  O   UNL     1      -9.175  11.024  62.483  1.00  0.00    -0.310 OA 
HETATM    6  C   UNL     1     -10.201  11.659  65.279  1.00  0.00    -0.272 C  
HETATM    7  C   UNL     1      -8.207   9.480  64.283  1.00  0.00    -0.157 C  
HETATM    8  N   UNL     1     -10.035  10.477  64.567  1.00  0.00    -0.336 N  
HETATM    9  C   UNL     1     -10.944  12.813  64.685  1.00  0.00    -0.327 C  
HETATM   10  O   UNL     1     -11.518  13.670  65.338  1.00  0.00    -0.305 OA 
HETATM   11  O   UNL     1     -10.935  12.858  63.334  1.00  0.00    -0.310 OA 
HETATM   12  C   UNL     1      -9.170  10.387  63.514  1.00  0.00    -0.282 C  
ENDROOT
BRANCH   3  13
HETATM   13  S   UNL     1      -9.848  12.663  67.854  1.00  0.00    -0.224 SA 
BRANCH  13  14
HETATM   14  C   UNL     1     -11.642  12.714  68.236  1.00  0.00    -0.332 C  
HETATM   15  C   UNL     1     -11.991  13.298  69.600  1.00  0.00    -0.314 C  
HETATM   16  N   UNL     1     -11.714  12.210  70.522  1.00  0.00    -0.482 NA 
HETATM   17  C   UNL     1     -12.143  10.952  69.869  1.00  0.00    -0.354 C  
HETATM   18  C   UNL     1     -12.142  11.269  68.368  1.00  0.00    -0.110 C  
HETATM   19  H   UNL     1     -12.140  12.347  71.439  1.00  0.00     0.000 HD 
BRANCH  17  20
HETATM   20  C   UNL     1     -11.243   9.792  70.381  1.00  0.00    -0.300 C  
HETATM   21  O   UNL     1     -11.206   9.528  71.585  1.00  0.00    -0.378 OA 
HETATM   22  N   UNL     1     -10.613   9.043  69.396  1.00  0.00    -0.228 N  
HETATM   23  H   UNL     1     -10.800   9.310  68.430  1.00  0.00     0.000 HD 
BRANCH  22  24
HETATM   24  C   UNL     1      -9.736   7.947  69.594  1.00  0.00    -0.173 A  
HETATM   25  C   UNL     1     -10.073   6.619  69.311  1.00  0.00    -0.187 A  
HETATM   26  C   UNL     1      -9.158   5.581  69.515  1.00  0.00    -0.143 A  
HETATM   27  C   UNL     1      -7.890   5.851  70.019  1.00  0.00    -0.100 A  
HETATM   28  C   UNL     1      -7.547   7.169  70.338  1.00  0.00    -0.089 A  
HETATM   29  C   UNL     1      -6.210   7.511  70.883  1.00  0.00    -0.035 C  
HETATM   30  C   UNL     1      -8.461   8.213  70.105  1.00  0.00    -0.127 A  
HETATM   31  O   UNL     1      -5.678   6.556  71.676  1.00  0.00    -0.034 OA 
HETATM   32  O   UNL     1      -5.663   8.578  70.664  1.00  0.00    -0.028 OA 
ENDBRANCH  22  24
ENDBRANCH  17  20
ENDBRANCH  13  14
ENDBRANCH   3  13
BRANCH   7  33
HETATM   33  C   UNL     1      -7.906   8.097  63.740  1.00  0.00    -0.147 C  
HETATM   34  O   UNL     1      -8.716   7.182  64.477  1.00  0.00    -0.331 OA 
HETATM   35  H   UNL     1      -8.528   6.315  64.137  1.00  0.00     0.000 HD 
HETATM   36  C   UNL     1      -6.441   7.735  63.927  1.00  0.00    -0.058 C  
ENDBRANCH   7  33
TORSDOF 5
ENDMDL
MODEL      143
REMARK 921   NORMALIZED FREE ENERGY PREDICTED BY IDOCK:   -5.32 KCAL/MOL
REMARK 922        TOTAL FREE ENERGY PREDICTED BY IDOCK:   -8.56 KCAL/MOL
REMARK 923 INTER-LIGAND FREE ENERGY PREDICTED BY IDOCK:   -7.40 KCAL/MOL
REMARK 924 INTRA-LIGAND FREE ENERGY PREDICTED BY IDOCK:   -1.16 KCAL/MOL
REMARK 927      BINDING AFFINITY PREDICTED BY RF-SCORE:    0.00 PKD
ROOT
HETATM    1  C   UNL     1      -9.960   5.391  69.735  1.00  0.00    -0.224 C  
HETATM    2  C   UNL     1     -10.063   6.492  68.676  1.00  0.00    -0.175 C  
HETATM    3  C   UNL     1      -8.825   6.256  67.834  1.00  0.00    -0.112 C  
HETATM    4  C   UNL     1     -10.189   7.864  69.324  1.00  0.00    -0.216 C  
HETATM    5  O   UNL     1      -7.144   4.205  70.984  1.00  0.00    -0.035 OA 
HETATM    6  C   UNL     1      -8.142   5.181  68.278  1.00  0.00    -0.087 C  
HETATM    7  C   UNL     1      -9.308   5.565  71.143  1.00  0.00    -0.181 C  
HETATM    8  N   UNL     1      -8.764   4.582  69.367  1.00  0.00    -0.084 N  
HETATM    9  C   UNL     1      -6.916   4.578  67.669  1.00  0.00    -0.060 C  
HETATM   10  O   UNL     1      -6.574   4.740  66.509  1.00  0.00    -0.044 OA 
HETATM   11  O   UNL     1      -6.176   3.825  68.513  1.00  0.00    -0.030 OA 
HETATM   12  C   UNL     1      -8.220   4.625  70.619  1.00  0.00    -0.083 C  
ENDROOT
BRANCH   3  13
HETATM   13  S   UNL     1      -8.595   7.198  66.410  1.00  0.00    -0.140 SA 
BRANCH  13  14
HETATM   14  C   UNL     1      -6.977   8.030  66.647  1.00  0.00    -0.072 C  
HETATM   15  C   UNL     1      -6.629   8.357  68.094  1.00  0.00    -0.061 C  
HETATM   16  N   UNL     1      -7.407   9.551  68.374  1.00  0.00    -0.076 NA 
HETATM   17  C   UNL     1      -7.381  10.396  67.158  1.00  0.00    -0.092 C  
HETATM   18  C   UNL     1      -7.062   9.426  66.014  1.00  0.00    -0.091 C  
HETATM   19  H   UNL     1      -7.090  10.046  69.208  1.00  0.00     0.000 HD 
BRANCH  17  20
HETATM   20  C   UNL     1      -8.704  11.211  67.089  1.00  0.00    -0.141 C  
HETATM   21  O   UNL     1      -9.305  11.496  68.127  1.00  0.00    -0.171 OA 
HETATM   22  N   UNL     1      -9.061  11.667  65.828  1.00  0.00    -0.360 N  
HETATM   23  H   UNL     1      -8.427  11.439  65.063  1.00  0.00     0.000 HD 
BRANCH  22  24
HETATM   24  C   UNL     1     -10.217  12.417  65.492  1.00  0.00    -0.274 A  
HETATM   25  C   UNL     1     -11.490  11.859  65.333  1.00  0.00    -0.310 A  
HETATM   26  C   UNL     1     -12.595  12.655  65.013  1.00  0.00    -0.504 A  
HETATM   27  C   UNL     1     -12.443  14.025  64.834  1.00  0.00    -0.419 A  
HETATM   28  C   UNL     1     -11.172  14.597  64.957  1.00  0.00    -0.388 A  
HETATM   29  C   UNL     1     -10.957  16.053  64.771  1.00  0.00    -0.356 C  
HETATM   30  C   UNL     1     -10.070  13.797  65.305  1.00  0.00    -0.312 A  
HETATM   31  O   UNL     1     -11.769  16.616  63.851  1.00  0.00    -1.153 OA 
HETATM   32  O   UNL     1     -10.094  16.672  65.368  1.00  0.00    -0.578 OA 
ENDBRANCH  22  24
ENDBRANCH  17  20
ENDBRANCH  13  14
ENDBRANCH   3  13
BRANCH   7  33
HETATM   33  C   UNL     1     -10.177   5.112  72.300  1.00  0.00    -0.202 C  
HETATM   34  O   UNL     1     -10.173   3.685  72.282  1.00  0.00    -0.165 OA 
HETATM   35  H   UNL     1     -10.718   3.401  73.007  1.00  0.00     0.000 HD 
HETATM   36  C   UNL     1     -11.605   5.612  72.149  1.00  0.00    -0.202 C  
ENDBRANCH   7  33
TORSDOF 5
ENDMDL
MODEL      144
REMARK 921   NORMALIZED FREE ENERGY PREDICTED BY IDOCK:   -5.30 KCAL/MOL
REMARK 922        TOTAL FREE ENERGY PREDICTED BY IDOCK:   -8.53 KCAL/MOL
REMARK 923 INTER-LIGAND FREE ENERGY PREDICTED BY IDOCK:   -7.49 KCAL/MOL
REMARK 924 INTRA-LIGAND FREE ENERGY PREDICTED BY IDOCK:   -1.04 KCAL/MOL
REMARK 927      BINDING AFFINITY PREDICTED BY RF-SCORE:    0.00 PKD
ROOT
HETATM    1  C   UNL     1      -7.719  13.541  67.473  1.00  0.00    -0.175 C  
HETATM    2  C   UNL     1      -8.954  12.711  67.114  1.00  0.00    -0.205 C  
HETATM    3  C   UNL     1      -9.938  13.768  66.653  1.00  0.00    -0.279 C  
HETATM    4  C   UNL     1      -9.390  11.845  68.288  1.00  0.00    -0.193 C  
HETATM    5  O   UNL     1      -7.772  16.601  68.709  1.00  0.00    -0.209 OA 
HETATM    6  C   UNL     1      -9.374  14.992  66.681  1.00  0.00    -0.266 C  
HETATM    7  C   UNL     1      -7.387  14.077  68.902  1.00  0.00    -0.113 C  
HETATM    8  N   UNL     1      -8.052  14.947  67.108  1.00  0.00    -0.210 N  
HETATM    9  C   UNL     1      -9.989  16.278  66.228  1.00  0.00    -0.317 C  
HETATM   10  O   UNL     1     -10.925  16.355  65.448  1.00  0.00    -0.271 OA 
HETATM   11  O   UNL     1      -9.435  17.390  66.761  1.00  0.00    -0.255 OA 
HETATM   12  C   UNL     1      -7.667  15.462  68.313  1.00  0.00    -0.115 C  
ENDROOT
BRANCH   3  13
HETATM   13  S   UNL     1     -11.456  13.266  66.009  1.00  0.00    -0.344 SA 
BRANCH  13  14
HETATM   14  C   UNL     1     -11.320  13.545  64.201  1.00  0.00    -0.340 C  
HETATM   15  C   UNL     1     -12.273  12.713  63.350  1.00  0.00    -0.517 C  
HETATM   16  N   UNL     1     -11.642  11.405  63.306  1.00  0.00    -0.848 NA 
HETATM   17  C   UNL     1     -10.181  11.617  63.196  1.00  0.00    -0.354 C  
HETATM   18  C   UNL     1      -9.948  13.032  63.741  1.00  0.00     0.513 C  
HETATM   19  H   UNL     1     -12.013  10.809  62.566  1.00  0.00     0.000 HD 
BRANCH  17  20
HETATM   20  C   UNL     1      -9.451  10.429  63.885  1.00  0.00    -0.304 C  
HETATM   21  O   UNL     1      -8.371  10.032  63.443  1.00  0.00    -0.148 OA 
HETATM   22  N   UNL     1     -10.037   9.962  65.054  1.00  0.00    -0.346 N  
HETATM   23  H   UNL     1     -10.884  10.440  65.362  1.00  0.00     0.000 HD 
BRANCH  22  24
HETATM   24  C   UNL     1      -9.583   8.890  65.863  1.00  0.00    -0.223 A  
HETATM   25  C   UNL     1      -8.550   8.021  65.495  1.00  0.00    -0.158 A  
HETATM   26  C   UNL     1      -8.137   6.989  66.344  1.00  0.00    -0.112 A  
HETATM   27  C   UNL     1      -8.759   6.799  67.573  1.00  0.00    -0.119 A  
HETATM   28  C   UNL     1      -9.815   7.638  67.943  1.00  0.00    -0.190 A  
HETATM   29  C   UNL     1     -10.516   7.476  69.240  1.00  0.00    -0.214 C  
HETATM   30  C   UNL     1     -10.209   8.692  67.098  1.00  0.00    -0.353 A  
HETATM   31  O   UNL     1     -10.607   6.195  69.660  1.00  0.00    -0.224 OA 
HETATM   32  O   UNL     1     -11.000   8.414  69.850  1.00  0.00    -0.239 OA 
ENDBRANCH  22  24
ENDBRANCH  17  20
ENDBRANCH  13  14
ENDBRANCH   3  13
BRANCH   7  33
HETATM   33  C   UNL     1      -5.988  13.754  69.387  1.00  0.00    -0.101 C  
HETATM   34  O   UNL     1      -5.740  12.390  69.045  1.00  0.00    -0.062 OA 
HETATM   35  H   UNL     1      -4.863  12.187  69.349  1.00  0.00     0.000 HD 
HETATM   36  C   UNL     1      -5.871  13.923  70.894  1.00  0.00    -0.199 C  
ENDBRANCH   7  33
TORSDOF 5
ENDMDL
MODEL      145
REMARK 921   NORMALIZED FREE ENERGY PREDICTED BY IDOCK:   -5.27 KCAL/MOL
REMARK 922        TOTAL FREE ENERGY PREDICTED BY IDOCK:   -8.50 KCAL/MOL
REMARK 923 INTER-LIGAND FREE ENERGY PREDICTED BY IDOCK:   -7.35 KCAL/MOL
REMARK 924 INTRA-LIGAND FREE ENERGY PREDICTED BY IDOCK:   -1.15 KCAL/MOL
REMARK 927      BINDING AFFINITY PREDICTED BY RF-SCORE:    0.00 PKD
ROOT
HETATM    1  C   UNL     1     -11.195   7.116  70.343  1.00  0.00    -0.287 C  
HETATM    2  C   UNL     1     -10.851   8.366  69.527  1.00  0.00    -0.126 C  
HETATM    3  C   UNL     1     -10.332   7.779  68.230  1.00  0.00    -0.198 C  
HETATM    4  C   UNL     1      -9.895   9.271  70.292  1.00  0.00    -0.265 C  
HETATM    5  O   UNL     1      -9.581   4.240  70.195  1.00  0.00    -0.164 OA 
HETATM    6  C   UNL     1     -10.404   6.433  68.249  1.00  0.00    -0.191 C  
HETATM    7  C   UNL     1     -10.236   6.423  71.362  1.00  0.00    -0.228 C  
HETATM    8  N   UNL     1     -10.944   5.958  69.439  1.00  0.00    -0.362 N  
HETATM    9  C   UNL     1     -10.064   5.496  67.134  1.00  0.00    -0.188 C  
HETATM   10  O   UNL     1     -10.025   5.815  65.957  1.00  0.00    -0.075 OA 
HETATM   11  O   UNL     1      -9.783   4.232  67.522  1.00  0.00    -0.178 OA 
HETATM   12  C   UNL     1     -10.189   5.276  70.350  1.00  0.00    -0.268 C  
ENDROOT
BRANCH   3  13
HETATM   13  S   UNL     1      -9.946   8.844  66.931  1.00  0.00    -0.272 SA 
BRANCH  13  14
HETATM   14  C   UNL     1      -8.157   8.587  66.620  1.00  0.00    -0.104 C  
HETATM   15  C   UNL     1      -7.317   8.342  67.869  1.00  0.00    -0.096 C  
HETATM   16  N   UNL     1      -7.140   9.671  68.429  1.00  0.00    -0.070 NA 
HETATM   17  C   UNL     1      -6.945  10.610  67.301  1.00  0.00    -0.084 C  
HETATM   18  C   UNL     1      -7.570   9.903  66.091  1.00  0.00    -0.104 C  
HETATM   19  H   UNL     1      -6.387   9.715  69.117  1.00  0.00     0.000 HD 
BRANCH  17  20
HETATM   20  C   UNL     1      -7.499  12.004  67.711  1.00  0.00    -0.121 C  
HETATM   21  O   UNL     1      -6.744  12.846  68.200  1.00  0.00    -0.075 OA 
HETATM   22  N   UNL     1      -8.827  12.242  67.381  1.00  0.00    -0.176 N  
HETATM   23  H   UNL     1      -9.318  11.493  66.894  1.00  0.00     0.000 HD 
BRANCH  22  24
HETATM   24  C   UNL     1      -9.571  13.418  67.651  1.00  0.00    -0.219 A  
HETATM   25  C   UNL     1     -10.521  13.522  68.673  1.00  0.00    -0.242 A  
HETATM   26  C   UNL     1     -11.214  14.716  68.898  1.00  0.00    -0.285 A  
HETATM   27  C   UNL     1     -10.979  15.826  68.094  1.00  0.00    -0.330 A  
HETATM   28  C   UNL     1     -10.056  15.731  67.047  1.00  0.00    -0.261 A  
HETATM   29  C   UNL     1      -9.772  16.884  66.158  1.00  0.00    -0.272 C  
HETATM   30  C   UNL     1      -9.341  14.537  66.842  1.00  0.00    -0.258 A  
HETATM   31  O   UNL     1     -10.839  17.681  65.933  1.00  0.00    -0.208 OA 
HETATM   32  O   UNL     1      -8.681  17.069  65.648  1.00  0.00    -0.468 OA 
ENDBRANCH  22  24
ENDBRANCH  17  20
ENDBRANCH  13  14
ENDBRANCH   3  13
BRANCH   7  33
HETATM   33  C   UNL     1     -10.843   6.174  72.729  1.00  0.00    -0.250 C  
HETATM   34  O   UNL     1     -12.258   6.280  72.574  1.00  0.00    -0.529 OA 
HETATM   35  H   UNL     1     -12.639   6.124  73.431  1.00  0.00     0.000 HD 
HETATM   36  C   UNL     1     -10.369   7.205  73.742  1.00  0.00    -0.390 C  
ENDBRANCH   7  33
TORSDOF 5
ENDMDL
MODEL      146
REMARK 921   NORMALIZED FREE ENERGY PREDICTED BY IDOCK:   -5.27 KCAL/MOL
REMARK 922        TOTAL FREE ENERGY PREDICTED BY IDOCK:   -8.49 KCAL/MOL
REMARK 923 INTER-LIGAND FREE ENERGY PREDICTED BY IDOCK:   -7.82 KCAL/MOL
REMARK 924 INTRA-LIGAND FREE ENERGY PREDICTED BY IDOCK:   -0.67 KCAL/MOL
REMARK 927      BINDING AFFINITY PREDICTED BY RF-SCORE:    0.00 PKD
ROOT
HETATM    1  C   UNL     1      -9.906   5.529  70.725  1.00  0.00    -0.188 C  
HETATM    2  C   UNL     1      -9.482   6.963  71.051  1.00  0.00    -0.163 C  
HETATM    3  C   UNL     1      -9.615   7.659  69.712  1.00  0.00    -0.163 C  
HETATM    4  C   UNL     1      -8.102   6.991  71.695  1.00  0.00    -0.103 C  
HETATM    5  O   UNL     1      -9.384   3.996  67.848  1.00  0.00    -0.146 OA 
HETATM    6  C   UNL     1     -10.083   6.810  68.775  1.00  0.00    -0.160 C  
HETATM    7  C   UNL     1      -8.928   4.374  70.340  1.00  0.00    -0.145 C  
HETATM    8  N   UNL     1     -10.327   5.544  69.295  1.00  0.00    -0.250 N  
HETATM    9  C   UNL     1     -10.425   7.134  67.355  1.00  0.00    -0.284 C  
HETATM   10  O   UNL     1     -10.674   8.258  66.948  1.00  0.00    -0.299 OA 
HETATM   11  O   UNL     1     -10.433   6.073  66.518  1.00  0.00    -0.211 OA 
HETATM   12  C   UNL     1      -9.563   4.466  68.950  1.00  0.00    -0.163 C  
ENDROOT
BRANCH   3  13
HETATM   13  S   UNL     1      -9.365   9.363  69.631  1.00  0.00    -0.203 SA 
BRANCH  13  14
HETATM   14  C   UNL     1      -7.573   9.565  69.295  1.00  0.00    -0.084 C  
HETATM   15  C   UNL     1      -6.873  10.612  70.153  1.00  0.00    -0.113 C  
HETATM   16  N   UNL     1      -7.243  11.871  69.531  1.00  0.00    -0.339 NA 
HETATM   17  C   UNL     1      -7.241  11.662  68.065  1.00  0.00    -0.083 C  
HETATM   18  C   UNL     1      -7.417  10.149  67.884  1.00  0.00    -0.088 C  
HETATM   19  H   UNL     1      -6.650  12.648  69.822  1.00  0.00     0.000 HD 
BRANCH  17  20
HETATM   20  C   UNL     1      -8.293  12.612  67.424  1.00  0.00    -0.184 C  
HETATM   21  O   UNL     1      -8.349  13.792  67.774  1.00  0.00    -0.153 OA 
HETATM   22  N   UNL     1      -9.042  12.065  66.391  1.00  0.00    -0.251 N  
HETATM   23  H   UNL     1      -8.834  11.100  66.136  1.00  0.00     0.000 HD 
BRANCH  22  24
HETATM   24  C   UNL     1     -10.067  12.709  65.652  1.00  0.00    -0.272 A  
HETATM   25  C   UNL     1     -11.037  12.028  64.909  1.00  0.00    -0.368 A  
HETATM   26  C   UNL     1     -12.033  12.720  64.212  1.00  0.00    -0.473 A  
HETATM   27  C   UNL     1     -12.067  14.110  64.234  1.00  0.00    -0.471 A  
HETATM   28  C   UNL     1     -11.086  14.809  64.945  1.00  0.00    -0.416 A  
HETATM   29  C   UNL     1     -11.076  16.292  64.997  1.00  0.00    -0.254 C  
HETATM   30  C   UNL     1     -10.104  14.108  65.668  1.00  0.00    -0.350 A  
HETATM   31  O   UNL     1     -11.519  16.885  63.868  1.00  0.00    -0.987 OA 
HETATM   32  O   UNL     1     -10.664  16.914  65.961  1.00  0.00    -0.250 OA 
ENDBRANCH  22  24
ENDBRANCH  17  20
ENDBRANCH  13  14
ENDBRANCH   3  13
BRANCH   7  33
HETATM   33  C   UNL     1      -9.106   3.103  71.146  1.00  0.00    -0.112 C  
HETATM   34  O   UNL     1      -9.188   2.030  70.209  1.00  0.00    -0.088 OA 
HETATM   35  H   UNL     1      -9.299   1.233  70.715  1.00  0.00     0.000 HD 
HETATM   36  C   UNL     1     -10.381   3.145  71.974  1.00  0.00    -0.008 C  
ENDBRANCH   7  33
TORSDOF 5
ENDMDL
MODEL      147
REMARK 921   NORMALIZED FREE ENERGY PREDICTED BY IDOCK:   -5.22 KCAL/MOL
REMARK 922        TOTAL FREE ENERGY PREDICTED BY IDOCK:   -8.42 KCAL/MOL
REMARK 923 INTER-LIGAND FREE ENERGY PREDICTED BY IDOCK:   -7.35 KCAL/MOL
REMARK 924 INTRA-LIGAND FREE ENERGY PREDICTED BY IDOCK:   -1.07 KCAL/MOL
REMARK 927      BINDING AFFINITY PREDICTED BY RF-SCORE:    0.00 PKD
ROOT
HETATM    1  C   UNL     1      -8.337   8.006  67.116  1.00  0.00    -0.121 C  
HETATM    2  C   UNL     1      -9.623   8.151  67.933  1.00  0.00    -0.179 C  
HETATM    3  C   UNL     1      -9.948   6.715  68.294  1.00  0.00    -0.144 C  
HETATM    4  C   UNL     1     -10.686   8.910  67.151  1.00  0.00    -0.203 C  
HETATM    5  O   UNL     1      -7.606   5.455  65.151  1.00  0.00    -0.075 OA 
HETATM    6  C   UNL     1      -9.002   5.877  67.824  1.00  0.00    -0.111 C  
HETATM    7  C   UNL     1      -8.276   7.893  65.559  1.00  0.00    -0.140 C  
HETATM    8  N   UNL     1      -7.990   6.557  67.156  1.00  0.00    -0.111 N  
HETATM    9  C   UNL     1      -8.920   4.399  68.038  1.00  0.00    -0.119 C  
HETATM   10  O   UNL     1      -9.475   3.806  68.949  1.00  0.00    -0.158 OA 
HETATM   11  O   UNL     1      -8.177   3.735  67.126  1.00  0.00    -0.094 OA 
HETATM   12  C   UNL     1      -7.823   6.452  65.805  1.00  0.00    -0.104 C  
ENDROOT
BRANCH   3  13
HETATM   13  S   UNL     1     -11.272   6.403  69.353  1.00  0.00    -0.362 SA 
BRANCH  13  14
HETATM   14  C   UNL     1     -10.545   6.405  71.036  1.00  0.00    -0.234 C  
HETATM   15  C   UNL     1     -11.546   6.206  72.168  1.00  0.00    -0.317 C  
HETATM   16  N   UNL     1     -12.164   7.513  72.314  1.00  0.00    -0.474 NA 
HETATM   17  C   UNL     1     -11.106   8.531  72.127  1.00  0.00    -0.366 C  
HETATM   18  C   UNL     1     -10.012   7.816  71.323  1.00  0.00    -0.199 C  
HETATM   19  H   UNL     1     -12.665   7.619  73.197  1.00  0.00     0.000 HD 
BRANCH  17  20
HETATM   20  C   UNL     1     -11.748   9.813  71.525  1.00  0.00    -0.375 C  
HETATM   21  O   UNL     1     -12.819  10.231  71.969  1.00  0.00    -0.417 OA 
HETATM   22  N   UNL     1     -10.984  10.476  70.573  1.00  0.00    -0.433 N  
HETATM   23  H   UNL     1     -10.071  10.074  70.360  1.00  0.00     0.000 HD 
BRANCH  22  24
HETATM   24  C   UNL     1     -11.340  11.653  69.868  1.00  0.00    -0.150 A  
HETATM   25  C   UNL     1     -11.259  11.781  68.477  1.00  0.00    -0.306 A  
HETATM   26  C   UNL     1     -11.639  12.966  67.836  1.00  0.00    -0.391 A  
HETATM   27  C   UNL     1     -12.095  14.050  68.579  1.00  0.00    -0.329 A  
HETATM   28  C   UNL     1     -12.151  13.951  69.973  1.00  0.00    -0.411 A  
HETATM   29  C   UNL     1     -12.624  15.079  70.811  1.00  0.00    -0.370 C  
HETATM   30  C   UNL     1     -11.795  12.748  70.610  1.00  0.00    -0.026 A  
HETATM   31  O   UNL     1     -12.313  16.298  70.320  1.00  0.00    -0.045 OA 
HETATM   32  O   UNL     1     -13.207  14.914  71.869  1.00  0.00    -0.310 OA 
ENDBRANCH  22  24
ENDBRANCH  17  20
ENDBRANCH  13  14
ENDBRANCH   3  13
BRANCH   7  33
HETATM   33  C   UNL     1      -7.319   8.862  64.894  1.00  0.00    -0.093 C  
HETATM   34  O   UNL     1      -6.030   8.250  64.924  1.00  0.00    -0.045 OA 
HETATM   35  H   UNL     1      -5.430   8.858  64.507  1.00  0.00     0.000 HD 
HETATM   36  C   UNL     1      -7.264  10.186  65.640  1.00  0.00    -0.137 C  
ENDBRANCH   7  33
TORSDOF 5
ENDMDL
MODEL      148
REMARK 921   NORMALIZED FREE ENERGY PREDICTED BY IDOCK:   -5.19 KCAL/MOL
REMARK 922        TOTAL FREE ENERGY PREDICTED BY IDOCK:   -8.39 KCAL/MOL
REMARK 923 INTER-LIGAND FREE ENERGY PREDICTED BY IDOCK:   -6.63 KCAL/MOL
REMARK 924 INTRA-LIGAND FREE ENERGY PREDICTED BY IDOCK:   -1.77 KCAL/MOL
REMARK 927      BINDING AFFINITY PREDICTED BY RF-SCORE:    0.00 PKD
ROOT
HETATM    1  C   UNL     1      -9.340   5.760  71.311  1.00  0.00    -0.146 C  
HETATM    2  C   UNL     1      -9.072   4.693  70.246  1.00  0.00    -0.164 C  
HETATM    3  C   UNL     1      -9.525   5.378  68.972  1.00  0.00    -0.133 C  
HETATM    4  C   UNL     1      -9.767   3.385  70.597  1.00  0.00    -0.176 C  
HETATM    5  O   UNL     1     -11.809   7.950  71.235  1.00  0.00    -0.288 OA 
HETATM    6  C   UNL     1      -9.936   6.637  69.225  1.00  0.00    -0.158 C  
HETATM    7  C   UNL     1     -10.645   5.866  72.161  1.00  0.00    -0.264 C  
HETATM    8  N   UNL     1      -9.818   6.963  70.571  1.00  0.00    -0.179 N  
HETATM    9  C   UNL     1     -10.381   7.658  68.226  1.00  0.00    -0.198 C  
HETATM   10  O   UNL     1     -10.096   7.627  67.039  1.00  0.00    -0.214 OA 
HETATM   11  O   UNL     1     -11.153   8.646  68.731  1.00  0.00     0.068 OA 
HETATM   12  C   UNL     1     -10.913   7.145  71.366  1.00  0.00    -0.234 C  
ENDROOT
BRANCH   3  13
HETATM   13  S   UNL     1      -9.275   4.580  67.465  1.00  0.00    -0.147 SA 
BRANCH  13  14
HETATM   14  C   UNL     1      -7.460   4.623  67.201  1.00  0.00    -0.085 C  
HETATM   15  C   UNL     1      -6.733   5.754  67.919  1.00  0.00    -0.058 C  
HETATM   16  N   UNL     1      -6.992   6.914  67.085  1.00  0.00    -0.072 NA 
HETATM   17  C   UNL     1      -6.936   6.471  65.673  1.00  0.00    -0.057 C  
HETATM   18  C   UNL     1      -7.202   4.961  65.726  1.00  0.00    -0.076 C  
HETATM   19  H   UNL     1      -6.363   7.693  67.282  1.00  0.00     0.000 HD 
BRANCH  17  20
HETATM   20  C   UNL     1      -7.894   7.362  64.832  1.00  0.00    -0.125 C  
HETATM   21  O   UNL     1      -8.586   6.856  63.947  1.00  0.00     0.242 OA 
HETATM   22  N   UNL     1      -7.982   8.689  65.231  1.00  0.00    -0.107 N  
HETATM   23  H   UNL     1      -7.423   8.961  66.039  1.00  0.00     0.000 HD 
BRANCH  22  24
HETATM   24  C   UNL     1      -8.767   9.706  64.631  1.00  0.00    -0.201 A  
HETATM   25  C   UNL     1      -8.672  10.071  63.283  1.00  0.00    -0.223 A  
HETATM   26  C   UNL     1      -9.486  11.074  62.746  1.00  0.00    -0.361 A  
HETATM   27  C   UNL     1     -10.401  11.741  63.552  1.00  0.00    -0.490 A  
HETATM   28  C   UNL     1     -10.488  11.413  64.909  1.00  0.00    -0.363 A  
HETATM   29  C   UNL     1     -11.444  12.097  65.813  1.00  0.00    -0.361 C  
HETATM   30  C   UNL     1      -9.688  10.384  65.438  1.00  0.00    -0.325 A  
HETATM   31  O   UNL     1     -11.658  13.395  65.507  1.00  0.00    -0.313 OA 
HETATM   32  O   UNL     1     -11.959  11.543  66.769  1.00  0.00    -0.470 OA 
ENDBRANCH  22  24
ENDBRANCH  17  20
ENDBRANCH  13  14
ENDBRANCH   3  13
BRANCH   7  33
HETATM   33  C   UNL     1     -10.417   5.963  73.657  1.00  0.00    -0.265 C  
HETATM   34  O   UNL     1     -10.876   7.253  74.059  1.00  0.00    -0.556 OA 
HETATM   35  H   UNL     1     -10.733   7.314  74.996  1.00  0.00     0.000 HD 
HETATM   36  C   UNL     1      -8.943   5.823  74.002  1.00  0.00    -0.126 C  
ENDBRANCH   7  33
TORSDOF 5
ENDMDL
MODEL      149
REMARK 921   NORMALIZED FREE ENERGY PREDICTED BY IDOCK:   -5.19 KCAL/MOL
REMARK 922        TOTAL FREE ENERGY PREDICTED BY IDOCK:   -8.39 KCAL/MOL
REMARK 923 INTER-LIGAND FREE ENERGY PREDICTED BY IDOCK:   -7.40 KCAL/MOL
REMARK 924 INTRA-LIGAND FREE ENERGY PREDICTED BY IDOCK:   -0.98 KCAL/MOL
REMARK 927      BINDING AFFINITY PREDICTED BY RF-SCORE:    0.00 PKD
ROOT
HETATM    1  C   UNL     1     -10.766   8.765  68.588  1.00  0.00    -0.068 C  
HETATM    2  C   UNL     1     -10.187   9.916  67.761  1.00  0.00    -0.241 C  
HETATM    3  C   UNL     1      -9.423   9.187  66.673  1.00  0.00    -0.185 C  
HETATM    4  C   UNL     1      -9.380  10.865  68.636  1.00  0.00    -0.188 C  
HETATM    5  O   UNL     1      -9.308   5.843  69.072  1.00  0.00    -0.122 OA 
HETATM    6  C   UNL     1      -9.566   7.852  66.799  1.00  0.00    -0.215 C  
HETATM    7  C   UNL     1     -10.095   8.150  69.857  1.00  0.00    -0.195 C  
HETATM    8  N   UNL     1     -10.380   7.515  67.874  1.00  0.00    -0.200 N  
HETATM    9  C   UNL     1      -9.035   6.798  65.880  1.00  0.00    -0.070 C  
HETATM   10  O   UNL     1      -8.719   6.996  64.718  1.00  0.00     0.131 OA 
HETATM   11  O   UNL     1      -8.912   5.572  66.435  1.00  0.00    -0.124 OA 
HETATM   12  C   UNL     1      -9.882   6.907  68.991  1.00  0.00    -0.152 C  
ENDROOT
BRANCH   3  13
HETATM   13  S   UNL     1      -8.704  10.105  65.404  1.00  0.00    -0.172 SA 
BRANCH  13  14
HETATM   14  C   UNL     1     -10.012  10.255  64.127  1.00  0.00    -0.176 C  
HETATM   15  C   UNL     1      -9.582  10.965  62.848  1.00  0.00    -0.344 C  
HETATM   16  N   UNL     1      -9.618  12.372  63.207  1.00  0.00    -0.534 NA 
HETATM   17  C   UNL     1     -10.796  12.581  64.081  1.00  0.00    -0.382 C  
HETATM   18  C   UNL     1     -11.099  11.196  64.667  1.00  0.00    -0.154 C  
HETATM   19  H   UNL     1      -9.612  12.990  62.395  1.00  0.00     0.000 HD 
BRANCH  17  20
HETATM   20  C   UNL     1     -10.489  13.748  65.061  1.00  0.00    -0.402 C  
HETATM   21  O   UNL     1     -11.222  14.739  65.086  1.00  0.00    -0.346 OA 
HETATM   22  N   UNL     1      -9.439  13.530  65.943  1.00  0.00    -0.499 N  
HETATM   23  H   UNL     1      -8.969  12.627  65.879  1.00  0.00     0.000 HD 
BRANCH  22  24
HETATM   24  C   UNL     1      -8.951  14.431  66.922  1.00  0.00    -0.243 A  
HETATM   25  C   UNL     1      -9.375  15.760  67.039  1.00  0.00    -0.235 A  
HETATM   26  C   UNL     1      -8.865  16.597  68.037  1.00  0.00    -0.206 A  
HETATM   27  C   UNL     1      -7.911  16.123  68.930  1.00  0.00    -0.213 A  
HETATM   28  C   UNL     1      -7.451  14.807  68.809  1.00  0.00    -0.133 A  
HETATM   29  C   UNL     1      -6.431  14.255  69.733  1.00  0.00    -0.142 C  
HETATM   30  C   UNL     1      -7.987  13.961  67.822  1.00  0.00    -0.174 A  
HETATM   31  O   UNL     1      -5.521  15.160  70.153  1.00  0.00    -0.112 OA 
HETATM   32  O   UNL     1      -6.399  13.079  70.051  1.00  0.00    -0.098 OA 
ENDBRANCH  22  24
ENDBRANCH  17  20
ENDBRANCH  13  14
ENDBRANCH   3  13
BRANCH   7  33
HETATM   33  C   UNL     1     -11.002   8.057  71.067  1.00  0.00    -0.241 C  
HETATM   34  O   UNL     1     -12.202   7.418  70.632  1.00  0.00    -0.515 OA 
HETATM   35  H   UNL     1     -12.771   7.360  71.391  1.00  0.00     0.000 HD 
HETATM   36  C   UNL     1     -11.338   9.436  71.616  1.00  0.00    -0.452 C  
ENDBRANCH   7  33
TORSDOF 5
ENDMDL
MODEL      150
REMARK 921   NORMALIZED FREE ENERGY PREDICTED BY IDOCK:   -5.15 KCAL/MOL
REMARK 922        TOTAL FREE ENERGY PREDICTED BY IDOCK:   -8.34 KCAL/MOL
REMARK 923 INTER-LIGAND FREE ENERGY PREDICTED BY IDOCK:   -6.50 KCAL/MOL
REMARK 924 INTRA-LIGAND FREE ENERGY PREDICTED BY IDOCK:   -1.85 KCAL/MOL
REMARK 927      BINDING AFFINITY PREDICTED BY RF-SCORE:    0.00 PKD
ROOT
HETATM    1  C   UNL     1      -9.979  11.848  66.671  1.00  0.00    -0.199 C  
HETATM    2  C   UNL     1     -10.511  11.291  67.994  1.00  0.00    -0.215 C  
HETATM    3  C   UNL     1     -10.085   9.838  67.935  1.00  0.00    -0.173 C  
HETATM    4  C   UNL     1     -12.004  11.555  68.136  1.00  0.00    -0.206 C  
HETATM    5  O   UNL     1      -9.758  10.158  63.844  1.00  0.00    -0.297 OA 
HETATM    6  C   UNL     1      -9.383   9.590  66.811  1.00  0.00    -0.153 C  
HETATM    7  C   UNL     1     -10.802  11.948  65.348  1.00  0.00    -0.343 C  
HETATM    8  N   UNL     1      -9.232  10.729  66.030  1.00  0.00    -0.180 N  
HETATM    9  C   UNL     1      -8.724   8.303  66.426  1.00  0.00    -0.142 C  
HETATM   10  O   UNL     1      -8.420   7.424  67.216  1.00  0.00    -0.117 OA 
HETATM   11  O   UNL     1      -8.487   8.162  65.103  1.00  0.00    -0.155 OA 
HETATM   12  C   UNL     1      -9.860  10.863  64.824  1.00  0.00    -0.288 C  
ENDROOT
BRANCH   3  13
HETATM   13  S   UNL     1     -10.360   8.835  69.309  1.00  0.00    -0.213 SA 
BRANCH  13  14
HETATM   14  C   UNL     1      -9.173   9.428  70.576  1.00  0.00    -0.259 C  
HETATM   15  C   UNL     1      -7.801   9.818  70.038  1.00  0.00    -0.178 C  
HETATM   16  N   UNL     1      -7.131   8.543  69.850  1.00  0.00    -0.050 NA 
HETATM   17  C   UNL     1      -7.514   7.666  70.979  1.00  0.00    -0.075 C  
HETATM   18  C   UNL     1      -8.833   8.250  71.500  1.00  0.00    -0.216 C  
HETATM   19  H   UNL     1      -6.120   8.637  69.745  1.00  0.00     0.000 HD 
BRANCH  17  20
HETATM   20  C   UNL     1      -7.500   6.189  70.491  1.00  0.00    -0.090 C  
HETATM   21  O   UNL     1      -6.487   5.502  70.640  1.00  0.00    -0.032 OA 
HETATM   22  N   UNL     1      -8.709   5.706  70.009  1.00  0.00    -0.128 N  
HETATM   23  H   UNL     1      -9.497   6.352  70.024  1.00  0.00     0.000 HD 
BRANCH  22  24
HETATM   24  C   UNL     1      -8.961   4.408  69.497  1.00  0.00    -0.097 A  
HETATM   25  C   UNL     1      -9.176   3.282  70.299  1.00  0.00    -0.227 A  
HETATM   26  C   UNL     1      -9.434   2.029  69.733  1.00  0.00    -0.119 A  
HETATM   27  C   UNL     1      -9.468   1.877  68.351  1.00  0.00    -0.234 A  
HETATM   28  C   UNL     1      -9.223   2.985  67.533  1.00  0.00    -0.233 A  
HETATM   29  C   UNL     1      -9.244   2.876  66.054  1.00  0.00    -0.095 C  
HETATM   30  C   UNL     1      -8.992   4.249  68.107  1.00  0.00    -0.151 A  
HETATM   31  O   UNL     1      -8.804   1.689  65.584  1.00  0.00    -0.118 OA 
HETATM   32  O   UNL     1      -9.590   3.794  65.330  1.00  0.00    -0.166 OA 
ENDBRANCH  22  24
ENDBRANCH  17  20
ENDBRANCH  13  14
ENDBRANCH   3  13
BRANCH   7  33
HETATM   33  C   UNL     1     -10.783  13.317  64.696  1.00  0.00    -0.400 C  
HETATM   34  O   UNL     1      -9.575  13.953  65.113  1.00  0.00    -0.559 OA 
HETATM   35  H   UNL     1      -9.563  14.811  64.704  1.00  0.00     0.000 HD 
HETATM   36  C   UNL     1     -11.971  14.157  65.137  1.00  0.00    -0.390 C  
ENDBRANCH   7  33
TORSDOF 5
ENDMDL
MODEL      151
REMARK 921   NORMALIZED FREE ENERGY PREDICTED BY IDOCK:   -5.13 KCAL/MOL
REMARK 922        TOTAL FREE ENERGY PREDICTED BY IDOCK:   -8.32 KCAL/MOL
REMARK 923 INTER-LIGAND FREE ENERGY PREDICTED BY IDOCK:   -7.67 KCAL/MOL
REMARK 924 INTRA-LIGAND FREE ENERGY PREDICTED BY IDOCK:   -0.64 KCAL/MOL
REMARK 927      BINDING AFFINITY PREDICTED BY RF-SCORE:    0.00 PKD
ROOT
HETATM    1  C   UNL     1      -8.245  16.336  66.692  1.00  0.00    -0.281 C  
HETATM    2  C   UNL     1      -8.502  14.891  67.129  1.00  0.00    -0.244 C  
HETATM    3  C   UNL     1      -9.749  14.529  66.347  1.00  0.00    -0.296 C  
HETATM    4  C   UNL     1      -8.598  14.787  68.645  1.00  0.00    -0.169 C  
HETATM    5  O   UNL     1     -10.580  18.539  65.921  1.00  0.00    -0.488 OA 
HETATM    6  C   UNL     1     -10.131  15.550  65.553  1.00  0.00    -0.373 C  
HETATM    7  C   UNL     1      -8.753  17.602  67.452  1.00  0.00    -0.235 C  
HETATM    8  N   UNL     1      -9.274  16.639  65.658  1.00  0.00     0.030 N  
HETATM    9  C   UNL     1     -11.262  15.556  64.574  1.00  0.00    -0.315 C  
HETATM   10  O   UNL     1     -11.760  14.550  64.094  1.00  0.00    -0.315 OA 
HETATM   11  O   UNL     1     -11.722  16.784  64.247  1.00  0.00    -0.882 OA 
HETATM   12  C   UNL     1      -9.667  17.809  66.243  1.00  0.00    -0.267 C  
ENDROOT
BRANCH   3  13
HETATM   13  S   UNL     1     -10.338  12.910  66.423  1.00  0.00    -0.273 SA 
BRANCH  13  14
HETATM   14  C   UNL     1      -9.429  12.012  65.107  1.00  0.00     0.010 C  
HETATM   15  C   UNL     1     -10.312  11.298  64.090  1.00  0.00    -0.351 C  
HETATM   16  N   UNL     1     -10.725  10.089  64.782  1.00  0.00     0.240 NA 
HETATM   17  C   UNL     1      -9.566   9.605  65.566  1.00  0.00    -0.283 C  
HETATM   18  C   UNL     1      -8.679  10.842  65.759  1.00  0.00    -0.194 C  
HETATM   19  H   UNL     1     -11.102   9.380  64.153  1.00  0.00     0.000 HD 
BRANCH  17  20
HETATM   20  C   UNL     1     -10.091   8.867  66.830  1.00  0.00    -0.273 C  
HETATM   21  O   UNL     1     -11.066   9.311  67.441  1.00  0.00    -0.082 OA 
HETATM   22  N   UNL     1      -9.469   7.660  67.121  1.00  0.00    -0.147 N  
HETATM   23  H   UNL     1      -8.734   7.360  66.482  1.00  0.00     0.000 HD 
BRANCH  22  24
HETATM   24  C   UNL     1      -9.749   6.803  68.215  1.00  0.00    -0.126 A  
HETATM   25  C   UNL     1     -10.319   7.235  69.418  1.00  0.00    -0.212 A  
HETATM   26  C   UNL     1     -10.583   6.336  70.457  1.00  0.00    -0.305 A  
HETATM   27  C   UNL     1     -10.270   4.989  70.316  1.00  0.00    -0.328 A  
HETATM   28  C   UNL     1      -9.670   4.544  69.133  1.00  0.00    -0.250 A  
HETATM   29  C   UNL     1      -9.312   3.118  68.934  1.00  0.00    -0.162 C  
HETATM   30  C   UNL     1      -9.432   5.446  68.081  1.00  0.00    -0.142 A  
HETATM   31  O   UNL     1      -8.928   2.485  70.063  1.00  0.00    -0.076 OA 
HETATM   32  O   UNL     1      -9.327   2.582  67.840  1.00  0.00    -0.193 OA 
ENDBRANCH  22  24
ENDBRANCH  17  20
ENDBRANCH  13  14
ENDBRANCH   3  13
BRANCH   7  33
HETATM   33  C   UNL     1      -7.681  18.632  67.749  1.00  0.00    -0.237 C  
HETATM   34  O   UNL     1      -6.777  18.613  66.644  1.00  0.00    -0.187 OA 
HETATM   35  H   UNL     1      -6.105  19.258  66.830  1.00  0.00     0.000 HD 
HETATM   36  C   UNL     1      -6.923  18.292  69.023  1.00  0.00    -0.266 C  
ENDBRANCH   7  33
TORSDOF 5
ENDMDL
MODEL      152
REMARK 921   NORMALIZED FREE ENERGY PREDICTED BY IDOCK:   -5.12 KCAL/MOL
REMARK 922        TOTAL FREE ENERGY PREDICTED BY IDOCK:   -8.30 KCAL/MOL
REMARK 923 INTER-LIGAND FREE ENERGY PREDICTED BY IDOCK:   -7.79 KCAL/MOL
REMARK 924 INTRA-LIGAND FREE ENERGY PREDICTED BY IDOCK:   -0.52 KCAL/MOL
REMARK 927      BINDING AFFINITY PREDICTED BY RF-SCORE:    0.00 PKD
ROOT
HETATM    1  C   UNL     1     -10.573  17.468  67.992  1.00  0.00    -0.384 C  
HETATM    2  C   UNL     1     -10.922  16.009  67.685  1.00  0.00    -0.284 C  
HETATM    3  C   UNL     1      -9.757  15.256  68.298  1.00  0.00    -0.210 C  
HETATM    4  C   UNL     1     -11.152  15.804  66.194  1.00  0.00    -0.078 C  
HETATM    5  O   UNL     1      -7.517  18.707  68.137  1.00  0.00    -0.254 OA 
HETATM    6  C   UNL     1      -8.903  16.106  68.902  1.00  0.00    -0.248 C  
HETATM    7  C   UNL     1      -9.806  18.425  67.025  1.00  0.00    -0.335 C  
HETATM    8  N   UNL     1      -9.329  17.426  68.812  1.00  0.00    -0.270 N  
HETATM    9  C   UNL     1      -7.680  15.748  69.686  1.00  0.00    -0.060 C  
HETATM   10  O   UNL     1      -7.483  14.654  70.191  1.00  0.00     0.067 OA 
HETATM   11  O   UNL     1      -6.768  16.740  69.797  1.00  0.00    -0.174 OA 
HETATM   12  C   UNL     1      -8.669  18.344  68.046  1.00  0.00    -0.287 C  
ENDROOT
BRANCH   3  13
HETATM   13  S   UNL     1      -9.796  13.534  68.312  1.00  0.00    -0.226 SA 
BRANCH  13  14
HETATM   14  C   UNL     1     -11.567  13.099  68.505  1.00  0.00    -0.326 C  
HETATM   15  C   UNL     1     -11.996  12.768  69.930  1.00  0.00    -0.298 C  
HETATM   16  N   UNL     1     -11.528  11.406  70.122  1.00  0.00    -0.483 NA 
HETATM   17  C   UNL     1     -11.745  10.676  68.852  1.00  0.00    -0.211 C  
HETATM   18  C   UNL     1     -11.813  11.769  67.778  1.00  0.00    -0.266 C  
HETATM   19  H   UNL     1     -11.961  10.946  70.923  1.00  0.00     0.000 HD 
BRANCH  17  20
HETATM   20  C   UNL     1     -10.655   9.574  68.718  1.00  0.00    -0.214 C  
HETATM   21  O   UNL     1      -9.514   9.878  68.363  1.00  0.00    -0.135 OA 
HETATM   22  N   UNL     1     -11.034   8.304  69.129  1.00  0.00    -0.429 N  
HETATM   23  H   UNL     1     -11.982   8.204  69.489  1.00  0.00     0.000 HD 
BRANCH  22  24
HETATM   24  C   UNL     1     -10.240   7.130  69.100  1.00  0.00    -0.194 A  
HETATM   25  C   UNL     1      -9.456   6.746  68.006  1.00  0.00    -0.119 A  
HETATM   26  C   UNL     1      -8.683   5.581  68.043  1.00  0.00    -0.106 A  
HETATM   27  C   UNL     1      -8.689   4.771  69.173  1.00  0.00    -0.109 A  
HETATM   28  C   UNL     1      -9.491   5.121  70.264  1.00  0.00    -0.233 A  
HETATM   29  C   UNL     1      -9.537   4.289  71.491  1.00  0.00    -0.165 C  
HETATM   30  C   UNL     1     -10.245   6.308  70.233  1.00  0.00    -0.244 A  
HETATM   31  O   UNL     1      -9.399   2.965  71.263  1.00  0.00    -0.113 OA 
HETATM   32  O   UNL     1      -9.723   4.760  72.600  1.00  0.00    -0.137 OA 
ENDBRANCH  22  24
ENDBRANCH  17  20
ENDBRANCH  13  14
ENDBRANCH   3  13
BRANCH   7  33
HETATM   33  C   UNL     1     -10.487  19.758  66.787  1.00  0.00    -0.489 C  
HETATM   34  O   UNL     1     -10.850  19.793  65.407  1.00  0.00    -0.413 OA 
HETATM   35  H   UNL     1     -11.277  20.628  65.258  1.00  0.00     0.000 HD 
HETATM   36  C   UNL     1      -9.553  20.919  67.090  1.00  0.00    -0.362 C  
ENDBRANCH   7  33
TORSDOF 5
ENDMDL
MODEL      153
REMARK 921   NORMALIZED FREE ENERGY PREDICTED BY IDOCK:   -5.12 KCAL/MOL
REMARK 922        TOTAL FREE ENERGY PREDICTED BY IDOCK:   -8.30 KCAL/MOL
REMARK 923 INTER-LIGAND FREE ENERGY PREDICTED BY IDOCK:   -7.75 KCAL/MOL
REMARK 924 INTRA-LIGAND FREE ENERGY PREDICTED BY IDOCK:   -0.55 KCAL/MOL
REMARK 927      BINDING AFFINITY PREDICTED BY RF-SCORE:    0.00 PKD
ROOT
HETATM    1  C   UNL     1     -11.165  10.554  70.447  1.00  0.00    -0.298 C  
HETATM    2  C   UNL     1     -11.165  11.549  69.284  1.00  0.00    -0.336 C  
HETATM    3  C   UNL     1     -12.155  12.599  69.749  1.00  0.00    -0.233 C  
HETATM    4  C   UNL     1     -11.485  10.852  67.968  1.00  0.00    -0.356 C  
HETATM    5  O   UNL     1     -13.769   9.845  72.349  1.00  0.00    -0.338 OA 
HETATM    6  C   UNL     1     -12.617  12.309  70.982  1.00  0.00    -0.257 C  
HETATM    7  C   UNL     1     -12.058   9.276  70.530  1.00  0.00    -0.062 C  
HETATM    8  N   UNL     1     -12.051  11.146  71.490  1.00  0.00    -0.023 N  
HETATM    9  C   UNL     1     -13.543  13.137  71.815  1.00  0.00    -0.251 C  
HETATM   10  O   UNL     1     -13.722  14.335  71.659  1.00  0.00    -0.362 OA 
HETATM   11  O   UNL     1     -14.203  12.455  72.777  1.00  0.00     0.064 OA 
HETATM   12  C   UNL     1     -12.784  10.006  71.662  1.00  0.00    -0.435 C  
ENDROOT
BRANCH   3  13
HETATM   13  S   UNL     1     -12.376  14.015  68.792  1.00  0.00     0.158 SA 
BRANCH  13  14
HETATM   14  C   UNL     1     -10.849  15.000  69.042  1.00  0.00    -0.242 C  
HETATM   15  C   UNL     1     -10.820  16.337  68.310  1.00  0.00    -0.340 C  
HETATM   16  N   UNL     1     -10.492  15.973  66.943  1.00  0.00    -0.304 NA 
HETATM   17  C   UNL     1      -9.496  14.878  66.998  1.00  0.00    -0.229 C  
HETATM   18  C   UNL     1      -9.683  14.248  68.384  1.00  0.00    -0.225 C  
HETATM   19  H   UNL     1     -10.178  16.767  66.384  1.00  0.00     0.000 HD 
BRANCH  17  20
HETATM   20  C   UNL     1      -9.676  13.976  65.744  1.00  0.00    -0.194 C  
HETATM   21  O   UNL     1     -10.181  14.440  64.720  1.00  0.00    -0.404 OA 
HETATM   22  N   UNL     1      -9.134  12.701  65.841  1.00  0.00    -0.427 N  
HETATM   23  H   UNL     1      -8.660  12.471  66.714  1.00  0.00     0.000 HD 
BRANCH  22  24
HETATM   24  C   UNL     1      -9.170  11.686  64.853  1.00  0.00     0.080 A  
HETATM   25  C   UNL     1      -9.909  11.778  63.668  1.00  0.00    -0.357 A  
HETATM   26  C   UNL     1      -9.893  10.746  62.723  1.00  0.00    -0.239 A  
HETATM   27  C   UNL     1      -9.148   9.595  62.954  1.00  0.00    -0.241 A  
HETATM   28  C   UNL     1      -8.429   9.471  64.148  1.00  0.00    -0.194 A  
HETATM   29  C   UNL     1      -7.623   8.262  64.444  1.00  0.00    -0.113 C  
HETATM   30  C   UNL     1      -8.426  10.523  65.081  1.00  0.00    -0.170 A  
HETATM   31  O   UNL     1      -8.142   7.119  63.949  1.00  0.00    -0.105 OA 
HETATM   32  O   UNL     1      -6.603   8.298  65.111  1.00  0.00    -0.055 OA 
ENDBRANCH  22  24
ENDBRANCH  17  20
ENDBRANCH  13  14
ENDBRANCH   3  13
BRANCH   7  33
HETATM   33  C   UNL     1     -11.304   7.999  70.842  1.00  0.00    -0.276 C  
HETATM   34  O   UNL     1     -12.064   6.926  70.286  1.00  0.00    -0.600 OA 
HETATM   35  H   UNL     1     -11.591   6.126  70.482  1.00  0.00     0.000 HD 
HETATM   36  C   UNL     1     -11.164   7.790  72.342  1.00  0.00    -0.392 C  
ENDBRANCH   7  33
TORSDOF 5
ENDMDL
MODEL      154
REMARK 921   NORMALIZED FREE ENERGY PREDICTED BY IDOCK:   -5.12 KCAL/MOL
REMARK 922        TOTAL FREE ENERGY PREDICTED BY IDOCK:   -8.30 KCAL/MOL
REMARK 923 INTER-LIGAND FREE ENERGY PREDICTED BY IDOCK:   -7.06 KCAL/MOL
REMARK 924 INTRA-LIGAND FREE ENERGY PREDICTED BY IDOCK:   -1.24 KCAL/MOL
REMARK 927      BINDING AFFINITY PREDICTED BY RF-SCORE:    0.00 PKD
ROOT
HETATM    1  C   UNL     1      -8.102   5.533  65.751  1.00  0.00    -0.112 C  
HETATM    2  C   UNL     1      -7.701   6.663  64.798  1.00  0.00    -0.111 C  
HETATM    3  C   UNL     1      -8.291   7.886  65.472  1.00  0.00    -0.147 C  
HETATM    4  C   UNL     1      -8.175   6.376  63.380  1.00  0.00     0.042 C  
HETATM    5  O   UNL     1     -10.882   5.434  67.528  1.00  0.00    -0.142 OA 
HETATM    6  C   UNL     1      -8.885   7.553  66.635  1.00  0.00    -0.146 C  
HETATM    7  C   UNL     1      -9.383   4.653  65.604  1.00  0.00    -0.160 C  
HETATM    8  N   UNL     1      -8.781   6.193  66.902  1.00  0.00    -0.109 N  
HETATM    9  C   UNL     1      -9.511   8.482  67.627  1.00  0.00    -0.145 C  
HETATM   10  O   UNL     1      -9.258   9.674  67.705  1.00  0.00    -0.125 OA 
HETATM   11  O   UNL     1     -10.412   7.906  68.453  1.00  0.00    -0.205 OA 
HETATM   12  C   UNL     1      -9.869   5.367  66.867  1.00  0.00    -0.166 C  
ENDROOT
BRANCH   3  13
HETATM   13  S   UNL     1      -7.963   9.442  64.807  1.00  0.00    -0.130 SA 
BRANCH  13  14
HETATM   14  C   UNL     1      -9.361   9.776  63.667  1.00  0.00    -0.100 C  
HETATM   15  C   UNL     1      -9.068  10.798  62.575  1.00  0.00    -0.312 C  
HETATM   16  N   UNL     1      -9.178  12.075  63.260  1.00  0.00    -0.637 NA 
HETATM   17  C   UNL     1     -10.305  11.975  64.214  1.00  0.00    -0.322 C  
HETATM   18  C   UNL     1     -10.472  10.471  64.468  1.00  0.00    -0.151 C  
HETATM   19  H   UNL     1      -9.269  12.863  62.619  1.00  0.00     0.000 HD 
BRANCH  17  20
HETATM   20  C   UNL     1     -10.016  12.902  65.428  1.00  0.00    -0.194 C  
HETATM   21  O   UNL     1      -9.066  12.658  66.175  1.00  0.00    -0.121 OA 
HETATM   22  N   UNL     1     -10.810  14.038  65.517  1.00  0.00    -0.299 N  
HETATM   23  H   UNL     1     -11.502  14.170  64.781  1.00  0.00     0.000 HD 
BRANCH  22  24
HETATM   24  C   UNL     1     -10.759  15.033  66.526  1.00  0.00    -0.312 A  
HETATM   25  C   UNL     1     -10.107  16.262  66.376  1.00  0.00    -0.318 A  
HETATM   26  C   UNL     1     -10.103  17.209  67.405  1.00  0.00    -0.301 A  
HETATM   27  C   UNL     1     -10.741  16.939  68.610  1.00  0.00    -0.345 A  
HETATM   28  C   UNL     1     -11.370  15.702  68.791  1.00  0.00    -0.351 A  
HETATM   29  C   UNL     1     -12.061  15.362  70.059  1.00  0.00    -0.359 C  
HETATM   30  C   UNL     1     -11.395  14.764  67.743  1.00  0.00    -0.344 A  
HETATM   31  O   UNL     1     -11.487  15.896  71.158  1.00  0.00    -0.369 OA 
HETATM   32  O   UNL     1     -13.036  14.631  70.102  1.00  0.00    -0.228 OA 
ENDBRANCH  22  24
ENDBRANCH  17  20
ENDBRANCH  13  14
ENDBRANCH   3  13
BRANCH   7  33
HETATM   33  C   UNL     1      -9.131   3.159  65.654  1.00  0.00    -0.152 C  
HETATM   34  O   UNL     1      -8.711   2.859  66.985  1.00  0.00    -0.106 OA 
HETATM   35  H   UNL     1      -8.553   1.922  67.016  1.00  0.00     0.000 HD 
HETATM   36  C   UNL     1      -8.039   2.749  64.678  1.00  0.00    -0.086 C  
ENDBRANCH   7  33
TORSDOF 5
ENDMDL
MODEL      155
REMARK 921   NORMALIZED FREE ENERGY PREDICTED BY IDOCK:   -5.10 KCAL/MOL
REMARK 922        TOTAL FREE ENERGY PREDICTED BY IDOCK:   -8.27 KCAL/MOL
REMARK 923 INTER-LIGAND FREE ENERGY PREDICTED BY IDOCK:   -7.25 KCAL/MOL
REMARK 924 INTRA-LIGAND FREE ENERGY PREDICTED BY IDOCK:   -1.02 KCAL/MOL
REMARK 927      BINDING AFFINITY PREDICTED BY RF-SCORE:    0.00 PKD
ROOT
HETATM    1  C   UNL     1      -8.370   5.861  66.366  1.00  0.00    -0.114 C  
HETATM    2  C   UNL     1      -7.913   6.578  67.639  1.00  0.00    -0.114 C  
HETATM    3  C   UNL     1      -8.136   8.037  67.292  1.00  0.00    -0.121 C  
HETATM    4  C   UNL     1      -6.491   6.180  68.011  1.00  0.00    -0.049 C  
HETATM    5  O   UNL     1      -8.063   7.041  63.298  1.00  0.00    -0.100 OA 
HETATM    6  C   UNL     1      -8.675   8.160  66.063  1.00  0.00    -0.156 C  
HETATM    7  C   UNL     1      -7.429   5.438  65.192  1.00  0.00    -0.073 C  
HETATM    8  N   UNL     1      -8.890   6.925  65.462  1.00  0.00    -0.029 N  
HETATM    9  C   UNL     1      -9.115   9.424  65.394  1.00  0.00    -0.226 C  
HETATM   10  O   UNL     1      -9.384  10.457  65.986  1.00  0.00    -0.166 OA 
HETATM   11  O   UNL     1      -9.188   9.356  64.046  1.00  0.00    -0.163 OA 
HETATM   12  C   UNL     1      -8.160   6.513  64.384  1.00  0.00    -0.065 C  
ENDROOT
BRANCH   3  13
HETATM   13  S   UNL     1      -7.881   9.229  68.510  1.00  0.00    -0.090 SA 
BRANCH  13  14
HETATM   14  C   UNL     1      -9.177   8.910  69.767  1.00  0.00    -0.165 C  
HETATM   15  C   UNL     1     -10.384   8.127  69.261  1.00  0.00    -0.217 C  
HETATM   16  N   UNL     1     -11.165   9.124  68.549  1.00  0.00    -0.396 NA 
HETATM   17  C   UNL     1     -11.084  10.387  69.317  1.00  0.00    -0.253 C  
HETATM   18  C   UNL     1      -9.807  10.255  70.155  1.00  0.00     0.011 C  
HETATM   19  H   UNL     1     -12.126   8.826  68.375  1.00  0.00     0.000 HD 
BRANCH  17  20
HETATM   20  C   UNL     1     -11.199  11.581  68.326  1.00  0.00    -0.261 C  
HETATM   21  O   UNL     1     -12.279  11.832  67.789  1.00  0.00    -0.536 OA 
HETATM   22  N   UNL     1     -10.063  12.369  68.204  1.00  0.00    -0.218 N  
HETATM   23  H   UNL     1      -9.261  12.106  68.776  1.00  0.00     0.000 HD 
BRANCH  22  24
HETATM   24  C   UNL     1      -9.901  13.502  67.367  1.00  0.00    -0.227 A  
HETATM   25  C   UNL     1      -8.906  14.469  67.549  1.00  0.00    -0.193 A  
HETATM   26  C   UNL     1      -8.790  15.559  66.679  1.00  0.00    -0.325 A  
HETATM   27  C   UNL     1      -9.676  15.708  65.618  1.00  0.00    -0.348 A  
HETATM   28  C   UNL     1     -10.697  14.768  65.440  1.00  0.00    -0.385 A  
HETATM   29  C   UNL     1     -11.670  14.884  64.327  1.00  0.00    -0.247 C  
HETATM   30  C   UNL     1     -10.793  13.659  66.300  1.00  0.00    -0.282 A  
HETATM   31  O   UNL     1     -11.977  16.156  63.994  1.00  0.00    -0.897 OA 
HETATM   32  O   UNL     1     -12.176  13.913  63.791  1.00  0.00    -0.588 OA 
ENDBRANCH  22  24
ENDBRANCH  17  20
ENDBRANCH  13  14
ENDBRANCH   3  13
BRANCH   7  33
HETATM   33  C   UNL     1      -7.558   3.988  64.772  1.00  0.00    -0.077 C  
HETATM   34  O   UNL     1      -8.766   3.884  64.018  1.00  0.00    -0.102 OA 
HETATM   35  H   UNL     1      -8.846   2.975  63.755  1.00  0.00     0.000 HD 
HETATM   36  C   UNL     1      -7.640   3.067  65.980  1.00  0.00    -0.077 C  
ENDBRANCH   7  33
TORSDOF 5
ENDMDL
MODEL      156
REMARK 921   NORMALIZED FREE ENERGY PREDICTED BY IDOCK:   -5.08 KCAL/MOL
REMARK 922        TOTAL FREE ENERGY PREDICTED BY IDOCK:   -8.25 KCAL/MOL
REMARK 923 INTER-LIGAND FREE ENERGY PREDICTED BY IDOCK:   -7.33 KCAL/MOL
REMARK 924 INTRA-LIGAND FREE ENERGY PREDICTED BY IDOCK:   -0.92 KCAL/MOL
REMARK 927      BINDING AFFINITY PREDICTED BY RF-SCORE:    0.00 PKD
ROOT
HETATM    1  C   UNL     1     -11.546  11.356  70.472  1.00  0.00    -0.068 C  
HETATM    2  C   UNL     1     -11.176  11.835  69.066  1.00  0.00    -0.324 C  
HETATM    3  C   UNL     1     -11.632  13.281  69.080  1.00  0.00    -0.319 C  
HETATM    4  C   UNL     1     -11.797  10.939  68.002  1.00  0.00    -0.070 C  
HETATM    5  O   UNL     1     -14.147  12.398  72.218  1.00  0.00    -0.128 OA 
HETATM    6  C   UNL     1     -12.130  13.614  70.288  1.00  0.00    -0.357 C  
HETATM    7  C   UNL     1     -12.883  10.641  70.849  1.00  0.00    -0.473 C  
HETATM    8  N   UNL     1     -12.076  12.553  71.184  1.00  0.00     0.022 N  
HETATM    9  C   UNL     1     -12.607  14.963  70.725  1.00  0.00    -0.354 C  
HETATM   10  O   UNL     1     -12.282  16.012  70.192  1.00  0.00    -0.282 OA 
HETATM   11  O   UNL     1     -13.456  14.950  71.776  1.00  0.00    -0.332 OA 
HETATM   12  C   UNL     1     -13.206  11.922  71.621  1.00  0.00    -0.262 C  
ENDROOT
BRANCH   3  13
HETATM   13  S   UNL     1     -11.282  14.276  67.717  1.00  0.00    -0.306 SA 
BRANCH  13  14
HETATM   14  C   UNL     1      -9.936  15.390  68.275  1.00  0.00    -0.214 C  
HETATM   15  C   UNL     1      -9.279  16.207  67.169  1.00  0.00    -0.207 C  
HETATM   16  N   UNL     1      -8.380  15.261  66.530  1.00  0.00    -0.392 NA 
HETATM   17  C   UNL     1      -7.787  14.421  67.595  1.00  0.00    -0.181 C  
HETATM   18  C   UNL     1      -8.771  14.520  68.767  1.00  0.00    -0.147 C  
HETATM   19  H   UNL     1      -7.678  15.714  65.944  1.00  0.00     0.000 HD 
BRANCH  17  20
HETATM   20  C   UNL     1      -7.477  13.015  67.006  1.00  0.00     0.147 C  
HETATM   21  O   UNL     1      -6.315  12.608  66.965  1.00  0.00    -0.212 OA 
HETATM   22  N   UNL     1      -8.585  12.253  66.661  1.00  0.00    -0.351 N  
HETATM   23  H   UNL     1      -9.499  12.672  66.830  1.00  0.00     0.000 HD 
BRANCH  22  24
HETATM   24  C   UNL     1      -8.579  10.952  66.097  1.00  0.00    -0.169 A  
HETATM   25  C   UNL     1      -9.308   9.875  66.614  1.00  0.00    -0.196 A  
HETATM   26  C   UNL     1      -9.271   8.617  66.004  1.00  0.00    -0.276 A  
HETATM   27  C   UNL     1      -8.492   8.409  64.870  1.00  0.00    -0.141 A  
HETATM   28  C   UNL     1      -7.731   9.466  64.358  1.00  0.00    -0.119 A  
HETATM   29  C   UNL     1      -6.881   9.295  63.155  1.00  0.00    -0.090 C  
HETATM   30  C   UNL     1      -7.794  10.736  64.959  1.00  0.00     0.112 A  
HETATM   31  O   UNL     1      -6.336   8.066  63.036  1.00  0.00    -0.078 OA 
HETATM   32  O   UNL     1      -6.665  10.201  62.368  1.00  0.00    -0.113 OA 
ENDBRANCH  22  24
ENDBRANCH  17  20
ENDBRANCH  13  14
ENDBRANCH   3  13
BRANCH   7  33
HETATM   33  C   UNL     1     -12.709   9.345  71.615  1.00  0.00    -0.374 C  
HETATM   34  O   UNL     1     -13.456   9.479  72.824  1.00  0.00    -0.639 OA 
HETATM   35  H   UNL     1     -13.347   8.667  73.304  1.00  0.00     0.000 HD 
HETATM   36  C   UNL     1     -11.248   9.092  71.953  1.00  0.00    -0.438 C  
ENDBRANCH   7  33
TORSDOF 5
ENDMDL
MODEL      157
REMARK 921   NORMALIZED FREE ENERGY PREDICTED BY IDOCK:   -5.07 KCAL/MOL
REMARK 922        TOTAL FREE ENERGY PREDICTED BY IDOCK:   -8.23 KCAL/MOL
REMARK 923 INTER-LIGAND FREE ENERGY PREDICTED BY IDOCK:   -7.12 KCAL/MOL
REMARK 924 INTRA-LIGAND FREE ENERGY PREDICTED BY IDOCK:   -1.12 KCAL/MOL
REMARK 927      BINDING AFFINITY PREDICTED BY RF-SCORE:    0.00 PKD
ROOT
HETATM    1  C   UNL     1     -10.783   6.429  71.388  1.00  0.00    -0.245 C  
HETATM    2  C   UNL     1     -11.126   7.254  70.145  1.00  0.00    -0.281 C  
HETATM    3  C   UNL     1     -10.575   6.401  69.021  1.00  0.00    -0.257 C  
HETATM    4  C   UNL     1     -10.571   8.668  70.258  1.00  0.00    -0.240 C  
HETATM    5  O   UNL     1      -8.112   4.520  71.730  1.00  0.00    -0.097 OA 
HETATM    6  C   UNL     1     -10.050   5.256  69.501  1.00  0.00    -0.252 C  
HETATM    7  C   UNL     1      -9.496   6.609  72.254  1.00  0.00    -0.149 C  
HETATM    8  N   UNL     1     -10.172   5.167  70.883  1.00  0.00    -0.229 N  
HETATM    9  C   UNL     1      -9.483   4.122  68.708  1.00  0.00    -0.163 C  
HETATM   10  O   UNL     1      -9.739   3.910  67.533  1.00  0.00    -0.187 OA 
HETATM   11  O   UNL     1      -8.632   3.323  69.389  1.00  0.00    -0.059 OA 
HETATM   12  C   UNL     1      -9.085   5.241  71.707  1.00  0.00    -0.138 C  
ENDROOT
BRANCH   3  13
HETATM   13  S   UNL     1     -10.862   6.885  67.392  1.00  0.00    -0.315 SA 
BRANCH  13  14
HETATM   14  C   UNL     1      -9.203   7.264  66.709  1.00  0.00    -0.155 C  
HETATM   15  C   UNL     1      -8.161   7.674  67.744  1.00  0.00    -0.118 C  
HETATM   16  N   UNL     1      -8.483   9.062  68.024  1.00  0.00    -0.124 NA 
HETATM   17  C   UNL     1      -8.879   9.697  66.746  1.00  0.00    -0.135 C  
HETATM   18  C   UNL     1      -9.319   8.532  65.850  1.00  0.00    -0.231 C  
HETATM   19  H   UNL     1      -7.726   9.559  68.496  1.00  0.00     0.000 HD 
BRANCH  17  20
HETATM   20  C   UNL     1      -9.904  10.827  67.047  1.00  0.00    -0.187 C  
HETATM   21  O   UNL     1     -10.855  11.012  66.286  1.00  0.00    -0.247 OA 
HETATM   22  N   UNL     1      -9.724  11.494  68.251  1.00  0.00    -0.192 N  
HETATM   23  H   UNL     1      -8.949  11.182  68.835  1.00  0.00     0.000 HD 
BRANCH  22  24
HETATM   24  C   UNL     1     -10.507  12.564  68.754  1.00  0.00    -0.144 A  
HETATM   25  C   UNL     1     -11.755  12.396  69.364  1.00  0.00    -0.384 A  
HETATM   26  C   UNL     1     -12.474  13.492  69.853  1.00  0.00    -0.194 A  
HETATM   27  C   UNL     1     -11.962  14.779  69.730  1.00  0.00    -0.368 A  
HETATM   28  C   UNL     1     -10.730  14.969  69.094  1.00  0.00    -0.249 A  
HETATM   29  C   UNL     1     -10.142  16.321  68.932  1.00  0.00    -0.251 C  
HETATM   30  C   UNL     1      -9.998  13.862  68.629  1.00  0.00    -0.189 A  
HETATM   31  O   UNL     1     -11.055  17.300  68.751  1.00  0.00    -0.150 OA 
HETATM   32  O   UNL     1      -8.940  16.519  68.924  1.00  0.00    -0.240 OA 
ENDBRANCH  22  24
ENDBRANCH  17  20
ENDBRANCH  13  14
ENDBRANCH   3  13
BRANCH   7  33
HETATM   33  C   UNL     1      -9.753   6.761  73.740  1.00  0.00    -0.239 C  
HETATM   34  O   UNL     1     -11.063   7.311  73.877  1.00  0.00    -0.497 OA 
HETATM   35  H   UNL     1     -11.223   7.406  74.808  1.00  0.00     0.000 HD 
HETATM   36  C   UNL     1      -8.744   7.699  74.384  1.00  0.00    -0.208 C  
ENDBRANCH   7  33
TORSDOF 5
ENDMDL
MODEL      158
REMARK 921   NORMALIZED FREE ENERGY PREDICTED BY IDOCK:   -5.05 KCAL/MOL
REMARK 922        TOTAL FREE ENERGY PREDICTED BY IDOCK:   -8.21 KCAL/MOL
REMARK 923 INTER-LIGAND FREE ENERGY PREDICTED BY IDOCK:   -7.26 KCAL/MOL
REMARK 924 INTRA-LIGAND FREE ENERGY PREDICTED BY IDOCK:   -0.95 KCAL/MOL
REMARK 927      BINDING AFFINITY PREDICTED BY RF-SCORE:    0.00 PKD
ROOT
HETATM    1  C   UNL     1     -10.757  14.476  70.137  1.00  0.00     0.146 C  
HETATM    2  C   UNL     1     -10.254  13.146  69.567  1.00  0.00     0.724 C  
HETATM    3  C   UNL     1      -9.397  13.592  68.399  1.00  0.00    -0.171 C  
HETATM    4  C   UNL     1     -11.416  12.218  69.240  1.00  0.00    -0.352 C  
HETATM    5  O   UNL     1     -11.409  17.184  68.365  1.00  0.00    -0.115 OA 
HETATM    6  C   UNL     1      -9.354  14.937  68.322  1.00  0.00    -0.195 C  
HETATM    7  C   UNL     1     -12.112  15.154  69.760  1.00  0.00    -0.354 C  
HETATM    8  N   UNL     1     -10.090  15.541  69.335  1.00  0.00    -0.249 N  
HETATM    9  C   UNL     1      -8.555  15.760  67.361  1.00  0.00    -0.175 C  
HETATM   10  O   UNL     1      -7.570  15.355  66.765  1.00  0.00    -0.150 OA 
HETATM   11  O   UNL     1      -9.011  17.019  67.178  1.00  0.00    -0.214 OA 
HETATM   12  C   UNL     1     -11.248  16.218  69.078  1.00  0.00    -0.326 C  
ENDROOT
BRANCH   3  13
HETATM   13  S   UNL     1      -8.499  12.407  67.528  1.00  0.00    -0.186 SA 
BRANCH  13  14
HETATM   14  C   UNL     1      -9.325  12.291  65.895  1.00  0.00    -0.095 C  
HETATM   15  C   UNL     1     -10.847  12.349  65.940  1.00  0.00    -0.270 C  
HETATM   16  N   UNL     1     -11.230  11.009  66.351  1.00  0.00    -0.161 NA 
HETATM   17  C   UNL     1     -10.318  10.057  65.678  1.00  0.00    -0.101 C  
HETATM   18  C   UNL     1      -9.073  10.884  65.333  1.00  0.00    -0.218 C  
HETATM   19  H   UNL     1     -12.215  10.806  66.177  1.00  0.00     0.000 HD 
BRANCH  17  20
HETATM   20  C   UNL     1     -10.146   8.805  66.585  1.00  0.00    -0.288 C  
HETATM   21  O   UNL     1      -9.501   7.836  66.180  1.00  0.00    -0.157 OA 
HETATM   22  N   UNL     1     -10.658   8.922  67.871  1.00  0.00    -0.387 N  
HETATM   23  H   UNL     1     -11.090   9.814  68.111  1.00  0.00     0.000 HD 
BRANCH  22  24
HETATM   24  C   UNL     1     -10.642   7.931  68.884  1.00  0.00    -0.145 A  
HETATM   25  C   UNL     1     -10.978   6.590  68.668  1.00  0.00    -0.363 A  
HETATM   26  C   UNL     1     -10.930   5.655  69.707  1.00  0.00    -0.301 A  
HETATM   27  C   UNL     1     -10.557   6.048  70.988  1.00  0.00    -0.305 A  
HETATM   28  C   UNL     1     -10.250   7.391  71.231  1.00  0.00    -0.197 A  
HETATM   29  C   UNL     1      -9.851   7.863  72.579  1.00  0.00    -0.236 C  
HETATM   30  C   UNL     1     -10.272   8.322  70.176  1.00  0.00    -0.199 A  
HETATM   31  O   UNL     1     -10.454   7.205  73.593  1.00  0.00    -0.358 OA 
HETATM   32  O   UNL     1      -9.079   8.790  72.750  1.00  0.00    -0.338 OA 
ENDBRANCH  22  24
ENDBRANCH  17  20
ENDBRANCH  13  14
ENDBRANCH   3  13
BRANCH   7  33
HETATM   33  C   UNL     1     -12.969  15.552  70.945  1.00  0.00    -0.467 C  
HETATM   34  O   UNL     1     -12.170  16.410  71.759  1.00  0.00    -0.605 OA 
HETATM   35  H   UNL     1     -12.707  16.659  72.503  1.00  0.00     0.000 HD 
HETATM   36  C   UNL     1     -13.390  14.337  71.757  1.00  0.00    -0.450 C  
ENDBRANCH   7  33
TORSDOF 5
ENDMDL
MODEL      159
REMARK 921   NORMALIZED FREE ENERGY PREDICTED BY IDOCK:   -5.03 KCAL/MOL
REMARK 922        TOTAL FREE ENERGY PREDICTED BY IDOCK:   -8.19 KCAL/MOL
REMARK 923 INTER-LIGAND FREE ENERGY PREDICTED BY IDOCK:   -6.77 KCAL/MOL
REMARK 924 INTRA-LIGAND FREE ENERGY PREDICTED BY IDOCK:   -1.42 KCAL/MOL
REMARK 927      BINDING AFFINITY PREDICTED BY RF-SCORE:    0.00 PKD
ROOT
HETATM    1  C   UNL     1     -11.194  13.669  67.378  1.00  0.00    -0.302 C  
HETATM    2  C   UNL     1     -11.439  12.807  66.137  1.00  0.00    -0.399 C  
HETATM    3  C   UNL     1     -10.415  11.701  66.297  1.00  0.00    -0.246 C  
HETATM    4  C   UNL     1     -11.346  13.639  64.865  1.00  0.00    -0.353 C  
HETATM    5  O   UNL     1      -8.264  14.137  68.825  1.00  0.00    -0.137 OA 
HETATM    6  C   UNL     1      -9.726  11.849  67.446  1.00  0.00    -0.184 C  
HETATM    7  C   UNL     1     -10.261  14.920  67.426  1.00  0.00    -0.234 C  
HETATM    8  N   UNL     1     -10.151  12.957  68.169  1.00  0.00    -0.235 N  
HETATM    9  C   UNL     1      -8.688  10.925  68.000  1.00  0.00    -0.132 C  
HETATM   10  O   UNL     1      -8.580   9.749  67.690  1.00  0.00    -0.125 OA 
HETATM   11  O   UNL     1      -7.842  11.490  68.889  1.00  0.00    -0.131 OA 
HETATM   12  C   UNL     1      -9.363  14.063  68.321  1.00  0.00    -0.208 C  
ENDROOT
BRANCH   3  13
HETATM   13  S   UNL     1     -10.419  10.395  65.173  1.00  0.00     0.053 SA 
BRANCH  13  14
HETATM   14  C   UNL     1      -9.078  10.785  63.985  1.00  0.00    -0.197 C  
HETATM   15  C   UNL     1      -9.229  10.141  62.611  1.00  0.00    -0.299 C  
HETATM   16  N   UNL     1      -8.791   8.772  62.824  1.00  0.00    -0.432 NA 
HETATM   17  C   UNL     1      -7.639   8.811  63.753  1.00  0.00    -0.124 C  
HETATM   18  C   UNL     1      -7.782  10.143  64.500  1.00  0.00    -0.138 C  
HETATM   19  H   UNL     1      -8.582   8.282  61.954  1.00  0.00     0.000 HD 
BRANCH  17  20
HETATM   20  C   UNL     1      -7.623   7.495  64.583  1.00  0.00    -0.111 C  
HETATM   21  O   UNL     1      -6.583   6.840  64.676  1.00  0.00    -0.041 OA 
HETATM   22  N   UNL     1      -8.794   7.206  65.270  1.00  0.00    -0.370 N  
HETATM   23  H   UNL     1      -9.554   7.880  65.181  1.00  0.00     0.000 HD 
BRANCH  22  24
HETATM   24  C   UNL     1      -9.043   6.072  66.083  1.00  0.00    -0.147 A  
HETATM   25  C   UNL     1      -9.237   4.781  65.581  1.00  0.00    -0.152 A  
HETATM   26  C   UNL     1      -9.466   3.698  66.437  1.00  0.00    -0.184 A  
HETATM   27  C   UNL     1      -9.518   3.890  67.813  1.00  0.00    -0.230 A  
HETATM   28  C   UNL     1      -9.358   5.180  68.332  1.00  0.00    -0.155 A  
HETATM   29  C   UNL     1      -9.409   5.439  69.791  1.00  0.00    -0.142 C  
HETATM   30  C   UNL     1      -9.100   6.260  67.469  1.00  0.00    -0.110 A  
HETATM   31  O   UNL     1     -10.262   4.636  70.463  1.00  0.00    -0.223 OA 
HETATM   32  O   UNL     1      -8.767   6.327  70.325  1.00  0.00    -0.139 OA 
ENDBRANCH  22  24
ENDBRANCH  17  20
ENDBRANCH  13  14
ENDBRANCH   3  13
BRANCH   7  33
HETATM   33  C   UNL     1     -10.904  16.165  68.005  1.00  0.00    -0.333 C  
HETATM   34  O   UNL     1      -9.849  16.955  68.553  1.00  0.00    -0.244 OA 
HETATM   35  H   UNL     1     -10.252  17.735  68.916  1.00  0.00     0.000 HD 
HETATM   36  C   UNL     1     -11.894  15.815  69.106  1.00  0.00    -0.367 C  
ENDBRANCH   7  33
TORSDOF 5
ENDMDL
MODEL      160
REMARK 921   NORMALIZED FREE ENERGY PREDICTED BY IDOCK:   -5.00 KCAL/MOL
REMARK 922        TOTAL FREE ENERGY PREDICTED BY IDOCK:   -8.15 KCAL/MOL
REMARK 923 INTER-LIGAND FREE ENERGY PREDICTED BY IDOCK:   -6.81 KCAL/MOL
REMARK 924 INTRA-LIGAND FREE ENERGY PREDICTED BY IDOCK:   -1.34 KCAL/MOL
REMARK 927      BINDING AFFINITY PREDICTED BY RF-SCORE:    0.00 PKD
ROOT
HETATM    1  C   UNL     1      -9.117  16.027  67.563  1.00  0.00    -0.199 C  
HETATM    2  C   UNL     1     -10.458  15.736  66.883  1.00  0.00    -0.315 C  
HETATM    3  C   UNL     1     -10.497  14.221  66.869  1.00  0.00    -0.272 C  
HETATM    4  C   UNL     1     -10.547  16.429  65.531  1.00  0.00    -0.346 C  
HETATM    5  O   UNL     1      -6.403  14.165  67.298  1.00  0.00    -0.295 OA 
HETATM    6  C   UNL     1      -9.408  13.707  67.475  1.00  0.00    -0.223 C  
HETATM    7  C   UNL     1      -7.770  16.275  66.811  1.00  0.00    -0.295 C  
HETATM    8  N   UNL     1      -8.563  14.700  67.955  1.00  0.00    -0.155 N  
HETATM    9  C   UNL     1      -9.117  12.263  67.733  1.00  0.00    -0.191 C  
HETATM   10  O   UNL     1      -9.966  11.386  67.764  1.00  0.00    -0.173 OA 
HETATM   11  O   UNL     1      -7.811  11.973  67.927  1.00  0.00    -0.124 OA 
HETATM   12  C   UNL     1      -7.336  14.931  67.400  1.00  0.00    -0.193 C  
ENDROOT
BRANCH   3  13
HETATM   13  S   UNL     1     -11.922  13.431  66.307  1.00  0.00    -0.415 SA 
BRANCH  13  14
HETATM   14  C   UNL     1     -11.893  13.639  64.485  1.00  0.00    -0.412 C  
HETATM   15  C   UNL     1     -12.790  12.677  63.714  1.00  0.00    -0.118 C  
HETATM   16  N   UNL     1     -12.031  11.439  63.695  1.00  0.00    -0.467 NA 
HETATM   17  C   UNL     1     -10.605  11.793  63.508  1.00  0.00    -0.440 C  
HETATM   18  C   UNL     1     -10.496  13.247  63.983  1.00  0.00    -0.160 C  
HETATM   19  H   UNL     1     -12.370  10.776  62.998  1.00  0.00     0.000 HD 
BRANCH  17  20
HETATM   20  C   UNL     1      -9.728  10.717  64.210  1.00  0.00    -0.302 C  
HETATM   21  O   UNL     1     -10.234   9.954  65.034  1.00  0.00    -0.221 OA 
HETATM   22  N   UNL     1      -8.419  10.623  63.758  1.00  0.00    -0.319 N  
HETATM   23  H   UNL     1      -8.149  11.255  63.004  1.00  0.00     0.000 HD 
BRANCH  22  24
HETATM   24  C   UNL     1      -7.417   9.741  64.234  1.00  0.00    -0.132 A  
HETATM   25  C   UNL     1      -6.397  10.122  65.113  1.00  0.00    -0.121 A  
HETATM   26  C   UNL     1      -5.444   9.200  65.559  1.00  0.00    -0.037 A  
HETATM   27  C   UNL     1      -5.487   7.880  65.123  1.00  0.00    -0.033 A  
HETATM   28  C   UNL     1      -6.480   7.488  64.219  1.00  0.00    -0.048 A  
HETATM   29  C   UNL     1      -6.567   6.095  63.719  1.00  0.00    -0.036 C  
HETATM   30  C   UNL     1      -7.452   8.412  63.795  1.00  0.00    -0.120 A  
HETATM   31  O   UNL     1      -5.370   5.485  63.579  1.00  0.00    -0.013 OA 
HETATM   32  O   UNL     1      -7.625   5.566  63.425  1.00  0.00    -0.059 OA 
ENDBRANCH  22  24
ENDBRANCH  17  20
ENDBRANCH  13  14
ENDBRANCH   3  13
BRANCH   7  33
HETATM   33  C   UNL     1      -7.038  17.534  67.231  1.00  0.00    -0.167 C  
HETATM   34  O   UNL     1      -6.307  17.208  68.414  1.00  0.00    -0.149 OA 
HETATM   35  H   UNL     1      -5.848  17.997  68.677  1.00  0.00     0.000 HD 
HETATM   36  C   UNL     1      -8.008  18.665  67.536  1.00  0.00    -0.256 C  
ENDBRANCH   7  33
TORSDOF 5
ENDMDL
MODEL      161
REMARK 921   NORMALIZED FREE ENERGY PREDICTED BY IDOCK:   -4.98 KCAL/MOL
REMARK 922        TOTAL FREE ENERGY PREDICTED BY IDOCK:   -8.11 KCAL/MOL
REMARK 923 INTER-LIGAND FREE ENERGY PREDICTED BY IDOCK:   -7.16 KCAL/MOL
REMARK 924 INTRA-LIGAND FREE ENERGY PREDICTED BY IDOCK:   -0.96 KCAL/MOL
REMARK 927      BINDING AFFINITY PREDICTED BY RF-SCORE:    0.00 PKD
ROOT
HETATM    1  C   UNL     1     -11.844  11.199  70.658  1.00  0.00    -0.302 C  
HETATM    2  C   UNL     1     -11.625  11.516  69.176  1.00  0.00    -0.382 C  
HETATM    3  C   UNL     1     -12.018  12.977  69.090  1.00  0.00    -0.271 C  
HETATM    4  C   UNL     1     -12.401  10.552  68.290  1.00  0.00     1.405 C  
HETATM    5  O   UNL     1     -14.178  12.542  72.568  1.00  0.00    -0.194 OA 
HETATM    6  C   UNL     1     -12.357  13.455  70.305  1.00  0.00    -0.284 C  
HETATM    7  C   UNL     1     -13.154  10.595  71.257  1.00  0.00    -0.456 C  
HETATM    8  N   UNL     1     -12.239  12.487  71.296  1.00  0.00    -0.037 N  
HETATM    9  C   UNL     1     -12.725  14.863  70.649  1.00  0.00    -0.367 C  
HETATM   10  O   UNL     1     -12.425  15.836  69.976  1.00  0.00    -0.337 OA 
HETATM   11  O   UNL     1     -13.444  14.999  71.785  1.00  0.00    -0.345 OA 
HETATM   12  C   UNL     1     -13.333  11.962  71.922  1.00  0.00    -0.300 C  
ENDROOT
BRANCH   3  13
HETATM   13  S   UNL     1     -11.793  13.813  67.600  1.00  0.00    -0.371 SA 
BRANCH  13  14
HETATM   14  C   UNL     1      -9.982  14.076  67.471  1.00  0.00    -0.236 C  
HETATM   15  C   UNL     1      -9.470  14.332  66.058  1.00  0.00    -0.182 C  
HETATM   16  N   UNL     1      -9.430  13.008  65.461  1.00  0.00    -0.468 NA 
HETATM   17  C   UNL     1      -8.967  12.062  66.502  1.00  0.00    -0.193 C  
HETATM   18  C   UNL     1      -9.282  12.758  67.832  1.00  0.00    -0.205 C  
HETATM   19  H   UNL     1      -8.866  12.972  64.612  1.00  0.00     0.000 HD 
BRANCH  17  20
HETATM   20  C   UNL     1      -9.601  10.669  66.227  1.00  0.00    -0.185 C  
HETATM   21  O   UNL     1     -10.419  10.535  65.315  1.00  0.00    -0.262 OA 
HETATM   22  N   UNL     1      -9.095   9.621  66.985  1.00  0.00    -0.134 N  
HETATM   23  H   UNL     1      -8.352   9.851  67.644  1.00  0.00     0.000 HD 
BRANCH  22  24
HETATM   24  C   UNL     1      -9.505   8.264  66.938  1.00  0.00    -0.186 A  
HETATM   25  C   UNL     1     -10.580   7.750  67.671  1.00  0.00    -0.283 A  
HETATM   26  C   UNL     1     -10.944   6.402  67.572  1.00  0.00    -0.454 A  
HETATM   27  C   UNL     1     -10.229   5.541  66.746  1.00  0.00    -0.277 A  
HETATM   28  C   UNL     1      -9.131   6.031  66.031  1.00  0.00    -0.143 A  
HETATM   29  C   UNL     1      -8.333   5.154  65.141  1.00  0.00    -0.141 C  
HETATM   30  C   UNL     1      -8.786   7.392  66.113  1.00  0.00    -0.185 A  
HETATM   31  O   UNL     1      -8.233   3.877  65.571  1.00  0.00    -0.103 OA 
HETATM   32  O   UNL     1      -7.784   5.563  64.132  1.00  0.00    -0.076 OA 
ENDBRANCH  22  24
ENDBRANCH  17  20
ENDBRANCH  13  14
ENDBRANCH   3  13
BRANCH   7  33
HETATM   33  C   UNL     1     -12.943   9.374  72.131  1.00  0.00    -0.421 C  
HETATM   34  O   UNL     1     -11.589   8.963  71.939  1.00  0.00    -0.331 OA 
HETATM   35  H   UNL     1     -11.457   8.197  72.487  1.00  0.00     0.000 HD 
HETATM   36  C   UNL     1     -13.874   8.240  71.732  1.00  0.00    -0.450 C  
ENDBRANCH   7  33
TORSDOF 5
ENDMDL
MODEL      162
REMARK 921   NORMALIZED FREE ENERGY PREDICTED BY IDOCK:   -4.97 KCAL/MOL
REMARK 922        TOTAL FREE ENERGY PREDICTED BY IDOCK:   -8.10 KCAL/MOL
REMARK 923 INTER-LIGAND FREE ENERGY PREDICTED BY IDOCK:   -6.53 KCAL/MOL
REMARK 924 INTRA-LIGAND FREE ENERGY PREDICTED BY IDOCK:   -1.57 KCAL/MOL
REMARK 927      BINDING AFFINITY PREDICTED BY RF-SCORE:    0.00 PKD
ROOT
HETATM    1  C   UNL     1      -8.622   5.711  69.711  1.00  0.00    -0.121 C  
HETATM    2  C   UNL     1      -9.565   6.334  68.679  1.00  0.00    -0.128 C  
HETATM    3  C   UNL     1      -9.391   7.819  68.929  1.00  0.00    -0.146 C  
HETATM    4  C   UNL     1     -10.977   5.783  68.824  1.00  0.00    -0.223 C  
HETATM    5  O   UNL     1      -7.971   6.961  72.697  1.00  0.00    -0.101 OA 
HETATM    6  C   UNL     1      -8.476   8.038  69.894  1.00  0.00    -0.126 C  
HETATM    7  C   UNL     1      -9.047   5.238  71.138  1.00  0.00    -0.170 C  
HETATM    8  N   UNL     1      -7.937   6.853  70.380  1.00  0.00    -0.112 N  
HETATM    9  C   UNL     1      -7.968   9.362  70.371  1.00  0.00    -0.172 C  
HETATM   10  O   UNL     1      -8.032  10.396  69.724  1.00  0.00    -0.150 OA 
HETATM   11  O   UNL     1      -7.425   9.349  71.608  1.00  0.00    -0.323 OA 
HETATM   12  C   UNL     1      -8.200   6.407  71.644  1.00  0.00    -0.117 C  
ENDROOT
BRANCH   3  13
HETATM   13  S   UNL     1     -10.177   8.937  67.879  1.00  0.00    -0.232 SA 
BRANCH  13  14
HETATM   14  C   UNL     1      -9.268   8.817  66.290  1.00  0.00    -0.207 C  
HETATM   15  C   UNL     1      -7.753   8.702  66.425  1.00  0.00    -0.095 C  
HETATM   16  N   UNL     1      -7.328  10.065  66.691  1.00  0.00    -0.101 NA 
HETATM   17  C   UNL     1      -8.160  10.964  65.859  1.00  0.00    -0.120 C  
HETATM   18  C   UNL     1      -9.424  10.152  65.549  1.00  0.00    -0.286 C  
HETATM   19  H   UNL     1      -6.327  10.205  66.547  1.00  0.00     0.000 HD 
BRANCH  17  20
HETATM   20  C   UNL     1      -8.317  12.324  66.597  1.00  0.00    -0.014 C  
HETATM   21  O   UNL     1      -7.390  12.762  67.283  1.00  0.00    -0.147 OA 
HETATM   22  N   UNL     1      -9.488  13.020  66.329  1.00  0.00    -0.391 N  
HETATM   23  H   UNL     1     -10.135  12.588  65.671  1.00  0.00     0.000 HD 
BRANCH  22  24
HETATM   24  C   UNL     1      -9.878  14.268  66.877  1.00  0.00    -0.263 A  
HETATM   25  C   UNL     1      -9.664  15.497  66.244  1.00  0.00    -0.328 A  
HETATM   26  C   UNL     1     -10.085  16.696  66.830  1.00  0.00    -0.293 A  
HETATM   27  C   UNL     1     -10.718  16.687  68.068  1.00  0.00    -0.350 A  
HETATM   28  C   UNL     1     -10.912  15.470  68.731  1.00  0.00    -0.270 A  
HETATM   29  C   UNL     1     -11.577  15.407  70.055  1.00  0.00    -0.321 C  
HETATM   30  C   UNL     1     -10.512  14.266  68.125  1.00  0.00    -0.246 A  
HETATM   31  O   UNL     1     -11.334  16.475  70.845  1.00  0.00    -0.321 OA 
HETATM   32  O   UNL     1     -12.250  14.454  70.409  1.00  0.00    -0.295 OA 
ENDBRANCH  22  24
ENDBRANCH  17  20
ENDBRANCH  13  14
ENDBRANCH   3  13
BRANCH   7  33
HETATM   33  C   UNL     1      -8.628   3.822  71.483  1.00  0.00    -0.085 C  
HETATM   34  O   UNL     1      -8.372   3.157  70.246  1.00  0.00    -0.048 OA 
HETATM   35  H   UNL     1      -8.110   2.270  70.463  1.00  0.00     0.000 HD 
HETATM   36  C   UNL     1      -9.729   3.086  72.231  1.00  0.00    -0.225 C  
ENDBRANCH   7  33
TORSDOF 5
ENDMDL
MODEL      163
REMARK 921   NORMALIZED FREE ENERGY PREDICTED BY IDOCK:   -4.96 KCAL/MOL
REMARK 922        TOTAL FREE ENERGY PREDICTED BY IDOCK:   -8.10 KCAL/MOL
REMARK 923 INTER-LIGAND FREE ENERGY PREDICTED BY IDOCK:   -6.81 KCAL/MOL
REMARK 924 INTRA-LIGAND FREE ENERGY PREDICTED BY IDOCK:   -1.29 KCAL/MOL
REMARK 927      BINDING AFFINITY PREDICTED BY RF-SCORE:    0.00 PKD
ROOT
HETATM    1  C   UNL     1      -9.557   4.513  68.275  1.00  0.00    -0.143 C  
HETATM    2  C   UNL     1      -9.310   5.262  69.587  1.00  0.00    -0.174 C  
HETATM    3  C   UNL     1      -9.112   6.689  69.119  1.00  0.00    -0.137 C  
HETATM    4  C   UNL     1      -8.159   4.637  70.364  1.00  0.00    -0.071 C  
HETATM    5  O   UNL     1      -8.200   5.272  65.363  1.00  0.00    -0.115 OA 
HETATM    6  C   UNL     1      -9.266   6.781  67.783  1.00  0.00    -0.111 C  
HETATM    7  C   UNL     1      -8.455   3.791  67.437  1.00  0.00    -0.104 C  
HETATM    8  N   UNL     1      -9.576   5.554  67.209  1.00  0.00    -0.120 N  
HETATM    9  C   UNL     1      -9.227   8.027  66.955  1.00  0.00    -0.154 C  
HETATM   10  O   UNL     1      -9.413   9.150  67.395  1.00  0.00    -0.138 OA 
HETATM   11  O   UNL     1      -8.954   7.829  65.646  1.00  0.00    -0.118 OA 
HETATM   12  C   UNL     1      -8.694   4.894  66.402  1.00  0.00    -0.113 C  
ENDROOT
BRANCH   3  13
HETATM   13  S   UNL     1      -8.936   7.934  70.298  1.00  0.00    -0.151 SA 
BRANCH  13  14
HETATM   14  C   UNL     1     -10.240   7.597  71.543  1.00  0.00    -0.184 C  
HETATM   15  C   UNL     1     -11.557   7.085  70.971  1.00  0.00    -0.320 C  
HETATM   16  N   UNL     1     -12.200   8.283  70.462  1.00  0.00    -0.469 NA 
HETATM   17  C   UNL     1     -11.921   9.380  71.416  1.00  0.00    -0.371 C  
HETATM   18  C   UNL     1     -10.660   8.935  72.167  1.00  0.00    -0.323 C  
HETATM   19  H   UNL     1     -13.196   8.155  70.284  1.00  0.00     0.000 HD 
BRANCH  17  20
HETATM   20  C   UNL     1     -11.882  10.724  70.635  1.00  0.00    -0.360 C  
HETATM   21  O   UNL     1     -12.363  11.742  71.137  1.00  0.00    -0.324 OA 
HETATM   22  N   UNL     1     -11.184  10.699  69.435  1.00  0.00    -0.250 N  
HETATM   23  H   UNL     1     -10.753   9.812  69.176  1.00  0.00     0.000 HD 
BRANCH  22  24
HETATM   24  C   UNL     1     -11.008  11.778  68.532  1.00  0.00    -0.227 A  
HETATM   25  C   UNL     1     -11.906  12.088  67.505  1.00  0.00    -0.275 A  
HETATM   26  C   UNL     1     -11.684  13.176  66.653  1.00  0.00    -0.427 A  
HETATM   27  C   UNL     1     -10.550  13.966  66.806  1.00  0.00    -0.277 A  
HETATM   28  C   UNL     1      -9.624  13.651  67.807  1.00  0.00    -0.224 A  
HETATM   29  C   UNL     1      -8.397  14.459  68.009  1.00  0.00    -0.157 C  
HETATM   30  C   UNL     1      -9.866  12.574  68.678  1.00  0.00    -0.083 A  
HETATM   31  O   UNL     1      -7.881  14.970  66.870  1.00  0.00    -0.179 OA 
HETATM   32  O   UNL     1      -7.881  14.611  69.103  1.00  0.00    -0.144 OA 
ENDBRANCH  22  24
ENDBRANCH  17  20
ENDBRANCH  13  14
ENDBRANCH   3  13
BRANCH   7  33
HETATM   33  C   UNL     1      -8.779   2.357  67.071  1.00  0.00    -0.124 C  
HETATM   34  O   UNL     1      -9.735   1.896  68.026  1.00  0.00    -0.378 OA 
HETATM   35  H   UNL     1      -9.938   0.996  67.797  1.00  0.00     0.000 HD 
HETATM   36  C   UNL     1      -7.541   1.475  67.134  1.00  0.00    -0.059 C  
ENDBRANCH   7  33
TORSDOF 5
ENDMDL
MODEL      164
REMARK 921   NORMALIZED FREE ENERGY PREDICTED BY IDOCK:   -4.96 KCAL/MOL
REMARK 922        TOTAL FREE ENERGY PREDICTED BY IDOCK:   -8.09 KCAL/MOL
REMARK 923 INTER-LIGAND FREE ENERGY PREDICTED BY IDOCK:   -6.75 KCAL/MOL
REMARK 924 INTRA-LIGAND FREE ENERGY PREDICTED BY IDOCK:   -1.34 KCAL/MOL
REMARK 927      BINDING AFFINITY PREDICTED BY RF-SCORE:    0.00 PKD
ROOT
HETATM    1  C   UNL     1     -11.862  13.039  68.209  1.00  0.00    -0.343 C  
HETATM    2  C   UNL     1     -10.741  12.938  67.171  1.00  0.00    -0.268 C  
HETATM    3  C   UNL     1     -10.302  11.493  67.300  1.00  0.00    -0.206 C  
HETATM    4  C   UNL     1      -9.673  13.995  67.415  1.00  0.00    -0.233 C  
HETATM    5  O   UNL     1     -11.972  11.380  71.061  1.00  0.00    -0.271 OA 
HETATM    6  C   UNL     1     -11.058  10.842  68.207  1.00  0.00    -0.271 C  
HETATM    7  C   UNL     1     -11.673  13.518  69.684  1.00  0.00    -0.378 C  
HETATM    8  N   UNL     1     -12.032  11.664  68.760  1.00  0.00    -0.312 N  
HETATM    9  C   UNL     1     -10.991   9.390  68.561  1.00  0.00    -0.030 C  
HETATM   10  O   UNL     1     -10.512   8.529  67.840  1.00  0.00    -0.224 OA 
HETATM   11  O   UNL     1     -11.501   9.077  69.772  1.00  0.00    -0.037 OA 
HETATM   12  C   UNL     1     -11.979  12.067  70.064  1.00  0.00    -0.324 C  
ENDROOT
BRANCH   3  13
HETATM   13  S   UNL     1      -9.126  10.880  66.200  1.00  0.00    -0.190 SA 
BRANCH  13  14
HETATM   14  C   UNL     1      -7.509  11.391  66.900  1.00  0.00    -0.147 C  
HETATM   15  C   UNL     1      -6.290  10.810  66.192  1.00  0.00    -0.134 C  
HETATM   16  N   UNL     1      -6.208   9.454  66.707  1.00  0.00    -0.064 NA 
HETATM   17  C   UNL     1      -6.562   9.498  68.144  1.00  0.00    -0.062 C  
HETATM   18  C   UNL     1      -7.385  10.783  68.305  1.00  0.00    -0.086 C  
HETATM   19  H   UNL     1      -5.302   9.018  66.535  1.00  0.00     0.000 HD 
BRANCH  17  20
HETATM   20  C   UNL     1      -7.220   8.145  68.538  1.00  0.00    -0.088 C  
HETATM   21  O   UNL     1      -7.469   7.307  67.669  1.00  0.00    -0.096 OA 
HETATM   22  N   UNL     1      -7.380   7.931  69.900  1.00  0.00    -0.073 N  
HETATM   23  H   UNL     1      -7.047   8.669  70.520  1.00  0.00     0.000 HD 
BRANCH  22  24
HETATM   24  C   UNL     1      -7.958   6.794  70.519  1.00  0.00    -0.114 A  
HETATM   25  C   UNL     1      -7.502   5.486  70.326  1.00  0.00    -0.076 A  
HETATM   26  C   UNL     1      -8.106   4.405  70.977  1.00  0.00    -0.080 A  
HETATM   27  C   UNL     1      -9.189   4.613  71.824  1.00  0.00    -0.179 A  
HETATM   28  C   UNL     1      -9.680   5.910  72.004  1.00  0.00    -0.174 A  
HETATM   29  C   UNL     1     -10.834   6.185  72.893  1.00  0.00    -0.260 C  
HETATM   30  C   UNL     1      -9.051   6.997  71.370  1.00  0.00    -0.147 A  
HETATM   31  O   UNL     1     -11.756   5.199  72.919  1.00  0.00    -0.283 OA 
HETATM   32  O   UNL     1     -10.955   7.228  73.512  1.00  0.00    -0.345 OA 
ENDBRANCH  22  24
ENDBRANCH  17  20
ENDBRANCH  13  14
ENDBRANCH   3  13
BRANCH   7  33
HETATM   33  C   UNL     1     -12.629  14.610  70.119  1.00  0.00    -0.283 C  
HETATM   34  O   UNL     1     -12.642  15.584  69.075  1.00  0.00    -0.553 OA 
HETATM   35  H   UNL     1     -13.242  16.269  69.348  1.00  0.00     0.000 HD 
HETATM   36  C   UNL     1     -12.170  15.266  71.412  1.00  0.00    -0.414 C  
ENDBRANCH   7  33
TORSDOF 5
ENDMDL
MODEL      165
REMARK 921   NORMALIZED FREE ENERGY PREDICTED BY IDOCK:   -4.95 KCAL/MOL
REMARK 922        TOTAL FREE ENERGY PREDICTED BY IDOCK:   -8.08 KCAL/MOL
REMARK 923 INTER-LIGAND FREE ENERGY PREDICTED BY IDOCK:   -6.72 KCAL/MOL
REMARK 924 INTRA-LIGAND FREE ENERGY PREDICTED BY IDOCK:   -1.35 KCAL/MOL
REMARK 927      BINDING AFFINITY PREDICTED BY RF-SCORE:    0.00 PKD
ROOT
HETATM    1  C   UNL     1      -9.271   6.467  69.827  1.00  0.00    -0.144 C  
HETATM    2  C   UNL     1     -10.412   7.224  69.143  1.00  0.00    -0.222 C  
HETATM    3  C   UNL     1      -9.964   8.667  69.256  1.00  0.00    -0.195 C  
HETATM    4  C   UNL     1     -11.754   6.880  69.776  1.00  0.00    -0.142 C  
HETATM    5  O   UNL     1      -7.488   7.596  72.365  1.00  0.00    -0.072 OA 
HETATM    6  C   UNL     1      -8.756   8.749  69.849  1.00  0.00    -0.135 C  
HETATM    7  C   UNL     1      -9.251   6.052  71.333  1.00  0.00    -0.152 C  
HETATM    8  N   UNL     1      -8.252   7.496  70.177  1.00  0.00    -0.130 N  
HETATM    9  C   UNL     1      -7.942   9.984  70.070  1.00  0.00    -0.150 C  
HETATM   10  O   UNL     1      -8.078  11.019  69.437  1.00  0.00    -0.067 OA 
HETATM   11  O   UNL     1      -7.021   9.887  71.054  1.00  0.00    -0.333 OA 
HETATM   12  C   UNL     1      -8.132   7.086  71.475  1.00  0.00    -0.104 C  
ENDROOT
BRANCH   3  13
HETATM   13  S   UNL     1     -10.897   9.891  68.481  1.00  0.00    -0.189 SA 
BRANCH  13  14
HETATM   14  C   UNL     1     -10.451   9.777  66.705  1.00  0.00    -0.189 C  
HETATM   15  C   UNL     1      -8.985   9.465  66.431  1.00  0.00    -0.152 C  
HETATM   16  N   UNL     1      -8.319  10.741  66.628  1.00  0.00    -0.136 NA 
HETATM   17  C   UNL     1      -9.203  11.796  66.081  1.00  0.00    -0.210 C  
HETATM   18  C   UNL     1     -10.605  11.173  66.085  1.00  0.00    -0.305 C  
HETATM   19  H   UNL     1      -7.380  10.765  66.231  1.00  0.00     0.000 HD 
BRANCH  17  20
HETATM   20  C   UNL     1      -8.974  13.106  66.887  1.00  0.00    -0.209 C  
HETATM   21  O   UNL     1      -7.832  13.435  67.214  1.00  0.00    -0.157 OA 
HETATM   22  N   UNL     1     -10.102  13.890  67.088  1.00  0.00    -0.249 N  
HETATM   23  H   UNL     1     -10.974  13.548  66.686  1.00  0.00     0.000 HD 
BRANCH  22  24
HETATM   24  C   UNL     1     -10.167  15.118  67.795  1.00  0.00    -0.236 A  
HETATM   25  C   UNL     1     -10.198  15.213  69.190  1.00  0.00    -0.249 A  
HETATM   26  C   UNL     1     -10.249  16.456  69.830  1.00  0.00    -0.142 A  
HETATM   27  C   UNL     1     -10.284  17.628  69.083  1.00  0.00    -0.238 A  
HETATM   28  C   UNL     1     -10.287  17.552  67.686  1.00  0.00    -0.360 A  
HETATM   29  C   UNL     1     -10.328  18.772  66.844  1.00  0.00    -0.404 C  
HETATM   30  C   UNL     1     -10.207  16.301  67.048  1.00  0.00    -0.280 A  
HETATM   31  O   UNL     1     -11.040  19.787  67.379  1.00  0.00    -0.338 OA 
HETATM   32  O   UNL     1      -9.797  18.834  65.748  1.00  0.00    -0.464 OA 
ENDBRANCH  22  24
ENDBRANCH  17  20
ENDBRANCH  13  14
ENDBRANCH   3  13
BRANCH   7  33
HETATM   33  C   UNL     1      -8.938   4.590  71.580  1.00  0.00    -0.125 C  
HETATM   34  O   UNL     1     -10.140   3.864  71.325  1.00  0.00    -0.150 OA 
HETATM   35  H   UNL     1      -9.943   2.947  71.480  1.00  0.00     0.000 HD 
HETATM   36  C   UNL     1      -8.502   4.352  73.018  1.00  0.00    -0.098 C  
ENDBRANCH   7  33
TORSDOF 5
ENDMDL
MODEL      166
REMARK 921   NORMALIZED FREE ENERGY PREDICTED BY IDOCK:   -4.94 KCAL/MOL
REMARK 922        TOTAL FREE ENERGY PREDICTED BY IDOCK:   -8.06 KCAL/MOL
REMARK 923 INTER-LIGAND FREE ENERGY PREDICTED BY IDOCK:   -6.23 KCAL/MOL
REMARK 924 INTRA-LIGAND FREE ENERGY PREDICTED BY IDOCK:   -1.83 KCAL/MOL
REMARK 927      BINDING AFFINITY PREDICTED BY RF-SCORE:    0.00 PKD
ROOT
HETATM    1  C   UNL     1      -9.451   6.106  68.662  1.00  0.00    -0.124 C  
HETATM    2  C   UNL     1      -9.347   7.089  69.831  1.00  0.00    -0.150 C  
HETATM    3  C   UNL     1      -9.564   8.428  69.155  1.00  0.00    -0.164 C  
HETATM    4  C   UNL     1      -8.032   6.912  70.579  1.00  0.00    -0.114 C  
HETATM    5  O   UNL     1      -8.499   6.723  65.562  1.00  0.00    -0.144 OA 
HETATM    6  C   UNL     1      -9.805   8.267  67.838  1.00  0.00    -0.169 C  
HETATM    7  C   UNL     1      -8.240   5.571  67.834  1.00  0.00    -0.100 C  
HETATM    8  N   UNL     1      -9.804   6.927  67.469  1.00  0.00    -0.132 N  
HETATM    9  C   UNL     1     -10.145   9.334  66.847  1.00  0.00    -0.256 C  
HETATM   10  O   UNL     1     -10.603  10.426  67.144  1.00  0.00    -0.241 OA 
HETATM   11  O   UNL     1      -9.897   9.011  65.559  1.00  0.00    -0.159 OA 
HETATM   12  C   UNL     1      -8.819   6.398  66.684  1.00  0.00    -0.130 C  
ENDROOT
BRANCH   3  13
HETATM   13  S   UNL     1      -9.668   9.845  70.131  1.00  0.00    -0.126 SA 
BRANCH  13  14
HETATM   14  C   UNL     1     -11.278   9.706  70.999  1.00  0.00    -0.375 C  
HETATM   15  C   UNL     1     -12.456   9.326  70.109  1.00  0.00     0.613 C  
HETATM   16  N   UNL     1     -12.799  10.570  69.442  1.00  0.00    -0.495 NA 
HETATM   17  C   UNL     1     -12.645  11.663  70.428  1.00  0.00    -0.132 C  
HETATM   18  C   UNL     1     -11.680  11.107  71.483  1.00  0.00     0.832 C  
HETATM   19  H   UNL     1     -13.725  10.549  69.014  1.00  0.00     0.000 HD 
BRANCH  17  20
HETATM   20  C   UNL     1     -12.246  12.963  69.674  1.00  0.00    -0.141 C  
HETATM   21  O   UNL     1     -12.731  14.044  70.013  1.00  0.00    -0.276 OA 
HETATM   22  N   UNL     1     -11.254  12.818  68.713  1.00  0.00    -0.267 N  
HETATM   23  H   UNL     1     -10.869  11.881  68.592  1.00  0.00     0.000 HD 
BRANCH  22  24
HETATM   24  C   UNL     1     -10.721  13.835  67.882  1.00  0.00    -0.247 A  
HETATM   25  C   UNL     1      -9.621  14.628  68.229  1.00  0.00    -0.208 A  
HETATM   26  C   UNL     1      -9.133  15.608  67.359  1.00  0.00    -0.203 A  
HETATM   27  C   UNL     1      -9.745  15.823  66.129  1.00  0.00    -0.351 A  
HETATM   28  C   UNL     1     -10.866  15.062  65.779  1.00  0.00    -0.355 A  
HETATM   29  C   UNL     1     -11.558  15.255  64.482  1.00  0.00    -0.312 C  
HETATM   30  C   UNL     1     -11.336  14.059  66.645  1.00  0.00    -0.345 A  
HETATM   31  O   UNL     1     -11.550  16.531  64.038  1.00  0.00    -1.154 OA 
HETATM   32  O   UNL     1     -12.117  14.347  63.892  1.00  0.00    -0.435 OA 
ENDBRANCH  22  24
ENDBRANCH  17  20
ENDBRANCH  13  14
ENDBRANCH   3  13
BRANCH   7  33
HETATM   33  C   UNL     1      -8.185   4.062  67.700  1.00  0.00    -0.094 C  
HETATM   34  O   UNL     1      -7.158   3.771  66.752  1.00  0.00    -0.061 OA 
HETATM   35  H   UNL     1      -7.125   2.825  66.668  1.00  0.00     0.000 HD 
HETATM   36  C   UNL     1      -9.507   3.502  67.197  1.00  0.00    -0.219 C  
ENDBRANCH   7  33
TORSDOF 5
ENDMDL
MODEL      167
REMARK 921   NORMALIZED FREE ENERGY PREDICTED BY IDOCK:   -4.94 KCAL/MOL
REMARK 922        TOTAL FREE ENERGY PREDICTED BY IDOCK:   -8.06 KCAL/MOL
REMARK 923 INTER-LIGAND FREE ENERGY PREDICTED BY IDOCK:   -6.70 KCAL/MOL
REMARK 924 INTRA-LIGAND FREE ENERGY PREDICTED BY IDOCK:   -1.37 KCAL/MOL
REMARK 927      BINDING AFFINITY PREDICTED BY RF-SCORE:    0.00 PKD
ROOT
HETATM    1  C   UNL     1      -8.811   5.170  68.575  1.00  0.00    -0.101 C  
HETATM    2  C   UNL     1      -9.413   5.865  67.351  1.00  0.00    -0.112 C  
HETATM    3  C   UNL     1      -9.678   7.266  67.866  1.00  0.00    -0.140 C  
HETATM    4  C   UNL     1     -10.617   5.098  66.823  1.00  0.00    -0.266 C  
HETATM    5  O   UNL     1      -9.614   5.803  71.714  1.00  0.00    -0.155 OA 
HETATM    6  C   UNL     1      -9.262   7.394  69.142  1.00  0.00    -0.147 C  
HETATM    7  C   UNL     1      -9.622   4.334  69.616  1.00  0.00    -0.275 C  
HETATM    8  N   UNL     1      -8.695   6.221  69.625  1.00  0.00    -0.135 N  
HETATM    9  C   UNL     1      -9.276   8.638  69.973  1.00  0.00    -0.157 C  
HETATM   10  O   UNL     1      -9.320   9.769  69.517  1.00  0.00    -0.185 OA 
HETATM   11  O   UNL     1      -9.245   8.427  71.308  1.00  0.00    -0.150 OA 
HETATM   12  C   UNL     1      -9.306   5.472  70.590  1.00  0.00    -0.158 C  
ENDROOT
BRANCH   3  13
HETATM   13  S   UNL     1     -10.242   8.464  66.763  1.00  0.00    -0.271 SA 
BRANCH  13  14
HETATM   14  C   UNL     1      -8.841   8.749  65.614  1.00  0.00    -0.199 C  
HETATM   15  C   UNL     1      -7.458   8.625  66.244  1.00  0.00    -0.090 C  
HETATM   16  N   UNL     1      -7.284   9.886  66.943  1.00  0.00    -0.090 NA 
HETATM   17  C   UNL     1      -7.869  10.951  66.097  1.00  0.00    -0.144 C  
HETATM   18  C   UNL     1      -8.867  10.224  65.187  1.00  0.00    -0.205 C  
HETATM   19  H   UNL     1      -6.313  10.070  67.197  1.00  0.00     0.000 HD 
BRANCH  17  20
HETATM   20  C   UNL     1      -8.399  12.086  67.018  1.00  0.00    -0.178 C  
HETATM   21  O   UNL     1      -7.727  12.460  67.982  1.00  0.00    -0.113 OA 
HETATM   22  N   UNL     1      -9.580  12.689  66.607  1.00  0.00    -0.243 N  
HETATM   23  H   UNL     1      -9.990  12.346  65.738  1.00  0.00     0.000 HD 
BRANCH  22  24
HETATM   24  C   UNL     1     -10.276  13.733  67.268  1.00  0.00    -0.253 A  
HETATM   25  C   UNL     1     -11.344  13.522  68.147  1.00  0.00    -0.319 A  
HETATM   26  C   UNL     1     -11.982  14.594  68.780  1.00  0.00    -0.301 A  
HETATM   27  C   UNL     1     -11.571  15.900  68.534  1.00  0.00    -0.351 A  
HETATM   28  C   UNL     1     -10.526  16.132  67.633  1.00  0.00    -0.292 A  
HETATM   29  C   UNL     1     -10.053  17.505  67.332  1.00  0.00    -0.325 C  
HETATM   30  C   UNL     1      -9.869  15.049  67.021  1.00  0.00    -0.241 A  
HETATM   31  O   UNL     1     -11.027  18.440  67.358  1.00  0.00    -0.351 OA 
HETATM   32  O   UNL     1      -8.894  17.755  67.049  1.00  0.00    -0.239 OA 
ENDBRANCH  22  24
ENDBRANCH  17  20
ENDBRANCH  13  14
ENDBRANCH   3  13
BRANCH   7  33
HETATM   33  C   UNL     1      -9.060   2.953  69.891  1.00  0.00    -0.121 C  
HETATM   34  O   UNL     1      -9.508   2.110  68.830  1.00  0.00    -0.166 OA 
HETATM   35  H   UNL     1      -9.156   1.244  69.002  1.00  0.00     0.000 HD 
HETATM   36  C   UNL     1      -9.563   2.404  71.216  1.00  0.00    -0.222 C  
ENDBRANCH   7  33
TORSDOF 5
ENDMDL
MODEL      168
REMARK 921   NORMALIZED FREE ENERGY PREDICTED BY IDOCK:   -4.93 KCAL/MOL
REMARK 922        TOTAL FREE ENERGY PREDICTED BY IDOCK:   -8.05 KCAL/MOL
REMARK 923 INTER-LIGAND FREE ENERGY PREDICTED BY IDOCK:   -6.96 KCAL/MOL
REMARK 924 INTRA-LIGAND FREE ENERGY PREDICTED BY IDOCK:   -1.10 KCAL/MOL
REMARK 927      BINDING AFFINITY PREDICTED BY RF-SCORE:    0.00 PKD
ROOT
HETATM    1  C   UNL     1     -11.482  12.486  66.524  1.00  0.00    -0.362 C  
HETATM    2  C   UNL     1     -10.753  11.147  66.658  1.00  0.00    -0.322 C  
HETATM    3  C   UNL     1     -10.931  10.819  68.127  1.00  0.00    -0.257 C  
HETATM    4  C   UNL     1      -9.319  11.254  66.156  1.00  0.00    -0.230 C  
HETATM    5  O   UNL     1     -11.655  14.804  68.869  1.00  0.00    -0.283 OA 
HETATM    6  C   UNL     1     -11.674  11.762  68.741  1.00  0.00    -0.329 C  
HETATM    7  C   UNL     1     -10.803  13.888  66.634  1.00  0.00    -0.289 C  
HETATM    8  N   UNL     1     -12.082  12.758  67.862  1.00  0.00    -0.248 N  
HETATM    9  C   UNL     1     -12.137  11.759  70.163  1.00  0.00    -0.317 C  
HETATM   10  O   UNL     1     -12.221  10.758  70.856  1.00  0.00    -0.325 OA 
HETATM   11  O   UNL     1     -12.460  12.975  70.656  1.00  0.00    -0.331 OA 
HETATM   12  C   UNL     1     -11.590  14.031  67.939  1.00  0.00    -0.343 C  
ENDROOT
BRANCH   3  13
HETATM   13  S   UNL     1     -10.375   9.297  68.713  1.00  0.00    -0.211 SA 
BRANCH  13  14
HETATM   14  C   UNL     1      -9.057   9.706  69.921  1.00  0.00    -0.225 C  
HETATM   15  C   UNL     1      -7.722  10.106  69.304  1.00  0.00    -0.126 C  
HETATM   16  N   UNL     1      -7.127   8.838  68.918  1.00  0.00    -0.065 NA 
HETATM   17  C   UNL     1      -7.447   7.854  69.978  1.00  0.00    -0.079 C  
HETATM   18  C   UNL     1      -8.689   8.421  70.677  1.00  0.00    -0.158 C  
HETATM   19  H   UNL     1      -6.127   8.908  68.731  1.00  0.00     0.000 HD 
BRANCH  17  20
HETATM   20  C   UNL     1      -7.541   6.441  69.335  1.00  0.00    -0.095 C  
HETATM   21  O   UNL     1      -8.071   5.517  69.955  1.00  0.00    -0.094 OA 
HETATM   22  N   UNL     1      -7.104   6.351  68.020  1.00  0.00    -0.080 N  
HETATM   23  H   UNL     1      -6.770   7.213  67.589  1.00  0.00     0.000 HD 
BRANCH  22  24
HETATM   24  C   UNL     1      -7.072   5.185  67.214  1.00  0.00    -0.069 A  
HETATM   25  C   UNL     1      -6.038   4.243  67.246  1.00  0.00    -0.028 A  
HETATM   26  C   UNL     1      -6.070   3.105  66.434  1.00  0.00    -0.024 A  
HETATM   27  C   UNL     1      -7.134   2.894  65.564  1.00  0.00    -0.058 A  
HETATM   28  C   UNL     1      -8.161   3.841  65.494  1.00  0.00    -0.101 A  
HETATM   29  C   UNL     1      -9.315   3.666  64.579  1.00  0.00    -0.149 C  
HETATM   30  C   UNL     1      -8.138   4.970  66.333  1.00  0.00    -0.108 A  
HETATM   31  O   UNL     1      -9.010   3.043  63.421  1.00  0.00    -0.092 OA 
HETATM   32  O   UNL     1     -10.430   4.085  64.838  1.00  0.00    -0.224 OA 
ENDBRANCH  22  24
ENDBRANCH  17  20
ENDBRANCH  13  14
ENDBRANCH   3  13
BRANCH   7  33
HETATM   33  C   UNL     1     -11.108  14.828  65.485  1.00  0.00    -0.346 C  
HETATM   34  O   UNL     1     -10.868  14.097  64.282  1.00  0.00    -0.600 OA 
HETATM   35  H   UNL     1     -11.059  14.686  63.562  1.00  0.00     0.000 HD 
HETATM   36  C   UNL     1     -10.208  16.053  65.516  1.00  0.00    -0.389 C  
ENDBRANCH   7  33
TORSDOF 5
ENDMDL
MODEL      169
REMARK 921   NORMALIZED FREE ENERGY PREDICTED BY IDOCK:   -4.93 KCAL/MOL
REMARK 922        TOTAL FREE ENERGY PREDICTED BY IDOCK:   -8.05 KCAL/MOL
REMARK 923 INTER-LIGAND FREE ENERGY PREDICTED BY IDOCK:   -6.72 KCAL/MOL
REMARK 924 INTRA-LIGAND FREE ENERGY PREDICTED BY IDOCK:   -1.32 KCAL/MOL
REMARK 927      BINDING AFFINITY PREDICTED BY RF-SCORE:    0.00 PKD
ROOT
HETATM    1  C   UNL     1     -11.582  12.813  68.856  1.00  0.00    -0.316 C  
HETATM    2  C   UNL     1     -10.223  12.294  68.377  1.00  0.00    -0.220 C  
HETATM    3  C   UNL     1     -10.133  10.939  69.050  1.00  0.00    -0.196 C  
HETATM    4  C   UNL     1      -9.115  13.287  68.700  1.00  0.00     0.025 C  
HETATM    5  O   UNL     1     -12.933  12.181  71.801  1.00  0.00    -0.397 OA 
HETATM    6  C   UNL     1     -11.252  10.678  69.754  1.00  0.00    -0.297 C  
HETATM    7  C   UNL     1     -11.800  13.727  70.103  1.00  0.00    -0.360 C  
HETATM    8  N   UNL     1     -12.180  11.709  69.658  1.00  0.00    -0.246 N  
HETATM    9  C   UNL     1     -11.581   9.418  70.491  1.00  0.00    -0.235 C  
HETATM   10  O   UNL     1     -11.063   8.336  70.264  1.00  0.00    -0.255 OA 
HETATM   11  O   UNL     1     -12.509   9.556  71.463  1.00  0.00    -0.328 OA 
HETATM   12  C   UNL     1     -12.482  12.506  70.725  1.00  0.00    -0.268 C  
ENDROOT
BRANCH   3  13
HETATM   13  S   UNL     1      -8.799   9.914  68.678  1.00  0.00    -0.133 SA 
BRANCH  13  14
HETATM   14  C   UNL     1      -9.070   9.393  66.940  1.00  0.00    -0.135 C  
HETATM   15  C   UNL     1     -10.531   9.218  66.543  1.00  0.00    -0.134 C  
HETATM   16  N   UNL     1     -10.886   7.925  67.101  1.00  0.00    -0.501 NA 
HETATM   17  C   UNL     1      -9.722   7.027  66.926  1.00  0.00    -0.175 C  
HETATM   18  C   UNL     1      -8.520   7.969  66.778  1.00  0.00    -0.128 C  
HETATM   19  H   UNL     1     -11.745   7.543  66.704  1.00  0.00     0.000 HD 
BRANCH  17  20
HETATM   20  C   UNL     1      -9.712   5.990  68.086  1.00  0.00    -0.127 C  
HETATM   21  O   UNL     1     -10.280   4.906  67.945  1.00  0.00    -0.123 OA 
HETATM   22  N   UNL     1      -8.943   6.334  69.189  1.00  0.00    -0.128 N  
HETATM   23  H   UNL     1      -8.448   7.224  69.142  1.00  0.00     0.000 HD 
BRANCH  22  24
HETATM   24  C   UNL     1      -8.775   5.577  70.376  1.00  0.00    -0.131 A  
HETATM   25  C   UNL     1      -9.660   4.577  70.794  1.00  0.00    -0.253 A  
HETATM   26  C   UNL     1      -9.431   3.854  71.970  1.00  0.00    -0.198 A  
HETATM   27  C   UNL     1      -8.318   4.128  72.757  1.00  0.00    -0.097 A  
HETATM   28  C   UNL     1      -7.440   5.146  72.372  1.00  0.00    -0.095 A  
HETATM   29  C   UNL     1      -6.241   5.481  73.178  1.00  0.00    -0.059 C  
HETATM   30  C   UNL     1      -7.659   5.851  71.174  1.00  0.00    -0.100 A  
HETATM   31  O   UNL     1      -6.411   5.322  74.509  1.00  0.00    -0.062 OA 
HETATM   32  O   UNL     1      -5.210   5.900  72.682  1.00  0.00    -0.021 OA 
ENDBRANCH  22  24
ENDBRANCH  17  20
ENDBRANCH  13  14
ENDBRANCH   3  13
BRANCH   7  33
HETATM   33  C   UNL     1     -12.622  14.973  69.836  1.00  0.00    -0.164 C  
HETATM   34  O   UNL     1     -11.700  16.006  69.490  1.00  0.00    -0.325 OA 
HETATM   35  H   UNL     1     -12.215  16.787  69.322  1.00  0.00     0.000 HD 
HETATM   36  C   UNL     1     -13.408  15.393  71.068  1.00  0.00    -0.545 C  
ENDBRANCH   7  33
TORSDOF 5
ENDMDL
MODEL      170
REMARK 921   NORMALIZED FREE ENERGY PREDICTED BY IDOCK:   -4.88 KCAL/MOL
REMARK 922        TOTAL FREE ENERGY PREDICTED BY IDOCK:   -7.99 KCAL/MOL
REMARK 923 INTER-LIGAND FREE ENERGY PREDICTED BY IDOCK:   -6.96 KCAL/MOL
REMARK 924 INTRA-LIGAND FREE ENERGY PREDICTED BY IDOCK:   -1.03 KCAL/MOL
REMARK 927      BINDING AFFINITY PREDICTED BY RF-SCORE:    0.00 PKD
ROOT
HETATM    1  C   UNL     1      -8.782   5.814  65.765  1.00  0.00    -0.151 C  
HETATM    2  C   UNL     1      -8.882   7.157  66.492  1.00  0.00    -0.154 C  
HETATM    3  C   UNL     1      -8.034   6.927  67.727  1.00  0.00    -0.114 C  
HETATM    4  C   UNL     1     -10.336   7.541  66.731  1.00  0.00    -0.332 C  
HETATM    5  O   UNL     1      -8.512   2.868  67.230  1.00  0.00    -0.086 OA 
HETATM    6  C   UNL     1      -7.487   5.694  67.710  1.00  0.00    -0.077 C  
HETATM    7  C   UNL     1      -9.803   4.641  65.909  1.00  0.00    -0.231 C  
HETATM    8  N   UNL     1      -7.837   4.985  66.567  1.00  0.00    -0.099 N  
HETATM    9  C   UNL     1      -6.529   5.120  68.704  1.00  0.00    -0.040 C  
HETATM   10  O   UNL     1      -5.834   5.787  69.454  1.00  0.00    -0.015 OA 
HETATM   11  O   UNL     1      -6.483   3.769  68.732  1.00  0.00    -0.035 OA 
HETATM   12  C   UNL     1      -8.667   3.901  66.618  1.00  0.00    -0.115 C  
ENDROOT
BRANCH   3  13
HETATM   13  S   UNL     1      -7.743   8.248  68.795  1.00  0.00    -0.116 SA 
BRANCH  13  14
HETATM   14  C   UNL     1      -8.451   7.723  70.404  1.00  0.00    -0.132 C  
HETATM   15  C   UNL     1      -9.707   6.866  70.304  1.00  0.00    -0.172 C  
HETATM   16  N   UNL     1     -10.760   7.829  70.031  1.00  0.00    -0.243 NA 
HETATM   17  C   UNL     1     -10.477   9.040  70.834  1.00  0.00    -0.254 C  
HETATM   18  C   UNL     1      -8.972   8.974  71.125  1.00  0.00    -0.303 C  
HETATM   19  H   UNL     1     -11.694   7.453  70.195  1.00  0.00     0.000 HD 
BRANCH  17  20
HETATM   20  C   UNL     1     -11.030  10.281  70.076  1.00  0.00    -0.311 C  
HETATM   21  O   UNL     1     -11.937  10.950  70.574  1.00  0.00    -0.313 OA 
HETATM   22  N   UNL     1     -10.360  10.617  68.908  1.00  0.00    -0.196 N  
HETATM   23  H   UNL     1      -9.565  10.033  68.653  1.00  0.00     0.000 HD 
BRANCH  22  24
HETATM   24  C   UNL     1     -10.668  11.688  68.031  1.00  0.00    -0.208 A  
HETATM   25  C   UNL     1     -11.394  11.540  66.844  1.00  0.00    -0.324 A  
HETATM   26  C   UNL     1     -11.677  12.639  66.027  1.00  0.00    -0.470 A  
HETATM   27  C   UNL     1     -11.227  13.907  66.376  1.00  0.00    -0.319 A  
HETATM   28  C   UNL     1     -10.471  14.070  67.542  1.00  0.00    -0.252 A  
HETATM   29  C   UNL     1      -9.962  15.400  67.956  1.00  0.00    -0.221 C  
HETATM   30  C   UNL     1     -10.213  12.966  68.375  1.00  0.00    -0.238 A  
HETATM   31  O   UNL     1      -9.636  16.210  66.926  1.00  0.00    -0.221 OA 
HETATM   32  O   UNL     1      -9.816  15.714  69.125  1.00  0.00    -0.213 OA 
ENDBRANCH  22  24
ENDBRANCH  17  20
ENDBRANCH  13  14
ENDBRANCH   3  13
BRANCH   7  33
HETATM   33  C   UNL     1     -10.327   4.097  64.594  1.00  0.00    -0.175 C  
HETATM   34  O   UNL     1     -11.741   4.293  64.604  1.00  0.00    -0.821 OA 
HETATM   35  H   UNL     1     -12.069   3.951  63.780  1.00  0.00     0.000 HD 
HETATM   36  C   UNL     1     -10.026   2.613  64.449  1.00  0.00    -0.014 C  
ENDBRANCH   7  33
TORSDOF 5
ENDMDL
MODEL      171
REMARK 921   NORMALIZED FREE ENERGY PREDICTED BY IDOCK:   -4.85 KCAL/MOL
REMARK 922        TOTAL FREE ENERGY PREDICTED BY IDOCK:   -7.95 KCAL/MOL
REMARK 923 INTER-LIGAND FREE ENERGY PREDICTED BY IDOCK:   -6.44 KCAL/MOL
REMARK 924 INTRA-LIGAND FREE ENERGY PREDICTED BY IDOCK:   -1.51 KCAL/MOL
REMARK 927      BINDING AFFINITY PREDICTED BY RF-SCORE:    0.00 PKD
ROOT
HETATM    1  C   UNL     1     -11.766  13.223  70.562  1.00  0.00     0.007 C  
HETATM    2  C   UNL     1     -12.176  11.934  71.279  1.00  0.00    -0.050 C  
HETATM    3  C   UNL     1     -12.045  10.893  70.185  1.00  0.00    -0.349 C  
HETATM    4  C   UNL     1     -13.551  12.077  71.917  1.00  0.00    -0.145 C  
HETATM    5  O   UNL     1     -12.320  13.892  67.377  1.00  0.00    -0.316 OA 
HETATM    6  C   UNL     1     -11.590  11.451  69.045  1.00  0.00    -0.317 C  
HETATM    7  C   UNL     1     -12.757  14.219  69.879  1.00  0.00    -0.093 C  
HETATM    8  N   UNL     1     -11.354  12.813  69.190  1.00  0.00    -0.280 N  
HETATM    9  C   UNL     1     -11.254  10.747  67.769  1.00  0.00    -0.316 C  
HETATM   10  O   UNL     1     -10.998   9.557  67.688  1.00  0.00    -0.248 OA 
HETATM   11  O   UNL     1     -11.261  11.533  66.669  1.00  0.00    -0.306 OA 
HETATM   12  C   UNL     1     -12.130  13.748  68.565  1.00  0.00    -0.292 C  
ENDROOT
BRANCH   3  13
HETATM   13  S   UNL     1     -12.280   9.233  70.584  1.00  0.00     0.045 SA 
BRANCH  13  14
HETATM   14  C   UNL     1     -10.764   8.743  71.492  1.00  0.00    -0.301 C  
HETATM   15  C   UNL     1      -9.469   9.336  70.947  1.00  0.00    -0.261 C  
HETATM   16  N   UNL     1      -9.174   8.511  69.788  1.00  0.00    -0.155 NA 
HETATM   17  C   UNL     1      -9.530   7.115  70.131  1.00  0.00    -0.161 C  
HETATM   18  C   UNL     1     -10.544   7.239  71.275  1.00  0.00    -0.236 C  
HETATM   19  H   UNL     1      -8.211   8.608  69.466  1.00  0.00     0.000 HD 
BRANCH  17  20
HETATM   20  C   UNL     1      -9.966   6.378  68.832  1.00  0.00    -0.147 C  
HETATM   21  O   UNL     1     -11.155   6.119  68.642  1.00  0.00    -0.339 OA 
HETATM   22  N   UNL     1      -8.959   6.159  67.901  1.00  0.00    -0.114 N  
HETATM   23  H   UNL     1      -8.031   6.506  68.142  1.00  0.00     0.000 HD 
BRANCH  22  24
HETATM   24  C   UNL     1      -9.087   5.504  66.651  1.00  0.00    -0.126 A  
HETATM   25  C   UNL     1      -9.965   4.440  66.415  1.00  0.00    -0.252 A  
HETATM   26  C   UNL     1     -10.055   3.843  65.153  1.00  0.00    -0.145 A  
HETATM   27  C   UNL     1      -9.258   4.292  64.105  1.00  0.00    -0.150 A  
HETATM   28  C   UNL     1      -8.351   5.333  64.331  1.00  0.00    -0.137 A  
HETATM   29  C   UNL     1      -7.475   5.845  63.250  1.00  0.00    -0.073 C  
HETATM   30  C   UNL     1      -8.284   5.948  65.594  1.00  0.00    -0.134 A  
HETATM   31  O   UNL     1      -7.080   4.901  62.368  1.00  0.00    -0.030 OA 
HETATM   32  O   UNL     1      -7.114   7.007  63.190  1.00  0.00    -0.057 OA 
ENDBRANCH  22  24
ENDBRANCH  17  20
ENDBRANCH  13  14
ENDBRANCH   3  13
BRANCH   7  33
HETATM   33  C   UNL     1     -12.585  15.666  70.299  1.00  0.00    -0.280 C  
HETATM   34  O   UNL     1     -12.234  16.395  69.124  1.00  0.00    -0.185 OA 
HETATM   35  H   UNL     1     -12.126  17.302  69.387  1.00  0.00     0.000 HD 
HETATM   36  C   UNL     1     -11.480  15.815  71.333  1.00  0.00    -0.496 C  
ENDBRANCH   7  33
TORSDOF 5
ENDMDL
MODEL      172
REMARK 921   NORMALIZED FREE ENERGY PREDICTED BY IDOCK:   -4.84 KCAL/MOL
REMARK 922        TOTAL FREE ENERGY PREDICTED BY IDOCK:   -7.94 KCAL/MOL
REMARK 923 INTER-LIGAND FREE ENERGY PREDICTED BY IDOCK:   -7.12 KCAL/MOL
REMARK 924 INTRA-LIGAND FREE ENERGY PREDICTED BY IDOCK:   -0.82 KCAL/MOL
REMARK 927      BINDING AFFINITY PREDICTED BY RF-SCORE:    0.00 PKD
ROOT
HETATM    1  C   UNL     1      -7.794   7.041  71.496  1.00  0.00    -0.098 C  
HETATM    2  C   UNL     1      -7.488   8.184  70.525  1.00  0.00    -0.063 C  
HETATM    3  C   UNL     1      -8.862   8.760  70.249  1.00  0.00    -0.160 C  
HETATM    4  C   UNL     1      -6.709   7.681  69.317  1.00  0.00    -0.044 C  
HETATM    5  O   UNL     1     -10.535   5.201  71.469  1.00  0.00    -0.218 OA 
HETATM    6  C   UNL     1      -9.805   8.114  70.965  1.00  0.00    -0.179 C  
HETATM    7  C   UNL     1      -8.029   5.554  71.080  1.00  0.00    -0.111 C  
HETATM    8  N   UNL     1      -9.259   7.116  71.764  1.00  0.00    -0.140 N  
HETATM    9  C   UNL     1     -11.264   8.434  71.031  1.00  0.00    -0.266 C  
HETATM   10  O   UNL     1     -11.742   9.521  70.745  1.00  0.00    -0.278 OA 
HETATM   11  O   UNL     1     -12.052   7.411  71.429  1.00  0.00    -0.297 OA 
HETATM   12  C   UNL     1      -9.478   5.791  71.510  1.00  0.00    -0.150 C  
ENDROOT
BRANCH   3  13
HETATM   13  S   UNL     1      -8.990  10.187  69.291  1.00  0.00    -0.183 SA 
BRANCH  13  14
HETATM   14  C   UNL     1      -9.876   9.662  67.773  1.00  0.00    -0.159 C  
HETATM   15  C   UNL     1      -9.112   9.887  66.473  1.00  0.00    -0.152 C  
HETATM   16  N   UNL     1      -9.285  11.306  66.215  1.00  0.00    -0.194 NA 
HETATM   17  C   UNL     1     -10.669  11.665  66.599  1.00  0.00    -0.270 C  
HETATM   18  C   UNL     1     -11.095  10.577  67.592  1.00  0.00    -0.375 C  
HETATM   19  H   UNL     1      -9.059  11.566  65.254  1.00  0.00     0.000 HD 
BRANCH  17  20
HETATM   20  C   UNL     1     -10.688  13.147  67.071  1.00  0.00    -0.262 C  
HETATM   21  O   UNL     1     -11.734  13.645  67.491  1.00  0.00    -0.328 OA 
HETATM   22  N   UNL     1      -9.455  13.786  67.087  1.00  0.00    -0.235 N  
HETATM   23  H   UNL     1      -8.649  13.232  66.800  1.00  0.00     0.000 HD 
BRANCH  22  24
HETATM   24  C   UNL     1      -9.200  15.130  67.461  1.00  0.00    -0.186 A  
HETATM   25  C   UNL     1      -8.269  15.503  68.437  1.00  0.00    -0.145 A  
HETATM   26  C   UNL     1      -8.053  16.849  68.752  1.00  0.00    -0.251 A  
HETATM   27  C   UNL     1      -8.775  17.846  68.106  1.00  0.00    -0.268 A  
HETATM   28  C   UNL     1      -9.733  17.490  67.151  1.00  0.00    -0.279 A  
HETATM   29  C   UNL     1     -10.533  18.514  66.437  1.00  0.00    -0.406 C  
HETATM   30  C   UNL     1      -9.927  16.137  66.817  1.00  0.00    -0.264 A  
HETATM   31  O   UNL     1     -10.819  19.605  67.179  1.00  0.00    -0.484 OA 
HETATM   32  O   UNL     1     -10.927  18.362  65.294  1.00  0.00    -0.563 OA 
ENDBRANCH  22  24
ENDBRANCH  17  20
ENDBRANCH  13  14
ENDBRANCH   3  13
BRANCH   7  33
HETATM   33  C   UNL     1      -7.190   4.547  71.842  1.00  0.00    -0.061 C  
HETATM   34  O   UNL     1      -5.825   4.904  71.628  1.00  0.00    -0.012 OA 
HETATM   35  H   UNL     1      -5.300   4.272  72.105  1.00  0.00     0.000 HD 
HETATM   36  C   UNL     1      -7.426   3.133  71.335  1.00  0.00    -0.040 C  
ENDBRANCH   7  33
TORSDOF 5
ENDMDL
MODEL      173
REMARK 921   NORMALIZED FREE ENERGY PREDICTED BY IDOCK:   -4.81 KCAL/MOL
REMARK 922        TOTAL FREE ENERGY PREDICTED BY IDOCK:   -7.90 KCAL/MOL
REMARK 923 INTER-LIGAND FREE ENERGY PREDICTED BY IDOCK:   -6.98 KCAL/MOL
REMARK 924 INTRA-LIGAND FREE ENERGY PREDICTED BY IDOCK:   -0.93 KCAL/MOL
REMARK 927      BINDING AFFINITY PREDICTED BY RF-SCORE:    0.00 PKD
ROOT
HETATM    1  C   UNL     1      -8.673   6.926  67.108  1.00  0.00    -0.120 C  
HETATM    2  C   UNL     1      -8.179   8.349  66.836  1.00  0.00    -0.103 C  
HETATM    3  C   UNL     1      -8.573   9.082  68.103  1.00  0.00    -0.130 C  
HETATM    4  C   UNL     1      -8.756   8.888  65.535  1.00  0.00    -0.215 C  
HETATM    5  O   UNL     1     -11.350   6.142  68.873  1.00  0.00    -0.367 OA 
HETATM    6  C   UNL     1      -9.145   8.239  68.986  1.00  0.00    -0.147 C  
HETATM    7  C   UNL     1     -10.062   6.363  66.671  1.00  0.00    -0.206 C  
HETATM    8  N   UNL     1      -9.203   6.937  68.501  1.00  0.00    -0.130 N  
HETATM    9  C   UNL     1      -9.596   8.559  70.376  1.00  0.00    -0.172 C  
HETATM   10  O   UNL     1      -9.189   9.507  71.029  1.00  0.00    -0.209 OA 
HETATM   11  O   UNL     1     -10.521   7.713  70.881  1.00  0.00    -0.205 OA 
HETATM   12  C   UNL     1     -10.388   6.347  68.166  1.00  0.00    -0.192 C  
ENDROOT
BRANCH   3  13
HETATM   13  S   UNL     1      -8.081  10.721  68.303  1.00  0.00    -0.128 SA 
BRANCH  13  14
HETATM   14  C   UNL     1      -6.290  10.637  68.691  1.00  0.00    -0.046 C  
HETATM   15  C   UNL     1      -5.951  10.710  70.176  1.00  0.00    -0.098 C  
HETATM   16  N   UNL     1      -6.063  12.124  70.485  1.00  0.00    -0.481 NA 
HETATM   17  C   UNL     1      -5.523  12.878  69.331  1.00  0.00    -0.080 C  
HETATM   18  C   UNL     1      -5.624  11.909  68.147  1.00  0.00    -0.045 C  
HETATM   19  H   UNL     1      -5.616  12.375  71.367  1.00  0.00     0.000 HD 
BRANCH  17  20
HETATM   20  C   UNL     1      -6.263  14.243  69.235  1.00  0.00    -0.108 C  
HETATM   21  O   UNL     1      -7.362  14.385  69.775  1.00  0.00    -0.038 OA 
HETATM   22  N   UNL     1      -5.554  15.267  68.621  1.00  0.00    -0.087 N  
HETATM   23  H   UNL     1      -4.614  15.041  68.297  1.00  0.00     0.000 HD 
BRANCH  22  24
HETATM   24  C   UNL     1      -6.002  16.594  68.398  1.00  0.00    -0.124 A  
HETATM   25  C   UNL     1      -6.689  17.001  67.249  1.00  0.00    -0.195 A  
HETATM   26  C   UNL     1      -7.117  18.324  67.093  1.00  0.00    -0.211 A  
HETATM   27  C   UNL     1      -6.853  19.268  68.079  1.00  0.00    -0.267 A  
HETATM   28  C   UNL     1      -6.138  18.886  69.220  1.00  0.00    -0.274 A  
HETATM   29  C   UNL     1      -5.825  19.856  70.298  1.00  0.00    -0.311 C  
HETATM   30  C   UNL     1      -5.734  17.549  69.385  1.00  0.00    -0.212 A  
HETATM   31  O   UNL     1      -5.607  21.114  69.860  1.00  0.00    -0.486 OA 
HETATM   32  O   UNL     1      -5.735  19.531  71.469  1.00  0.00    -0.260 OA 
ENDBRANCH  22  24
ENDBRANCH  17  20
ENDBRANCH  13  14
ENDBRANCH   3  13
BRANCH   7  33
HETATM   33  C   UNL     1     -10.001   5.050  65.917  1.00  0.00    -0.167 C  
HETATM   34  O   UNL     1     -11.344   4.717  65.562  1.00  0.00    -0.940 OA 
HETATM   35  H   UNL     1     -11.305   3.894  65.090  1.00  0.00     0.000 HD 
HETATM   36  C   UNL     1      -9.421   3.941  66.781  1.00  0.00    -0.223 C  
ENDBRANCH   7  33
TORSDOF 5
ENDMDL
MODEL      174
REMARK 921   NORMALIZED FREE ENERGY PREDICTED BY IDOCK:   -4.80 KCAL/MOL
REMARK 922        TOTAL FREE ENERGY PREDICTED BY IDOCK:   -7.89 KCAL/MOL
REMARK 923 INTER-LIGAND FREE ENERGY PREDICTED BY IDOCK:   -6.97 KCAL/MOL
REMARK 924 INTRA-LIGAND FREE ENERGY PREDICTED BY IDOCK:   -0.92 KCAL/MOL
REMARK 927      BINDING AFFINITY PREDICTED BY RF-SCORE:    0.00 PKD
ROOT
HETATM    1  C   UNL     1      -9.504  16.192  67.327  1.00  0.00    -0.226 C  
HETATM    2  C   UNL     1      -8.577  15.004  67.057  1.00  0.00    -0.266 C  
HETATM    3  C   UNL     1      -9.216  13.896  67.871  1.00  0.00    -0.198 C  
HETATM    4  C   UNL     1      -7.133  15.349  67.396  1.00  0.00    -0.229 C  
HETATM    5  O   UNL     1     -11.116  16.747  70.154  1.00  0.00    -0.228 OA 
HETATM    6  C   UNL     1     -10.342  14.331  68.470  1.00  0.00    -0.244 C  
HETATM    7  C   UNL     1      -9.282  17.263  68.442  1.00  0.00    -0.268 C  
HETATM    8  N   UNL     1     -10.614  15.660  68.167  1.00  0.00    -0.266 N  
HETATM    9  C   UNL     1     -11.296  13.522  69.291  1.00  0.00    -0.262 C  
HETATM   10  O   UNL     1     -11.390  12.307  69.235  1.00  0.00    -0.255 OA 
HETATM   11  O   UNL     1     -12.068  14.242  70.135  1.00  0.00    -0.297 OA 
HETATM   12  C   UNL     1     -10.516  16.647  69.106  1.00  0.00    -0.333 C  
ENDROOT
BRANCH   3  13
HETATM   13  S   UNL     1      -8.572  12.302  67.755  1.00  0.00    -0.181 SA 
BRANCH  13  14
HETATM   14  C   UNL     1      -9.283  11.613  66.212  1.00  0.00    -0.217 C  
HETATM   15  C   UNL     1     -10.806  11.643  66.138  1.00  0.00    -0.294 C  
HETATM   16  N   UNL     1     -11.213  10.516  66.958  1.00  0.00    -0.239 NA 
HETATM   17  C   UNL     1     -10.254   9.414  66.713  1.00  0.00    -0.250 C  
HETATM   18  C   UNL     1      -8.990  10.106  66.184  1.00  0.00    -0.171 C  
HETATM   19  H   UNL     1     -12.182  10.239  66.802  1.00  0.00     0.000 HD 
BRANCH  17  20
HETATM   20  C   UNL     1     -10.141   8.553  68.003  1.00  0.00    -0.200 C  
HETATM   21  O   UNL     1     -11.148   8.314  68.672  1.00  0.00     0.128 OA 
HETATM   22  N   UNL     1      -8.889   8.008  68.252  1.00  0.00    -0.133 N  
HETATM   23  H   UNL     1      -8.159   8.209  67.569  1.00  0.00     0.000 HD 
BRANCH  22  24
HETATM   24  C   UNL     1      -8.518   7.201  69.357  1.00  0.00    -0.134 A  
HETATM   25  C   UNL     1      -7.530   6.212  69.303  1.00  0.00    -0.089 A  
HETATM   26  C   UNL     1      -7.200   5.457  70.433  1.00  0.00    -0.063 A  
HETATM   27  C   UNL     1      -7.863   5.669  71.637  1.00  0.00    -0.109 A  
HETATM   28  C   UNL     1      -8.876   6.631  71.702  1.00  0.00    -0.134 A  
HETATM   29  C   UNL     1      -9.617   6.892  72.960  1.00  0.00    -0.155 C  
HETATM   30  C   UNL     1      -9.185   7.407  70.570  1.00  0.00    -0.157 A  
HETATM   31  O   UNL     1      -9.794   5.799  73.732  1.00  0.00    -0.155 OA 
HETATM   32  O   UNL     1     -10.059   7.991  73.247  1.00  0.00    -0.310 OA 
ENDBRANCH  22  24
ENDBRANCH  17  20
ENDBRANCH  13  14
ENDBRANCH   3  13
BRANCH   7  33
HETATM   33  C   UNL     1      -9.346  18.698  67.959  1.00  0.00    -0.312 C  
HETATM   34  O   UNL     1     -10.723  18.991  67.724  1.00  0.00    -0.415 OA 
HETATM   35  H   UNL     1     -10.763  19.891  67.421  1.00  0.00     0.000 HD 
HETATM   36  C   UNL     1      -8.565  18.883  66.667  1.00  0.00    -0.312 C  
ENDBRANCH   7  33
TORSDOF 5
ENDMDL
MODEL      175
REMARK 921   NORMALIZED FREE ENERGY PREDICTED BY IDOCK:   -4.77 KCAL/MOL
REMARK 922        TOTAL FREE ENERGY PREDICTED BY IDOCK:   -7.85 KCAL/MOL
REMARK 923 INTER-LIGAND FREE ENERGY PREDICTED BY IDOCK:   -7.07 KCAL/MOL
REMARK 924 INTRA-LIGAND FREE ENERGY PREDICTED BY IDOCK:   -0.79 KCAL/MOL
REMARK 927      BINDING AFFINITY PREDICTED BY RF-SCORE:    0.00 PKD
ROOT
HETATM    1  C   UNL     1     -10.440  15.988  66.688  1.00  0.00    -0.304 C  
HETATM    2  C   UNL     1      -9.300  14.994  66.453  1.00  0.00    -0.334 C  
HETATM    3  C   UNL     1      -9.710  13.814  67.312  1.00  0.00    -0.242 C  
HETATM    4  C   UNL     1      -7.951  15.625  66.769  1.00  0.00    -0.246 C  
HETATM    5  O   UNL     1     -12.127  16.324  69.506  1.00  0.00    -0.095 OA 
HETATM    6  C   UNL     1     -10.900  14.044  67.904  1.00  0.00    -0.244 C  
HETATM    7  C   UNL     1     -10.430  17.122  67.762  1.00  0.00    -0.362 C  
HETATM    8  N   UNL     1     -11.425  15.282  67.555  1.00  0.00    -0.309 N  
HETATM    9  C   UNL     1     -11.677  13.096  68.761  1.00  0.00    -0.324 C  
HETATM   10  O   UNL     1     -11.533  11.884  68.750  1.00  0.00    -0.239 OA 
HETATM   11  O   UNL     1     -12.574  13.682  69.585  1.00  0.00    -0.185 OA 
HETATM   12  C   UNL     1     -11.520  16.303  68.458  1.00  0.00    -0.272 C  
ENDROOT
BRANCH   3  13
HETATM   13  S   UNL     1      -8.768  12.373  67.249  1.00  0.00    -0.198 SA 
BRANCH  13  14
HETATM   14  C   UNL     1      -7.185  12.803  68.070  1.00  0.00    -0.115 C  
HETATM   15  C   UNL     1      -5.935  12.315  67.348  1.00  0.00    -0.149 C  
HETATM   16  N   UNL     1      -5.861  10.908  67.701  1.00  0.00    -0.043 NA 
HETATM   17  C   UNL     1      -6.273  10.780  69.118  1.00  0.00    -0.045 C  
HETATM   18  C   UNL     1      -7.112  12.033  69.396  1.00  0.00     0.085 C  
HETATM   19  H   UNL     1      -4.945  10.498  67.516  1.00  0.00     0.000 HD 
BRANCH  17  20
HETATM   20  C   UNL     1      -6.934   9.387  69.322  1.00  0.00    -0.053 C  
HETATM   21  O   UNL     1      -6.277   8.459  69.799  1.00  0.00    -0.032 OA 
HETATM   22  N   UNL     1      -8.292   9.322  69.044  1.00  0.00    -0.120 N  
HETATM   23  H   UNL     1      -8.739  10.187  68.742  1.00  0.00     0.000 HD 
BRANCH  22  24
HETATM   24  C   UNL     1      -9.124   8.178  69.137  1.00  0.00    -0.148 A  
HETATM   25  C   UNL     1     -10.108   8.007  70.117  1.00  0.00    -0.194 A  
HETATM   26  C   UNL     1     -10.908   6.859  70.147  1.00  0.00    -0.300 A  
HETATM   27  C   UNL     1     -10.728   5.854  69.204  1.00  0.00    -0.394 A  
HETATM   28  C   UNL     1      -9.727   5.992  68.236  1.00  0.00    -0.138 A  
HETATM   29  C   UNL     1      -9.491   4.947  67.210  1.00  0.00    -0.142 C  
HETATM   30  C   UNL     1      -8.945   7.160  68.192  1.00  0.00    -0.128 A  
HETATM   31  O   UNL     1      -9.720   3.689  67.644  1.00  0.00    -0.176 OA 
HETATM   32  O   UNL     1      -9.088   5.204  66.089  1.00  0.00    -0.135 OA 
ENDBRANCH  22  24
ENDBRANCH  17  20
ENDBRANCH  13  14
ENDBRANCH   3  13
BRANCH   7  33
HETATM   33  C   UNL     1     -10.773  18.499  67.228  1.00  0.00    -0.374 C  
HETATM   34  O   UNL     1     -10.188  18.592  65.929  1.00  0.00    -0.533 OA 
HETATM   35  H   UNL     1     -10.402  19.456  65.595  1.00  0.00     0.000 HD 
HETATM   36  C   UNL     1     -10.203  19.595  68.115  1.00  0.00    -0.580 C  
ENDBRANCH   7  33
TORSDOF 5
ENDMDL
MODEL      176
REMARK 921   NORMALIZED FREE ENERGY PREDICTED BY IDOCK:   -4.75 KCAL/MOL
REMARK 922        TOTAL FREE ENERGY PREDICTED BY IDOCK:   -7.82 KCAL/MOL
REMARK 923 INTER-LIGAND FREE ENERGY PREDICTED BY IDOCK:   -6.75 KCAL/MOL
REMARK 924 INTRA-LIGAND FREE ENERGY PREDICTED BY IDOCK:   -1.07 KCAL/MOL
REMARK 927      BINDING AFFINITY PREDICTED BY RF-SCORE:    0.00 PKD
ROOT
HETATM    1  C   UNL     1      -9.884  15.763  66.676  1.00  0.00    -0.252 C  
HETATM    2  C   UNL     1      -8.804  14.687  66.542  1.00  0.00    -0.190 C  
HETATM    3  C   UNL     1      -9.305  13.600  67.471  1.00  0.00    -0.223 C  
HETATM    4  C   UNL     1      -7.424  15.256  66.845  1.00  0.00     0.013 C  
HETATM    5  O   UNL     1     -11.605  16.404  69.419  1.00  0.00    -0.225 OA 
HETATM    6  C   UNL     1     -10.489  13.943  68.015  1.00  0.00    -0.243 C  
HETATM    7  C   UNL     1      -9.825  16.969  67.667  1.00  0.00    -0.257 C  
HETATM    8  N   UNL     1     -10.929  15.183  67.566  1.00  0.00    -0.302 N  
HETATM    9  C   UNL     1     -11.343  13.109  68.918  1.00  0.00    -0.289 C  
HETATM   10  O   UNL     1     -11.274  11.893  68.997  1.00  0.00    -0.227 OA 
HETATM   11  O   UNL     1     -12.217  13.807  69.675  1.00  0.00    -0.332 OA 
HETATM   12  C   UNL     1     -10.978  16.271  68.391  1.00  0.00    -0.351 C  
ENDROOT
BRANCH   3  13
HETATM   13  S   UNL     1      -8.454  12.102  67.535  1.00  0.00    -0.180 SA 
BRANCH  13  14
HETATM   14  C   UNL     1      -8.665  11.364  65.869  1.00  0.00    -0.101 C  
HETATM   15  C   UNL     1     -10.094  10.962  65.522  1.00  0.00    -0.267 C  
HETATM   16  N   UNL     1     -10.277   9.703  66.223  1.00  0.00    -0.246 NA 
HETATM   17  C   UNL     1      -9.008   8.947  66.122  1.00  0.00    -0.178 C  
HETATM   18  C   UNL     1      -7.938  10.013  65.851  1.00  0.00    -0.124 C  
HETATM   19  H   UNL     1     -11.082   9.174  65.886  1.00  0.00     0.000 HD 
BRANCH  17  20
HETATM   20  C   UNL     1      -8.858   8.054  67.387  1.00  0.00    -0.131 C  
HETATM   21  O   UNL     1      -8.405   8.533  68.428  1.00  0.00    -0.121 OA 
HETATM   22  N   UNL     1      -9.367   6.767  67.274  1.00  0.00    -0.131 N  
HETATM   23  H   UNL     1      -9.801   6.523  66.384  1.00  0.00     0.000 HD 
BRANCH  22  24
HETATM   24  C   UNL     1      -9.348   5.756  68.268  1.00  0.00    -0.117 A  
HETATM   25  C   UNL     1     -10.307   5.640  69.280  1.00  0.00    -0.340 A  
HETATM   26  C   UNL     1     -10.240   4.611  70.225  1.00  0.00    -0.205 A  
HETATM   27  C   UNL     1      -9.204   3.685  70.183  1.00  0.00    -0.221 A  
HETATM   28  C   UNL     1      -8.218   3.804  69.197  1.00  0.00    -0.073 A  
HETATM   29  C   UNL     1      -7.089   2.846  69.111  1.00  0.00    -0.044 C  
HETATM   30  C   UNL     1      -8.304   4.824  68.233  1.00  0.00    -0.091 A  
HETATM   31  O   UNL     1      -6.672   2.378  70.307  1.00  0.00    -0.032 OA 
HETATM   32  O   UNL     1      -6.562   2.543  68.055  1.00  0.00    -0.034 OA 
ENDBRANCH  22  24
ENDBRANCH  17  20
ENDBRANCH  13  14
ENDBRANCH   3  13
BRANCH   7  33
HETATM   33  C   UNL     1     -10.070  18.322  67.028  1.00  0.00    -0.360 C  
HETATM   34  O   UNL     1      -9.440  18.291  65.747  1.00  0.00    -0.467 OA 
HETATM   35  H   UNL     1      -9.593  19.139  65.347  1.00  0.00     0.000 HD 
HETATM   36  C   UNL     1      -9.465  19.444  67.858  1.00  0.00    -0.407 C  
ENDBRANCH   7  33
TORSDOF 5
ENDMDL
MODEL      177
REMARK 921   NORMALIZED FREE ENERGY PREDICTED BY IDOCK:   -4.75 KCAL/MOL
REMARK 922        TOTAL FREE ENERGY PREDICTED BY IDOCK:   -7.82 KCAL/MOL
REMARK 923 INTER-LIGAND FREE ENERGY PREDICTED BY IDOCK:   -6.72 KCAL/MOL
REMARK 924 INTRA-LIGAND FREE ENERGY PREDICTED BY IDOCK:   -1.10 KCAL/MOL
REMARK 927      BINDING AFFINITY PREDICTED BY RF-SCORE:    0.00 PKD
ROOT
HETATM    1  C   UNL     1     -10.443  17.360  67.394  1.00  0.00    -0.336 C  
HETATM    2  C   UNL     1      -9.604  16.357  66.598  1.00  0.00    -0.273 C  
HETATM    3  C   UNL     1      -9.829  15.065  67.358  1.00  0.00    -0.224 C  
HETATM    4  C   UNL     1      -8.162  16.828  66.473  1.00  0.00    -0.325 C  
HETATM    5  O   UNL     1     -10.944  17.262  70.656  1.00  0.00     0.426 OA 
HETATM    6  C   UNL     1     -10.684  15.254  68.383  1.00  0.00    -0.250 C  
HETATM    7  C   UNL     1      -9.899  18.266  68.544  1.00  0.00    -0.400 C  
HETATM    8  N   UNL     1     -11.133  16.567  68.451  1.00  0.00    -0.359 N  
HETATM    9  C   UNL     1     -11.218  14.212  69.315  1.00  0.00    -0.269 C  
HETATM   10  O   UNL     1     -11.247  13.018  69.066  1.00  0.00    -0.254 OA 
HETATM   11  O   UNL     1     -11.672  14.688  70.495  1.00  0.00    -0.271 OA 
HETATM   12  C   UNL     1     -10.762  17.402  69.467  1.00  0.00     0.218 C  
ENDROOT
BRANCH   3  13
HETATM   13  S   UNL     1      -9.169  13.603  66.725  1.00  0.00    -0.212 SA 
BRANCH  13  14
HETATM   14  C   UNL     1     -10.296  13.127  65.358  1.00  0.00    -0.301 C  
HETATM   15  C   UNL     1     -11.754  12.945  65.762  1.00  0.00    -0.390 C  
HETATM   16  N   UNL     1     -11.777  11.633  66.385  1.00  0.00    -0.439 NA 
HETATM   17  C   UNL     1     -10.871  10.754  65.611  1.00  0.00     0.006 C  
HETATM   18  C   UNL     1      -9.912  11.714  64.896  1.00  0.00    -0.293 C  
HETATM   19  H   UNL     1     -12.720  11.251  66.474  1.00  0.00     0.000 HD 
BRANCH  17  20
HETATM   20  C   UNL     1     -10.271   9.687  66.570  1.00  0.00    -0.224 C  
HETATM   21  O   UNL     1      -9.997   9.990  67.733  1.00  0.00    -0.159 OA 
HETATM   22  N   UNL     1     -10.191   8.399  66.058  1.00  0.00    -0.305 N  
HETATM   23  H   UNL     1     -10.537   8.262  65.109  1.00  0.00     0.000 HD 
BRANCH  22  24
HETATM   24  C   UNL     1      -9.676   7.254  66.716  1.00  0.00    -0.198 A  
HETATM   25  C   UNL     1      -8.873   6.292  66.094  1.00  0.00    -0.160 A  
HETATM   26  C   UNL     1      -8.385   5.189  66.802  1.00  0.00    -0.107 A  
HETATM   27  C   UNL     1      -8.702   5.021  68.146  1.00  0.00    -0.106 A  
HETATM   28  C   UNL     1      -9.530   5.956  68.777  1.00  0.00    -0.143 A  
HETATM   29  C   UNL     1      -9.903   5.820  70.206  1.00  0.00    -0.189 C  
HETATM   30  C   UNL     1      -9.996   7.077  68.068  1.00  0.00    -0.178 A  
HETATM   31  O   UNL     1     -10.033   4.542  70.622  1.00  0.00    -0.212 OA 
HETATM   32  O   UNL     1     -10.110   6.782  70.926  1.00  0.00    -0.190 OA 
ENDBRANCH  22  24
ENDBRANCH  17  20
ENDBRANCH  13  14
ENDBRANCH   3  13
BRANCH   7  33
HETATM   33  C   UNL     1     -10.228  19.739  68.396  1.00  0.00    -0.449 C  
HETATM   34  O   UNL     1     -10.611  20.206  69.689  1.00  0.00    -0.544 OA 
HETATM   35  H   UNL     1     -10.817  21.129  69.595  1.00  0.00     0.000 HD 
HETATM   36  C   UNL     1     -11.376  19.954  67.422  1.00  0.00     0.388 C  
ENDBRANCH   7  33
TORSDOF 5
ENDMDL
MODEL      178
REMARK 921   NORMALIZED FREE ENERGY PREDICTED BY IDOCK:   -4.74 KCAL/MOL
REMARK 922        TOTAL FREE ENERGY PREDICTED BY IDOCK:   -7.81 KCAL/MOL
REMARK 923 INTER-LIGAND FREE ENERGY PREDICTED BY IDOCK:   -6.63 KCAL/MOL
REMARK 924 INTRA-LIGAND FREE ENERGY PREDICTED BY IDOCK:   -1.18 KCAL/MOL
REMARK 927      BINDING AFFINITY PREDICTED BY RF-SCORE:    0.00 PKD
ROOT
HETATM    1  C   UNL     1      -8.139   9.712  67.644  1.00  0.00    -0.113 C  
HETATM    2  C   UNL     1      -9.509   9.147  68.029  1.00  0.00    -0.157 C  
HETATM    3  C   UNL     1      -9.439   7.728  67.502  1.00  0.00    -0.141 C  
HETATM    4  C   UNL     1     -10.632  10.018  67.484  1.00  0.00    -0.336 C  
HETATM    5  O   UNL     1      -6.426   8.885  64.947  1.00  0.00    -0.065 OA 
HETATM    6  C   UNL     1      -8.233   7.479  66.953  1.00  0.00    -0.124 C  
HETATM    7  C   UNL     1      -7.837  10.509  66.335  1.00  0.00    -0.138 C  
HETATM    8  N   UNL     1      -7.387   8.578  67.035  1.00  0.00    -0.083 N  
HETATM    9  C   UNL     1      -7.747   6.178  66.398  1.00  0.00    -0.102 C  
HETATM   10  O   UNL     1      -8.219   5.089  66.684  1.00  0.00    -0.108 OA 
HETATM   11  O   UNL     1      -6.724   6.283  65.521  1.00  0.00    -0.045 OA 
HETATM   12  C   UNL     1      -7.015   9.284  65.927  1.00  0.00    -0.089 C  
ENDROOT
BRANCH   3  13
HETATM   13  S   UNL     1     -10.742   6.651  67.839  1.00  0.00    -0.286 SA 
BRANCH  13  14
HETATM   14  C   UNL     1     -10.244   5.767  69.367  1.00  0.00    -0.234 C  
HETATM   15  C   UNL     1     -11.382   5.472  70.338  1.00  0.00     0.366 C  
HETATM   16  N   UNL     1     -11.597   6.741  71.011  1.00  0.00    -0.319 NA 
HETATM   17  C   UNL     1     -10.271   7.359  71.234  1.00  0.00    -0.188 C  
HETATM   18  C   UNL     1      -9.354   6.706  70.192  1.00  0.00    -0.159 C  
HETATM   19  H   UNL     1     -12.142   6.649  71.869  1.00  0.00     0.000 HD 
BRANCH  17  20
HETATM   20  C   UNL     1     -10.431   8.906  71.214  1.00  0.00    -0.287 C  
HETATM   21  O   UNL     1      -9.432   9.627  71.172  1.00  0.00    -0.164 OA 
HETATM   22  N   UNL     1     -11.736   9.372  71.130  1.00  0.00    -0.319 N  
HETATM   23  H   UNL     1     -12.470   8.667  71.080  1.00  0.00     0.000 HD 
BRANCH  22  24
HETATM   24  C   UNL     1     -12.154  10.727  71.108  1.00  0.00    -0.309 A  
HETATM   25  C   UNL     1     -13.136  11.253  71.953  1.00  0.00    -0.510 A  
HETATM   26  C   UNL     1     -13.496  12.604  71.891  1.00  0.00    -0.424 A  
HETATM   27  C   UNL     1     -12.887  13.451  70.972  1.00  0.00    -0.329 A  
HETATM   28  C   UNL     1     -11.926  12.935  70.096  1.00  0.00    -0.373 A  
HETATM   29  C   UNL     1     -11.250  13.795  69.094  1.00  0.00    -0.262 C  
HETATM   30  C   UNL     1     -11.547  11.583  70.181  1.00  0.00    -0.336 A  
HETATM   31  O   UNL     1     -12.031  14.779  68.598  1.00  0.00    -0.311 OA 
HETATM   32  O   UNL     1     -10.105  13.601  68.726  1.00  0.00    -0.211 OA 
ENDBRANCH  22  24
ENDBRANCH  17  20
ENDBRANCH  13  14
ENDBRANCH   3  13
BRANCH   7  33
HETATM   33  C   UNL     1      -7.129  11.831  66.552  1.00  0.00     0.113 C  
HETATM   34  O   UNL     1      -5.810  11.681  66.028  1.00  0.00    -0.495 OA 
HETATM   35  H   UNL     1      -5.366  12.510  66.164  1.00  0.00     0.000 HD 
HETATM   36  C   UNL     1      -7.046  12.180  68.030  1.00  0.00    -0.096 C  
ENDBRANCH   7  33
TORSDOF 5
ENDMDL
MODEL      179
REMARK 921   NORMALIZED FREE ENERGY PREDICTED BY IDOCK:   -4.73 KCAL/MOL
REMARK 922        TOTAL FREE ENERGY PREDICTED BY IDOCK:   -7.79 KCAL/MOL
REMARK 923 INTER-LIGAND FREE ENERGY PREDICTED BY IDOCK:   -6.73 KCAL/MOL
REMARK 924 INTRA-LIGAND FREE ENERGY PREDICTED BY IDOCK:   -1.07 KCAL/MOL
REMARK 927      BINDING AFFINITY PREDICTED BY RF-SCORE:    0.00 PKD
ROOT
HETATM    1  C   UNL     1     -10.701   6.421  70.120  1.00  0.00    -0.271 C  
HETATM    2  C   UNL     1     -10.476   7.660  69.250  1.00  0.00    -0.220 C  
HETATM    3  C   UNL     1      -9.233   7.289  68.465  1.00  0.00    -0.138 C  
HETATM    4  C   UNL     1     -10.389   8.918  70.103  1.00  0.00    -0.228 C  
HETATM    5  O   UNL     1      -8.318   4.492  71.344  1.00  0.00    -0.096 OA 
HETATM    6  C   UNL     1      -8.827   6.041  68.773  1.00  0.00    -0.116 C  
HETATM    7  C   UNL     1     -10.170   6.245  71.579  1.00  0.00    -0.233 C  
HETATM    8  N   UNL     1      -9.661   5.437  69.706  1.00  0.00    -0.169 N  
HETATM    9  C   UNL     1      -7.692   5.285  68.157  1.00  0.00    -0.084 C  
HETATM   10  O   UNL     1      -7.213   5.537  67.063  1.00  0.00    -0.075 OA 
HETATM   11  O   UNL     1      -7.205   4.278  68.915  1.00  0.00    -0.054 OA 
HETATM   12  C   UNL     1      -9.246   5.180  70.982  1.00  0.00    -0.147 C  
ENDROOT
BRANCH   3  13
HETATM   13  S   UNL     1      -8.679   8.358  67.232  1.00  0.00    -0.127 SA 
BRANCH  13  14
HETATM   14  C   UNL     1      -6.981   8.829  67.739  1.00  0.00    -0.075 C  
HETATM   15  C   UNL     1      -6.804   9.085  69.231  1.00  0.00    -0.050 C  
HETATM   16  N   UNL     1      -7.347  10.420  69.417  1.00  0.00    -0.108 NA 
HETATM   17  C   UNL     1      -6.953  11.231  68.243  1.00  0.00    -0.071 C  
HETATM   18  C   UNL     1      -6.669  10.207  67.137  1.00  0.00    -0.074 C  
HETATM   19  H   UNL     1      -7.069  10.842  70.303  1.00  0.00     0.000 HD 
BRANCH  17  20
HETATM   20  C   UNL     1      -8.047  12.308  67.990  1.00  0.00    -0.156 C  
HETATM   21  O   UNL     1      -8.787  12.660  68.911  1.00  0.00     0.117 OA 
HETATM   22  N   UNL     1      -8.033  12.891  66.731  1.00  0.00    -0.396 N  
HETATM   23  H   UNL     1      -7.308  12.574  66.088  1.00  0.00     0.000 HD 
BRANCH  22  24
HETATM   24  C   UNL     1      -8.923  13.882  66.245  1.00  0.00     0.112 A  
HETATM   25  C   UNL     1      -8.835  15.239  66.578  1.00  0.00    -0.335 A  
HETATM   26  C   UNL     1      -9.736  16.172  66.054  1.00  0.00    -0.376 A  
HETATM   27  C   UNL     1     -10.750  15.763  65.196  1.00  0.00    -0.455 A  
HETATM   28  C   UNL     1     -10.874  14.406  64.877  1.00  0.00    -0.430 A  
HETATM   29  C   UNL     1     -11.941  13.917  63.971  1.00  0.00    -0.387 C  
HETATM   30  C   UNL     1      -9.949  13.476  65.384  1.00  0.00    -0.220 A  
HETATM   31  O   UNL     1     -13.098  14.608  64.061  1.00  0.00    -0.228 OA 
HETATM   32  O   UNL     1     -11.795  12.952  63.242  1.00  0.00    -0.537 OA 
ENDBRANCH  22  24
ENDBRANCH  17  20
ENDBRANCH  13  14
ENDBRANCH   3  13
BRANCH   7  33
HETATM   33  C   UNL     1     -11.222   5.825  72.586  1.00  0.00    -0.301 C  
HETATM   34  O   UNL     1     -12.137   6.914  72.701  1.00  0.00    -0.495 OA 
HETATM   35  H   UNL     1     -12.797   6.651  73.333  1.00  0.00     0.000 HD 
HETATM   36  C   UNL     1     -10.605   5.541  73.946  1.00  0.00    -0.304 C  
ENDBRANCH   7  33
TORSDOF 5
ENDMDL
MODEL      180
REMARK 921   NORMALIZED FREE ENERGY PREDICTED BY IDOCK:   -4.69 KCAL/MOL
REMARK 922        TOTAL FREE ENERGY PREDICTED BY IDOCK:   -7.75 KCAL/MOL
REMARK 923 INTER-LIGAND FREE ENERGY PREDICTED BY IDOCK:   -6.89 KCAL/MOL
REMARK 924 INTRA-LIGAND FREE ENERGY PREDICTED BY IDOCK:   -0.86 KCAL/MOL
REMARK 927      BINDING AFFINITY PREDICTED BY RF-SCORE:    0.00 PKD
ROOT
HETATM    1  C   UNL     1      -8.157  15.604  66.959  1.00  0.00    -0.241 C  
HETATM    2  C   UNL     1      -7.677  14.234  67.445  1.00  0.00    -0.194 C  
HETATM    3  C   UNL     1      -8.927  13.386  67.325  1.00  0.00    -0.221 C  
HETATM    4  C   UNL     1      -7.055  14.333  68.831  1.00  0.00    -0.113 C  
HETATM    5  O   UNL     1     -11.195  16.822  67.386  1.00  0.00    -0.067 OA 
HETATM    6  C   UNL     1      -9.946  14.105  66.812  1.00  0.00    -0.267 C  
HETATM    7  C   UNL     1      -8.685  16.746  67.885  1.00  0.00    -0.203 C  
HETATM    8  N   UNL     1      -9.569  15.411  66.523  1.00  0.00    -0.256 N  
HETATM    9  C   UNL     1     -11.315  13.609  66.468  1.00  0.00    -0.319 C  
HETATM   10  O   UNL     1     -11.589  12.438  66.260  1.00  0.00    -0.357 OA 
HETATM   11  O   UNL     1     -12.266  14.567  66.408  1.00  0.00    -0.373 OA 
HETATM   12  C   UNL     1     -10.045  16.472  67.239  1.00  0.00    -0.273 C  
ENDROOT
BRANCH   3  13
HETATM   13  S   UNL     1      -8.819  11.696  67.643  1.00  0.00    -0.166 SA 
BRANCH  13  14
HETATM   14  C   UNL     1      -7.109  11.232  67.171  1.00  0.00    -0.125 C  
HETATM   15  C   UNL     1      -7.009  10.149  66.103  1.00  0.00    -0.113 C  
HETATM   16  N   UNL     1      -7.257   8.919  66.835  1.00  0.00    -0.082 NA 
HETATM   17  C   UNL     1      -6.593   9.043  68.153  1.00  0.00    -0.060 C  
HETATM   18  C   UNL     1      -6.449  10.553  68.379  1.00  0.00    -0.055 C  
HETATM   19  H   UNL     1      -6.968   8.086  66.322  1.00  0.00     0.000 HD 
BRANCH  17  20
HETATM   20  C   UNL     1      -7.395   8.212  69.195  1.00  0.00    -0.082 C  
HETATM   21  O   UNL     1      -7.551   7.001  69.027  1.00  0.00    -0.099 OA 
HETATM   22  N   UNL     1      -7.794   8.902  70.332  1.00  0.00    -0.089 N  
HETATM   23  H   UNL     1      -7.522   9.882  70.390  1.00  0.00     0.000 HD 
BRANCH  22  24
HETATM   24  C   UNL     1      -8.541   8.385  71.421  1.00  0.00    -0.164 A  
HETATM   25  C   UNL     1      -8.093   8.392  72.746  1.00  0.00    -0.168 A  
HETATM   26  C   UNL     1      -8.884   7.878  73.780  1.00  0.00    -0.332 A  
HETATM   27  C   UNL     1     -10.134   7.335  73.504  1.00  0.00    -0.387 A  
HETATM   28  C   UNL     1     -10.585   7.290  72.180  1.00  0.00    -0.242 A  
HETATM   29  C   UNL     1     -11.907   6.717  71.831  1.00  0.00    -0.332 C  
HETATM   30  C   UNL     1      -9.798   7.833  71.148  1.00  0.00    -0.187 A  
HETATM   31  O   UNL     1     -12.285   5.686  72.617  1.00  0.00    -0.163 OA 
HETATM   32  O   UNL     1     -12.572   7.119  70.892  1.00  0.00    -0.329 OA 
ENDBRANCH  22  24
ENDBRANCH  17  20
ENDBRANCH  13  14
ENDBRANCH   3  13
BRANCH   7  33
HETATM   33  C   UNL     1      -8.023  18.092  67.665  1.00  0.00    -0.233 C  
HETATM   34  O   UNL     1      -8.578  18.985  68.631  1.00  0.00    -0.347 OA 
HETATM   35  H   UNL     1      -8.164  19.829  68.492  1.00  0.00     0.000 HD 
HETATM   36  C   UNL     1      -8.304  18.626  66.268  1.00  0.00    -0.249 C  
ENDBRANCH   7  33
TORSDOF 5
ENDMDL
MODEL      181
REMARK 921   NORMALIZED FREE ENERGY PREDICTED BY IDOCK:   -4.64 KCAL/MOL
REMARK 922        TOTAL FREE ENERGY PREDICTED BY IDOCK:   -7.68 KCAL/MOL
REMARK 923 INTER-LIGAND FREE ENERGY PREDICTED BY IDOCK:   -6.43 KCAL/MOL
REMARK 924 INTRA-LIGAND FREE ENERGY PREDICTED BY IDOCK:   -1.25 KCAL/MOL
REMARK 927      BINDING AFFINITY PREDICTED BY RF-SCORE:    0.00 PKD
ROOT
HETATM    1  C   UNL     1     -11.715  12.854  70.807  1.00  0.00     0.432 C  
HETATM    2  C   UNL     1     -12.193  11.598  71.541  1.00  0.00     0.101 C  
HETATM    3  C   UNL     1     -11.977  10.511  70.508  1.00  0.00    -0.342 C  
HETATM    4  C   UNL     1     -13.616  11.773  72.053  1.00  0.00    -0.167 C  
HETATM    5  O   UNL     1     -11.991  13.386  67.561  1.00  0.00    -0.361 OA 
HETATM    6  C   UNL     1     -11.423  11.017  69.388  1.00  0.00    -0.294 C  
HETATM    7  C   UNL     1     -12.636  13.823  70.001  1.00  0.00    -0.207 C  
HETATM    8  N   UNL     1     -11.191  12.384  69.494  1.00  0.00    -0.158 N  
HETATM    9  C   UNL     1     -10.985  10.258  68.176  1.00  0.00    -0.274 C  
HETATM   10  O   UNL     1     -10.732   9.064  68.168  1.00  0.00    -0.195 OA 
HETATM   11  O   UNL     1     -10.893  10.995  67.047  1.00  0.00    -0.260 OA 
HETATM   12  C   UNL     1     -11.904  13.293  68.766  1.00  0.00    -0.334 C  
ENDROOT
BRANCH   3  13
HETATM   13  S   UNL     1     -12.257   8.870  70.956  1.00  0.00    -0.142 SA 
BRANCH  13  14
HETATM   14  C   UNL     1     -10.965   8.490  72.201  1.00  0.00    -0.357 C  
HETATM   15  C   UNL     1      -9.552   8.908  71.808  1.00  0.00    -0.282 C  
HETATM   16  N   UNL     1      -9.129   7.865  70.889  1.00  0.00    -0.150 NA 
HETATM   17  C   UNL     1      -9.650   6.578  71.404  1.00  0.00    -0.165 C  
HETATM   18  C   UNL     1     -10.833   6.964  72.300  1.00  0.00    -0.262 C  
HETATM   19  H   UNL     1      -8.120   7.853  70.739  1.00  0.00     0.000 HD 
BRANCH  17  20
HETATM   20  C   UNL     1      -9.913   5.629  70.199  1.00  0.00    -0.207 C  
HETATM   21  O   UNL     1     -11.007   5.644  69.632  1.00  0.00    -0.348 OA 
HETATM   22  N   UNL     1      -8.819   4.889  69.770  1.00  0.00    -0.095 N  
HETATM   23  H   UNL     1      -7.943   5.037  70.270  1.00  0.00     0.000 HD 
BRANCH  22  24
HETATM   24  C   UNL     1      -8.793   3.949  68.709  1.00  0.00    -0.108 A  
HETATM   25  C   UNL     1      -8.173   2.698  68.791  1.00  0.00    -0.074 A  
HETATM   26  C   UNL     1      -8.194   1.808  67.712  1.00  0.00    -0.073 A  
HETATM   27  C   UNL     1      -8.825   2.159  66.524  1.00  0.00    -0.128 A  
HETATM   28  C   UNL     1      -9.422   3.420  66.412  1.00  0.00    -0.135 A  
HETATM   29  C   UNL     1     -10.104   3.846  65.166  1.00  0.00    -0.141 C  
HETATM   30  C   UNL     1      -9.423   4.300  67.509  1.00  0.00    -0.216 A  
HETATM   31  O   UNL     1      -9.545   3.357  64.038  1.00  0.00    -0.125 OA 
HETATM   32  O   UNL     1     -11.060   4.602  65.164  1.00  0.00    -0.169 OA 
ENDBRANCH  22  24
ENDBRANCH  17  20
ENDBRANCH  13  14
ENDBRANCH   3  13
BRANCH   7  33
HETATM   33  C   UNL     1     -12.491  15.285  70.371  1.00  0.00    -0.381 C  
HETATM   34  O   UNL     1     -11.573  15.856  69.438  1.00  0.00    -0.337 OA 
HETATM   35  H   UNL     1     -11.482  16.773  69.671  1.00  0.00     0.000 HD 
HETATM   36  C   UNL     1     -11.941  15.448  71.780  1.00  0.00    -0.473 C  
ENDBRANCH   7  33
TORSDOF 5
ENDMDL
MODEL      182
REMARK 921   NORMALIZED FREE ENERGY PREDICTED BY IDOCK:   -4.64 KCAL/MOL
REMARK 922        TOTAL FREE ENERGY PREDICTED BY IDOCK:   -7.68 KCAL/MOL
REMARK 923 INTER-LIGAND FREE ENERGY PREDICTED BY IDOCK:   -6.84 KCAL/MOL
REMARK 924 INTRA-LIGAND FREE ENERGY PREDICTED BY IDOCK:   -0.84 KCAL/MOL
REMARK 927      BINDING AFFINITY PREDICTED BY RF-SCORE:    0.00 PKD
ROOT
HETATM    1  C   UNL     1     -11.326  15.237  67.117  1.00  0.00    -0.247 C  
HETATM    2  C   UNL     1     -10.273  15.444  68.209  1.00  0.00    -0.229 C  
HETATM    3  C   UNL     1      -9.871  16.892  68.008  1.00  0.00    -0.264 C  
HETATM    4  C   UNL     1      -9.161  14.411  68.099  1.00  0.00    -0.194 C  
HETATM    5  O   UNL     1     -11.317  16.700  64.158  1.00  0.00    -1.141 OA 
HETATM    6  C   UNL     1     -10.590  17.455  67.016  1.00  0.00    -0.238 C  
HETATM    7  C   UNL     1     -11.035  14.669  65.692  1.00  0.00    -0.336 C  
HETATM    8  N   UNL     1     -11.505  16.565  66.466  1.00  0.00     0.596 N  
HETATM    9  C   UNL     1     -10.546  18.882  66.570  1.00  0.00    -0.389 C  
HETATM   10  O   UNL     1     -10.137  19.805  67.257  1.00  0.00    -0.365 OA 
HETATM   11  O   UNL     1     -10.992  19.097  65.313  1.00  0.00    -0.512 OA 
HETATM   12  C   UNL     1     -11.362  16.080  65.197  1.00  0.00    -0.074 C  
ENDROOT
BRANCH   3  13
HETATM   13  S   UNL     1      -8.781  17.616  69.129  1.00  0.00     0.249 SA 
BRANCH  13  14
HETATM   14  C   UNL     1      -7.332  18.120  68.125  1.00  0.00    -0.251 C  
HETATM   15  C   UNL     1      -7.175  17.375  66.805  1.00  0.00    -0.219 C  
HETATM   16  N   UNL     1      -6.598  16.100  67.196  1.00  0.00    -0.210 NA 
HETATM   17  C   UNL     1      -5.624  16.364  68.280  1.00  0.00    -0.106 C  
HETATM   18  C   UNL     1      -6.061  17.706  68.881  1.00  0.00    -0.197 C  
HETATM   19  H   UNL     1      -6.190  15.591  66.411  1.00  0.00     0.000 HD 
BRANCH  17  20
HETATM   20  C   UNL     1      -5.565  15.121  69.211  1.00  0.00    -0.095 C  
HETATM   21  O   UNL     1      -5.301  15.260  70.407  1.00  0.00    -0.121 OA 
HETATM   22  N   UNL     1      -5.935  13.917  68.627  1.00  0.00    -0.083 N  
HETATM   23  H   UNL     1      -6.221  13.952  67.649  1.00  0.00     0.000 HD 
BRANCH  22  24
HETATM   24  C   UNL     1      -5.957  12.643  69.249  1.00  0.00    -0.093 A  
HETATM   25  C   UNL     1      -5.140  12.288  70.329  1.00  0.00    -0.095 A  
HETATM   26  C   UNL     1      -5.219  11.018  70.908  1.00  0.00    -0.113 A  
HETATM   27  C   UNL     1      -6.109  10.072  70.410  1.00  0.00    -0.093 A  
HETATM   28  C   UNL     1      -6.911  10.398  69.311  1.00  0.00    -0.073 A  
HETATM   29  C   UNL     1      -7.872   9.425  68.738  1.00  0.00    -0.084 C  
HETATM   30  C   UNL     1      -6.848  11.686  68.749  1.00  0.00    -0.090 A  
HETATM   31  O   UNL     1      -7.462   8.140  68.807  1.00  0.00    -0.086 OA 
HETATM   32  O   UNL     1      -8.920   9.764  68.217  1.00  0.00    -0.119 OA 
ENDBRANCH  22  24
ENDBRANCH  17  20
ENDBRANCH  13  14
ENDBRANCH   3  13
BRANCH   7  33
HETATM   33  C   UNL     1     -11.931  13.518  65.278  1.00  0.00    -0.373 C  
HETATM   34  O   UNL     1     -13.273  14.001  65.336  1.00  0.00    -0.761 OA 
HETATM   35  H   UNL     1     -13.834  13.280  65.076  1.00  0.00     0.000 HD 
HETATM   36  C   UNL     1     -11.782  12.333  66.220  1.00  0.00    -0.431 C  
ENDBRANCH   7  33
TORSDOF 5
ENDMDL
MODEL      183
REMARK 921   NORMALIZED FREE ENERGY PREDICTED BY IDOCK:   -4.63 KCAL/MOL
REMARK 922        TOTAL FREE ENERGY PREDICTED BY IDOCK:   -7.67 KCAL/MOL
REMARK 923 INTER-LIGAND FREE ENERGY PREDICTED BY IDOCK:   -6.79 KCAL/MOL
REMARK 924 INTRA-LIGAND FREE ENERGY PREDICTED BY IDOCK:   -0.88 KCAL/MOL
REMARK 927      BINDING AFFINITY PREDICTED BY RF-SCORE:    0.00 PKD
ROOT
HETATM    1  C   UNL     1      -7.818   6.995  67.883  1.00  0.00    -0.114 C  
HETATM    2  C   UNL     1      -7.522   7.589  66.503  1.00  0.00    -0.084 C  
HETATM    3  C   UNL     1      -7.892   9.047  66.687  1.00  0.00    -0.100 C  
HETATM    4  C   UNL     1      -8.266   6.833  65.411  1.00  0.00    -0.134 C  
HETATM    5  O   UNL     1     -10.226   7.991  69.910  1.00  0.00    -0.195 OA 
HETATM    6  C   UNL     1      -8.285   9.286  67.954  1.00  0.00    -0.115 C  
HETATM    7  C   UNL     1      -9.163   6.314  68.292  1.00  0.00    -0.111 C  
HETATM    8  N   UNL     1      -8.227   8.142  68.741  1.00  0.00    -0.123 N  
HETATM    9  C   UNL     1      -8.652  10.608  68.550  1.00  0.00    -0.137 C  
HETATM   10  O   UNL     1      -8.307  11.687  68.094  1.00  0.00    -0.139 OA 
HETATM   11  O   UNL     1      -9.424  10.536  69.657  1.00  0.00    -0.140 OA 
HETATM   12  C   UNL     1      -9.358   7.529  69.202  1.00  0.00    -0.147 C  
ENDROOT
BRANCH   3  13
HETATM   13  S   UNL     1      -7.584  10.152  65.400  1.00  0.00    -0.146 SA 
BRANCH  13  14
HETATM   14  C   UNL     1      -8.874   9.792  64.146  1.00  0.00    -0.231 C  
HETATM   15  C   UNL     1      -8.804  10.651  62.889  1.00  0.00    -0.245 C  
HETATM   16  N   UNL     1      -9.400  11.911  63.299  1.00  0.00    -0.653 NA 
HETATM   17  C   UNL     1     -10.536  11.598  64.195  1.00  0.00    -0.357 C  
HETATM   18  C   UNL     1     -10.235  10.193  64.734  1.00  0.00    -0.122 C  
HETATM   19  H   UNL     1      -9.667  12.500  62.510  1.00  0.00     0.000 HD 
BRANCH  17  20
HETATM   20  C   UNL     1     -10.704  12.761  65.214  1.00  0.00    -0.294 C  
HETATM   21  O   UNL     1     -11.791  12.941  65.767  1.00  0.00    -0.373 OA 
HETATM   22  N   UNL     1      -9.546  13.464  65.516  1.00  0.00    -0.504 N  
HETATM   23  H   UNL     1      -8.691  13.155  65.056  1.00  0.00     0.000 HD 
BRANCH  22  24
HETATM   24  C   UNL     1      -9.429  14.568  66.398  1.00  0.00    -0.291 A  
HETATM   25  C   UNL     1     -10.447  15.503  66.615  1.00  0.00    -0.299 A  
HETATM   26  C   UNL     1     -10.276  16.565  67.509  1.00  0.00    -0.283 A  
HETATM   27  C   UNL     1      -9.076  16.719  68.194  1.00  0.00    -0.227 A  
HETATM   28  C   UNL     1      -8.035  15.812  67.966  1.00  0.00    -0.141 A  
HETATM   29  C   UNL     1      -6.734  15.934  68.667  1.00  0.00    -0.119 C  
HETATM   30  C   UNL     1      -8.222  14.730  67.087  1.00  0.00    -0.239 A  
HETATM   31  O   UNL     1      -6.361  17.208  68.917  1.00  0.00    -0.166 OA 
HETATM   32  O   UNL     1      -6.047  14.969  68.953  1.00  0.00    -0.088 OA 
ENDBRANCH  22  24
ENDBRANCH  17  20
ENDBRANCH  13  14
ENDBRANCH   3  13
BRANCH   7  33
HETATM   33  C   UNL     1      -9.010   4.943  68.919  1.00  0.00    -0.106 C  
HETATM   34  O   UNL     1      -9.033   3.998  67.849  1.00  0.00    -0.109 OA 
HETATM   35  H   UNL     1      -8.937   3.138  68.242  1.00  0.00     0.000 HD 
HETATM   36  C   UNL     1     -10.150   4.642  69.880  1.00  0.00    -0.257 C  
ENDBRANCH   7  33
TORSDOF 5
ENDMDL
MODEL      184
REMARK 921   NORMALIZED FREE ENERGY PREDICTED BY IDOCK:   -4.62 KCAL/MOL
REMARK 922        TOTAL FREE ENERGY PREDICTED BY IDOCK:   -7.65 KCAL/MOL
REMARK 923 INTER-LIGAND FREE ENERGY PREDICTED BY IDOCK:   -6.84 KCAL/MOL
REMARK 924 INTRA-LIGAND FREE ENERGY PREDICTED BY IDOCK:   -0.81 KCAL/MOL
REMARK 927      BINDING AFFINITY PREDICTED BY RF-SCORE:    0.00 PKD
ROOT
HETATM    1  C   UNL     1     -10.947  14.423  70.007  1.00  0.00     0.001 C  
HETATM    2  C   UNL     1     -10.837  13.303  68.969  1.00  0.00    -0.212 C  
HETATM    3  C   UNL     1      -9.860  13.881  67.964  1.00  0.00    -0.234 C  
HETATM    4  C   UNL     1     -12.209  12.916  68.435  1.00  0.00     0.003 C  
HETATM    5  O   UNL     1     -10.748  17.653  69.354  1.00  0.00    -0.057 OA 
HETATM    6  C   UNL     1      -9.429  15.096  68.358  1.00  0.00    -0.208 C  
HETATM    7  C   UNL     1     -12.039  15.539  70.004  1.00  0.00    -0.391 C  
HETATM    8  N   UNL     1      -9.982  15.474  69.576  1.00  0.00    -0.266 N  
HETATM    9  C   UNL     1      -8.405  15.951  67.683  1.00  0.00    -0.152 C  
HETATM   10  O   UNL     1      -7.565  15.531  66.903  1.00  0.00    -0.209 OA 
HETATM   11  O   UNL     1      -8.473  17.266  67.990  1.00  0.00    -0.217 OA 
HETATM   12  C   UNL     1     -10.889  16.492  69.668  1.00  0.00    -0.322 C  
ENDROOT
BRANCH   3  13
HETATM   13  S   UNL     1      -9.322  12.888  66.662  1.00  0.00    -0.217 SA 
BRANCH  13  14
HETATM   14  C   UNL     1     -10.435  13.296  65.262  1.00  0.00    -0.313 C  
HETATM   15  C   UNL     1     -11.783  12.585  65.285  1.00  0.00    -0.386 C  
HETATM   16  N   UNL     1     -11.477  11.252  64.795  1.00  0.00     0.006 NA 
HETATM   17  C   UNL     1     -10.475  11.391  63.714  1.00  0.00    -0.399 C  
HETATM   18  C   UNL     1      -9.803  12.746  63.975  1.00  0.00     0.056 C  
HETATM   19  H   UNL     1     -12.307  10.735  64.503  1.00  0.00     0.000 HD 
BRANCH  17  20
HETATM   20  C   UNL     1      -9.585  10.116  63.691  1.00  0.00    -0.207 C  
HETATM   21  O   UNL     1      -9.078   9.740  62.633  1.00  0.00    -0.260 OA 
HETATM   22  N   UNL     1      -9.331   9.541  64.928  1.00  0.00    -0.380 N  
HETATM   23  H   UNL     1      -9.738  10.004  65.740  1.00  0.00     0.000 HD 
BRANCH  22  24
HETATM   24  C   UNL     1      -8.565   8.375  65.181  1.00  0.00    -0.132 A  
HETATM   25  C   UNL     1      -7.290   8.150  64.651  1.00  0.00    -0.087 A  
HETATM   26  C   UNL     1      -6.577   6.984  64.949  1.00  0.00    -0.043 A  
HETATM   27  C   UNL     1      -7.134   6.013  65.774  1.00  0.00    -0.073 A  
HETATM   28  C   UNL     1      -8.421   6.205  66.287  1.00  0.00    -0.132 A  
HETATM   29  C   UNL     1      -9.062   5.198  67.168  1.00  0.00    -0.112 C  
HETATM   30  C   UNL     1      -9.122   7.392  66.007  1.00  0.00    -0.129 A  
HETATM   31  O   UNL     1      -8.728   3.922  66.879  1.00  0.00    -0.104 OA 
HETATM   32  O   UNL     1      -9.851   5.500  68.047  1.00  0.00    -0.126 OA 
ENDBRANCH  22  24
ENDBRANCH  17  20
ENDBRANCH  13  14
ENDBRANCH   3  13
BRANCH   7  33
HETATM   33  C   UNL     1     -12.772  15.707  71.320  1.00  0.00    -0.475 C  
HETATM   34  O   UNL     1     -11.985  16.591  72.119  1.00  0.00    -0.626 OA 
HETATM   35  H   UNL     1     -12.445  16.695  72.944  1.00  0.00     0.000 HD 
HETATM   36  C   UNL     1     -12.923  14.377  72.043  1.00  0.00    -0.432 C  
ENDBRANCH   7  33
TORSDOF 5
ENDMDL
MODEL      185
REMARK 921   NORMALIZED FREE ENERGY PREDICTED BY IDOCK:   -4.61 KCAL/MOL
REMARK 922        TOTAL FREE ENERGY PREDICTED BY IDOCK:   -7.64 KCAL/MOL
REMARK 923 INTER-LIGAND FREE ENERGY PREDICTED BY IDOCK:   -6.41 KCAL/MOL
REMARK 924 INTRA-LIGAND FREE ENERGY PREDICTED BY IDOCK:   -1.23 KCAL/MOL
REMARK 927      BINDING AFFINITY PREDICTED BY RF-SCORE:    0.00 PKD
ROOT
HETATM    1  C   UNL     1      -7.519   6.785  71.625  1.00  0.00    -0.087 C  
HETATM    2  C   UNL     1      -7.111   7.773  70.529  1.00  0.00    -0.047 C  
HETATM    3  C   UNL     1      -8.448   8.212  69.967  1.00  0.00    -0.128 C  
HETATM    4  C   UNL     1      -6.141   7.130  69.548  1.00  0.00    -0.030 C  
HETATM    5  O   UNL     1     -10.156   4.801  71.516  1.00  0.00    -0.185 OA 
HETATM    6  C   UNL     1      -9.464   7.633  70.639  1.00  0.00    -0.163 C  
HETATM    7  C   UNL     1      -7.634   5.239  71.437  1.00  0.00    -0.098 C  
HETATM    8  N   UNL     1      -9.009   6.812  71.664  1.00  0.00    -0.137 N  
HETATM    9  C   UNL     1     -10.927   7.870  70.439  1.00  0.00    -0.249 C  
HETATM   10  O   UNL     1     -11.396   8.865  69.909  1.00  0.00    -0.138 OA 
HETATM   11  O   UNL     1     -11.728   6.879  70.888  1.00  0.00    -0.322 OA 
HETATM   12  C   UNL     1      -9.139   5.453  71.609  1.00  0.00    -0.139 C  
ENDROOT
BRANCH   3  13
HETATM   13  S   UNL     1      -8.481   9.454  68.773  1.00  0.00    -0.124 SA 
BRANCH  13  14
HETATM   14  C   UNL     1      -8.755   8.580  67.184  1.00  0.00    -0.129 C  
HETATM   15  C   UNL     1      -7.886   9.061  66.028  1.00  0.00    -0.102 C  
HETATM   16  N   UNL     1      -8.539  10.284  65.593  1.00  0.00    -0.154 NA 
HETATM   17  C   UNL     1     -10.001  10.066  65.679  1.00  0.00    -0.285 C  
HETATM   18  C   UNL     1     -10.168   8.923  66.689  1.00  0.00    -0.338 C  
HETATM   19  H   UNL     1      -8.237  10.589  64.667  1.00  0.00     0.000 HD 
BRANCH  17  20
HETATM   20  C   UNL     1     -10.692  11.426  65.980  1.00  0.00    -0.263 C  
HETATM   21  O   UNL     1     -11.875  11.595  65.678  1.00  0.00    -0.278 OA 
HETATM   22  N   UNL     1      -9.928  12.342  66.691  1.00  0.00    -0.212 N  
HETATM   23  H   UNL     1      -8.991  12.043  66.961  1.00  0.00     0.000 HD 
BRANCH  22  24
HETATM   24  C   UNL     1     -10.314  13.649  67.081  1.00  0.00    -0.250 A  
HETATM   25  C   UNL     1     -10.251  14.764  66.238  1.00  0.00    -0.309 A  
HETATM   26  C   UNL     1     -10.661  16.027  66.678  1.00  0.00    -0.297 A  
HETATM   27  C   UNL     1     -11.128  16.201  67.976  1.00  0.00    -0.317 A  
HETATM   28  C   UNL     1     -11.168  15.104  68.843  1.00  0.00    -0.292 A  
HETATM   29  C   UNL     1     -11.653  15.237  70.238  1.00  0.00    -0.301 C  
HETATM   30  C   UNL     1     -10.781  13.830  68.388  1.00  0.00    -0.266 A  
HETATM   31  O   UNL     1     -11.371  16.428  70.808  1.00  0.00    -0.373 OA 
HETATM   32  O   UNL     1     -12.221  14.333  70.826  1.00  0.00    -0.309 OA 
ENDBRANCH  22  24
ENDBRANCH  17  20
ENDBRANCH  13  14
ENDBRANCH   3  13
BRANCH   7  33
HETATM   33  C   UNL     1      -6.885   4.421  72.470  1.00  0.00    -0.055 C  
HETATM   34  O   UNL     1      -5.515   4.817  72.392  1.00  0.00    -0.007 OA 
HETATM   35  H   UNL     1      -5.046   4.304  73.040  1.00  0.00     0.000 HD 
HETATM   36  C   UNL     1      -6.994   2.932  72.183  1.00  0.00    -0.030 C  
ENDBRANCH   7  33
TORSDOF 5
ENDMDL
MODEL      186
REMARK 921   NORMALIZED FREE ENERGY PREDICTED BY IDOCK:   -4.60 KCAL/MOL
REMARK 922        TOTAL FREE ENERGY PREDICTED BY IDOCK:   -7.63 KCAL/MOL
REMARK 923 INTER-LIGAND FREE ENERGY PREDICTED BY IDOCK:   -6.22 KCAL/MOL
REMARK 924 INTRA-LIGAND FREE ENERGY PREDICTED BY IDOCK:   -1.41 KCAL/MOL
REMARK 927      BINDING AFFINITY PREDICTED BY RF-SCORE:    0.00 PKD
ROOT
HETATM    1  C   UNL     1     -11.787  13.091  68.221  1.00  0.00    -0.343 C  
HETATM    2  C   UNL     1     -10.674  13.014  67.172  1.00  0.00    -0.266 C  
HETATM    3  C   UNL     1     -10.233  11.567  67.266  1.00  0.00    -0.202 C  
HETATM    4  C   UNL     1      -9.605  14.066  67.432  1.00  0.00    -0.227 C  
HETATM    5  O   UNL     1     -11.875  11.369  71.036  1.00  0.00    -0.185 OA 
HETATM    6  C   UNL     1     -10.981  10.895  68.164  1.00  0.00    -0.249 C  
HETATM    7  C   UNL     1     -11.587  13.537  69.704  1.00  0.00    -0.340 C  
HETATM    8  N   UNL     1     -11.952  11.705  68.742  1.00  0.00    -0.312 N  
HETATM    9  C   UNL     1     -10.910   9.436  68.485  1.00  0.00    -0.105 C  
HETATM   10  O   UNL     1     -10.435   8.592  67.741  1.00  0.00    -0.237 OA 
HETATM   11  O   UNL     1     -11.411   9.096  69.693  1.00  0.00    -0.085 OA 
HETATM   12  C   UNL     1     -11.889  12.079  70.054  1.00  0.00    -0.314 C  
ENDROOT
BRANCH   3  13
HETATM   13  S   UNL     1      -9.064  10.980  66.144  1.00  0.00    -0.198 SA 
BRANCH  13  14
HETATM   14  C   UNL     1      -7.441  11.318  66.929  1.00  0.00    -0.145 C  
HETATM   15  C   UNL     1      -6.231  10.840  66.133  1.00  0.00    -0.134 C  
HETATM   16  N   UNL     1      -6.186   9.413  66.401  1.00  0.00    -0.063 NA 
HETATM   17  C   UNL     1      -6.550   9.212  67.822  1.00  0.00    -0.060 C  
HETATM   18  C   UNL     1      -7.342  10.469  68.204  1.00  0.00    -0.088 C  
HETATM   19  H   UNL     1      -5.289   8.991  66.158  1.00  0.00     0.000 HD 
BRANCH  17  20
HETATM   20  C   UNL     1      -7.243   7.828  67.969  1.00  0.00    -0.087 C  
HETATM   21  O   UNL     1      -7.347   7.085  66.991  1.00  0.00    -0.082 OA 
HETATM   22  N   UNL     1      -7.607   7.475  69.261  1.00  0.00    -0.097 N  
HETATM   23  H   UNL     1      -7.383   8.143  69.998  1.00  0.00     0.000 HD 
BRANCH  22  24
HETATM   24  C   UNL     1      -8.259   6.282  69.664  1.00  0.00    -0.124 A  
HETATM   25  C   UNL     1      -9.604   6.219  70.044  1.00  0.00    -0.176 A  
HETATM   26  C   UNL     1     -10.195   5.007  70.418  1.00  0.00    -0.324 A  
HETATM   27  C   UNL     1      -9.445   3.836  70.432  1.00  0.00    -0.254 A  
HETATM   28  C   UNL     1      -8.090   3.885  70.086  1.00  0.00    -0.063 A  
HETATM   29  C   UNL     1      -7.246   2.666  70.089  1.00  0.00    -0.037 C  
HETATM   30  C   UNL     1      -7.509   5.101  69.684  1.00  0.00    -0.061 A  
HETATM   31  O   UNL     1      -7.578   1.769  71.042  1.00  0.00    -0.033 OA 
HETATM   32  O   UNL     1      -6.311   2.511  69.323  1.00  0.00    -0.028 OA 
ENDBRANCH  22  24
ENDBRANCH  17  20
ENDBRANCH  13  14
ENDBRANCH   3  13
BRANCH   7  33
HETATM   33  C   UNL     1     -12.542  14.619  70.170  1.00  0.00    -0.283 C  
HETATM   34  O   UNL     1     -12.636  15.568  69.108  1.00  0.00    -0.593 OA 
HETATM   35  H   UNL     1     -13.234  16.246  69.401  1.00  0.00     0.000 HD 
HETATM   36  C   UNL     1     -12.024  15.313  71.420  1.00  0.00    -0.428 C  
ENDBRANCH   7  33
TORSDOF 5
ENDMDL
MODEL      187
REMARK 921   NORMALIZED FREE ENERGY PREDICTED BY IDOCK:   -4.60 KCAL/MOL
REMARK 922        TOTAL FREE ENERGY PREDICTED BY IDOCK:   -7.62 KCAL/MOL
REMARK 923 INTER-LIGAND FREE ENERGY PREDICTED BY IDOCK:   -6.74 KCAL/MOL
REMARK 924 INTRA-LIGAND FREE ENERGY PREDICTED BY IDOCK:   -0.89 KCAL/MOL
REMARK 927      BINDING AFFINITY PREDICTED BY RF-SCORE:    0.00 PKD
ROOT
HETATM    1  C   UNL     1      -9.005   8.651  64.335  1.00  0.00     0.274 C  
HETATM    2  C   UNL     1      -8.102   7.415  64.375  1.00  0.00    -0.070 C  
HETATM    3  C   UNL     1      -7.749   7.313  65.845  1.00  0.00    -0.097 C  
HETATM    4  C   UNL     1      -6.936   7.559  63.406  1.00  0.00    -0.060 C  
HETATM    5  O   UNL     1      -8.711  11.291  66.295  1.00  0.00    -0.179 OA 
HETATM    6  C   UNL     1      -8.370   8.277  66.555  1.00  0.00    -0.112 C  
HETATM    7  C   UNL     1      -8.519  10.104  64.034  1.00  0.00    -0.185 C  
HETATM    8  N   UNL     1      -9.168   9.083  65.752  1.00  0.00    -0.222 N  
HETATM    9  C   UNL     1      -8.341   8.463  68.039  1.00  0.00    -0.128 C  
HETATM   10  O   UNL     1      -8.062   7.582  68.837  1.00  0.00    -0.123 OA 
HETATM   11  O   UNL     1      -8.643   9.712  68.459  1.00  0.00    -0.117 OA 
HETATM   12  C   UNL     1      -8.851  10.387  65.501  1.00  0.00    -0.176 C  
ENDROOT
BRANCH   3  13
HETATM   13  S   UNL     1      -6.837   5.956  66.389  1.00  0.00    -0.060 SA 
BRANCH  13  14
HETATM   14  C   UNL     1      -7.795   4.490  65.844  1.00  0.00    -0.095 C  
HETATM   15  C   UNL     1      -9.194   4.796  65.321  1.00  0.00    -0.153 C  
HETATM   16  N   UNL     1      -9.977   4.995  66.528  1.00  0.00    -0.199 NA 
HETATM   17  C   UNL     1      -9.513   4.008  67.529  1.00  0.00    -0.188 C  
HETATM   18  C   UNL     1      -8.096   3.631  67.080  1.00  0.00    -0.091 C  
HETATM   19  H   UNL     1     -10.983   4.949  66.361  1.00  0.00     0.000 HD 
BRANCH  17  20
HETATM   20  C   UNL     1      -9.703   4.612  68.950  1.00  0.00    -0.166 C  
HETATM   21  O   UNL     1      -8.986   4.236  69.879  1.00  0.00    -0.083 OA 
HETATM   22  N   UNL     1     -10.626   5.646  69.043  1.00  0.00    -0.254 N  
HETATM   23  H   UNL     1     -11.088   5.925  68.178  1.00  0.00     0.000 HD 
BRANCH  22  24
HETATM   24  C   UNL     1     -10.991   6.354  70.215  1.00  0.00    -0.318 A  
HETATM   25  C   UNL     1     -11.106   5.764  71.479  1.00  0.00    -0.281 A  
HETATM   26  C   UNL     1     -11.459   6.520  72.601  1.00  0.00    -0.224 A  
HETATM   27  C   UNL     1     -11.715   7.881  72.478  1.00  0.00    -0.423 A  
HETATM   28  C   UNL     1     -11.637   8.483  71.218  1.00  0.00    -0.332 A  
HETATM   29  C   UNL     1     -11.906   9.929  71.031  1.00  0.00    -0.376 C  
HETATM   30  C   UNL     1     -11.255   7.724  70.096  1.00  0.00    -0.168 A  
HETATM   31  O   UNL     1     -12.847  10.426  71.863  1.00  0.00    -0.433 OA 
HETATM   32  O   UNL     1     -11.352  10.597  70.175  1.00  0.00    -0.286 OA 
ENDBRANCH  22  24
ENDBRANCH  17  20
ENDBRANCH  13  14
ENDBRANCH   3  13
BRANCH   7  33
HETATM   33  C   UNL     1      -9.302  10.819  62.951  1.00  0.00    -0.338 C  
HETATM   34  O   UNL     1      -8.410  11.759  62.352  1.00  0.00    -0.591 OA 
HETATM   35  H   UNL     1      -8.901  12.207  61.673  1.00  0.00     0.000 HD 
HETATM   36  C   UNL     1     -10.498  11.559  63.529  1.00  0.00    -0.486 C  
ENDBRANCH   7  33
TORSDOF 5
ENDMDL
MODEL      188
REMARK 921   NORMALIZED FREE ENERGY PREDICTED BY IDOCK:   -4.57 KCAL/MOL
REMARK 922        TOTAL FREE ENERGY PREDICTED BY IDOCK:   -7.59 KCAL/MOL
REMARK 923 INTER-LIGAND FREE ENERGY PREDICTED BY IDOCK:   -6.16 KCAL/MOL
REMARK 924 INTRA-LIGAND FREE ENERGY PREDICTED BY IDOCK:   -1.44 KCAL/MOL
REMARK 927      BINDING AFFINITY PREDICTED BY RF-SCORE:    0.00 PKD
ROOT
HETATM    1  C   UNL     1      -7.859   6.360  71.056  1.00  0.00    -0.110 C  
HETATM    2  C   UNL     1      -9.084   6.872  70.294  1.00  0.00    -0.153 C  
HETATM    3  C   UNL     1     -10.234   6.270  71.077  1.00  0.00    -0.192 C  
HETATM    4  C   UNL     1      -9.004   6.506  68.819  1.00  0.00    -0.124 C  
HETATM    5  O   UNL     1      -7.650   3.444  72.589  1.00  0.00    -0.049 OA 
HETATM    6  C   UNL     1      -9.778   5.574  72.138  1.00  0.00    -0.158 C  
HETATM    7  C   UNL     1      -7.061   5.067  70.697  1.00  0.00    -0.053 C  
HETATM    8  N   UNL     1      -8.392   5.612  72.230  1.00  0.00    -0.118 N  
HETATM    9  C   UNL     1     -10.597   4.901  73.194  1.00  0.00    -0.220 C  
HETATM   10  O   UNL     1     -11.757   5.185  73.449  1.00  0.00    -0.185 OA 
HETATM   11  O   UNL     1      -9.958   3.918  73.866  1.00  0.00    -0.114 OA 
HETATM   12  C   UNL     1      -7.625   4.504  72.004  1.00  0.00    -0.088 C  
ENDROOT
BRANCH   3  13
HETATM   13  S   UNL     1     -11.847   6.702  70.651  1.00  0.00    -0.317 SA 
BRANCH  13  14
HETATM   14  C   UNL     1     -12.444   7.741  72.039  1.00  0.00    -0.286 C  
HETATM   15  C   UNL     1     -13.830   8.343  71.841  1.00  0.00    -0.408 C  
HETATM   16  N   UNL     1     -13.593   9.470  70.955  1.00  0.00    -0.555 NA 
HETATM   17  C   UNL     1     -12.315  10.097  71.363  1.00  0.00    -0.416 C  
HETATM   18  C   UNL     1     -11.558   8.993  72.112  1.00  0.00    -0.348 C  
HETATM   19  H   UNL     1     -14.370  10.130  70.935  1.00  0.00     0.000 HD 
BRANCH  17  20
HETATM   20  C   UNL     1     -11.648  10.732  70.110  1.00  0.00    -0.337 C  
HETATM   21  O   UNL     1     -11.731  11.947  69.919  1.00  0.00    -0.310 OA 
HETATM   22  N   UNL     1     -10.890   9.867  69.332  1.00  0.00    -0.230 N  
HETATM   23  H   UNL     1     -10.828   8.901  69.651  1.00  0.00     0.000 HD 
BRANCH  22  24
HETATM   24  C   UNL     1     -10.194  10.188  68.139  1.00  0.00    -0.171 A  
HETATM   25  C   UNL     1     -10.823  10.511  66.932  1.00  0.00    -0.252 A  
HETATM   26  C   UNL     1     -10.079  10.831  65.791  1.00  0.00    -0.320 A  
HETATM   27  C   UNL     1      -8.689  10.823  65.835  1.00  0.00    -0.189 A  
HETATM   28  C   UNL     1      -8.042  10.471  67.024  1.00  0.00    -0.118 A  
HETATM   29  C   UNL     1      -6.563  10.441  67.122  1.00  0.00    -0.073 C  
HETATM   30  C   UNL     1      -8.795  10.176  68.176  1.00  0.00    -0.126 A  
HETATM   31  O   UNL     1      -5.944  10.066  65.982  1.00  0.00    -0.065 OA 
HETATM   32  O   UNL     1      -5.966  10.695  68.154  1.00  0.00    -0.047 OA 
ENDBRANCH  22  24
ENDBRANCH  17  20
ENDBRANCH  13  14
ENDBRANCH   3  13
BRANCH   7  33
HETATM   33  C   UNL     1      -5.564   5.266  70.568  1.00  0.00    -0.008 C  
HETATM   34  O   UNL     1      -5.269   6.542  71.134  1.00  0.00    -0.018 OA 
HETATM   35  H   UNL     1      -4.330   6.667  71.052  1.00  0.00     0.000 HD 
HETATM   36  C   UNL     1      -5.126   5.249  69.111  1.00  0.00     0.000 C  
ENDBRANCH   7  33
TORSDOF 5
ENDMDL
MODEL      189
REMARK 921   NORMALIZED FREE ENERGY PREDICTED BY IDOCK:   -4.52 KCAL/MOL
REMARK 922        TOTAL FREE ENERGY PREDICTED BY IDOCK:   -7.53 KCAL/MOL
REMARK 923 INTER-LIGAND FREE ENERGY PREDICTED BY IDOCK:   -6.18 KCAL/MOL
REMARK 924 INTRA-LIGAND FREE ENERGY PREDICTED BY IDOCK:   -1.35 KCAL/MOL
REMARK 927      BINDING AFFINITY PREDICTED BY RF-SCORE:    0.00 PKD
ROOT
HETATM    1  C   UNL     1     -12.144  13.586  71.546  1.00  0.00     0.266 C  
HETATM    2  C   UNL     1     -12.712  12.167  71.644  1.00  0.00    -0.314 C  
HETATM    3  C   UNL     1     -12.520  11.638  70.237  1.00  0.00    -0.182 C  
HETATM    4  C   UNL     1     -14.140  12.185  72.173  1.00  0.00     0.471 C  
HETATM    5  O   UNL     1     -12.288  15.515  68.871  1.00  0.00    -0.156 OA 
HETATM    6  C   UNL     1     -11.904  12.553  69.461  1.00  0.00    -0.310 C  
HETATM    7  C   UNL     1     -12.987  14.867  71.248  1.00  0.00    -0.431 C  
HETATM    8  N   UNL     1     -11.604  13.714  70.163  1.00  0.00    -0.195 N  
HETATM    9  C   UNL     1     -11.468  12.383  68.040  1.00  0.00    -0.322 C  
HETATM   10  O   UNL     1     -11.278  11.302  67.505  1.00  0.00    -0.265 OA 
HETATM   11  O   UNL     1     -11.301  13.536  67.357  1.00  0.00    -0.287 OA 
HETATM   12  C   UNL     1     -12.244  14.894  69.910  1.00  0.00    -0.309 C  
ENDROOT
BRANCH   3  13
HETATM   13  S   UNL     1     -12.901   9.990  69.909  1.00  0.00     0.730 SA 
BRANCH  13  14
HETATM   14  C   UNL     1     -12.106   9.040  71.262  1.00  0.00    -0.314 C  
HETATM   15  C   UNL     1     -10.662   9.430  71.557  1.00  0.00    -0.297 C  
HETATM   16  N   UNL     1      -9.907   8.772  70.504  1.00  0.00    -0.178 NA 
HETATM   17  C   UNL     1     -10.523   7.446  70.273  1.00  0.00    -0.221 C  
HETATM   18  C   UNL     1     -11.958   7.584  70.799  1.00  0.00    -0.224 C  
HETATM   19  H   UNL     1      -8.908   8.715  70.707  1.00  0.00     0.000 HD 
BRANCH  17  20
HETATM   20  C   UNL     1     -10.316   7.052  68.783  1.00  0.00    -0.187 C  
HETATM   21  O   UNL     1     -11.185   6.410  68.191  1.00  0.00    -0.312 OA 
HETATM   22  N   UNL     1      -9.177   7.568  68.180  1.00  0.00    -0.138 N  
HETATM   23  H   UNL     1      -8.584   8.162  68.758  1.00  0.00     0.000 HD 
BRANCH  22  24
HETATM   24  C   UNL     1      -8.752   7.353  66.845  1.00  0.00    -0.126 A  
HETATM   25  C   UNL     1      -8.190   6.155  66.389  1.00  0.00    -0.113 A  
HETATM   26  C   UNL     1      -7.802   6.000  65.054  1.00  0.00    -0.108 A  
HETATM   27  C   UNL     1      -7.957   7.046  64.152  1.00  0.00    -0.079 A  
HETATM   28  C   UNL     1      -8.487   8.262  64.597  1.00  0.00    -0.069 A  
HETATM   29  C   UNL     1      -8.669   9.411  63.676  1.00  0.00    -0.202 C  
HETATM   30  C   UNL     1      -8.902   8.404  65.934  1.00  0.00    -0.212 A  
HETATM   31  O   UNL     1      -7.729   9.497  62.711  1.00  0.00    -0.113 OA 
HETATM   32  O   UNL     1      -9.567  10.224  63.809  1.00  0.00    -0.288 OA 
ENDBRANCH  22  24
ENDBRANCH  17  20
ENDBRANCH  13  14
ENDBRANCH   3  13
BRANCH   7  33
HETATM   33  C   UNL     1     -12.777  16.002  72.230  1.00  0.00    -0.405 C  
HETATM   34  O   UNL     1     -11.738  16.821  71.693  1.00  0.00    -0.594 OA 
HETATM   35  H   UNL     1     -11.606  17.533  72.309  1.00  0.00     0.000 HD 
HETATM   36  C   UNL     1     -12.353  15.483  73.595  1.00  0.00    -0.698 C  
ENDBRANCH   7  33
TORSDOF 5
ENDMDL
MODEL      190
REMARK 921   NORMALIZED FREE ENERGY PREDICTED BY IDOCK:   -4.51 KCAL/MOL
REMARK 922        TOTAL FREE ENERGY PREDICTED BY IDOCK:   -7.52 KCAL/MOL
REMARK 923 INTER-LIGAND FREE ENERGY PREDICTED BY IDOCK:   -6.92 KCAL/MOL
REMARK 924 INTRA-LIGAND FREE ENERGY PREDICTED BY IDOCK:   -0.60 KCAL/MOL
REMARK 927      BINDING AFFINITY PREDICTED BY RF-SCORE:    0.00 PKD
ROOT
HETATM    1  C   UNL     1     -10.502   5.062  71.031  1.00  0.00    -0.141 C  
HETATM    2  C   UNL     1     -10.858   6.108  69.972  1.00  0.00    -0.408 C  
HETATM    3  C   UNL     1     -10.317   5.486  68.700  1.00  0.00    -0.185 C  
HETATM    4  C   UNL     1     -10.304   7.476  70.346  1.00  0.00    -0.216 C  
HETATM    5  O   UNL     1      -7.824   3.132  70.979  1.00  0.00    -0.049 OA 
HETATM    6  C   UNL     1      -9.786   4.272  68.949  1.00  0.00    -0.061 C  
HETATM    7  C   UNL     1      -9.207   5.080  71.903  1.00  0.00    -0.164 C  
HETATM    8  N   UNL     1      -9.894   3.922  70.289  1.00  0.00    -0.167 N  
HETATM    9  C   UNL     1      -9.225   3.312  67.948  1.00  0.00    -0.195 C  
HETATM   10  O   UNL     1      -9.492   3.327  66.757  1.00  0.00    -0.180 OA 
HETATM   11  O   UNL     1      -8.366   2.401  68.457  1.00  0.00    -0.056 OA 
HETATM   12  C   UNL     1      -8.799   3.842  71.102  1.00  0.00    -0.085 C  
ENDROOT
BRANCH   3  13
HETATM   13  S   UNL     1     -10.622   6.271  67.196  1.00  0.00    -0.353 SA 
BRANCH  13  14
HETATM   14  C   UNL     1      -8.962   6.665  66.521  1.00  0.00    -0.145 C  
HETATM   15  C   UNL     1      -7.940   7.120  67.556  1.00  0.00    -0.113 C  
HETATM   16  N   UNL     1      -8.291   8.508  67.799  1.00  0.00    -0.128 NA 
HETATM   17  C   UNL     1      -8.685   9.103  66.502  1.00  0.00    -0.128 C  
HETATM   18  C   UNL     1      -9.093   7.909  65.631  1.00  0.00    -0.018 C  
HETATM   19  H   UNL     1      -7.549   9.030  68.266  1.00  0.00     0.000 HD 
BRANCH  17  20
HETATM   20  C   UNL     1      -9.734  10.221  66.764  1.00  0.00    -0.185 C  
HETATM   21  O   UNL     1     -10.859   9.925  67.173  1.00  0.00    -0.241 OA 
HETATM   22  N   UNL     1      -9.273  11.522  66.618  1.00  0.00    -0.181 N  
HETATM   23  H   UNL     1      -8.292  11.633  66.363  1.00  0.00     0.000 HD 
BRANCH  22  24
HETATM   24  C   UNL     1     -10.023  12.713  66.786  1.00  0.00    -0.234 A  
HETATM   25  C   UNL     1     -11.352  12.742  67.223  1.00  0.00    -0.364 A  
HETATM   26  C   UNL     1     -12.035  13.952  67.383  1.00  0.00    -0.436 A  
HETATM   27  C   UNL     1     -11.405  15.157  67.094  1.00  0.00    -0.291 A  
HETATM   28  C   UNL     1     -10.087  15.146  66.624  1.00  0.00    -0.271 A  
HETATM   29  C   UNL     1      -9.371  16.403  66.297  1.00  0.00    -0.315 C  
HETATM   30  C   UNL     1      -9.395  13.929  66.492  1.00  0.00    -0.264 A  
HETATM   31  O   UNL     1     -10.165  17.376  65.799  1.00  0.00    -0.555 OA 
HETATM   32  O   UNL     1      -8.166  16.528  66.430  1.00  0.00    -0.275 OA 
ENDBRANCH  22  24
ENDBRANCH  17  20
ENDBRANCH  13  14
ENDBRANCH   3  13
BRANCH   7  33
HETATM   33  C   UNL     1      -9.449   4.944  73.394  1.00  0.00    -0.132 C  
HETATM   34  O   UNL     1     -10.840   4.673  73.560  1.00  0.00    -0.230 OA 
HETATM   35  H   UNL     1     -10.992   4.588  74.495  1.00  0.00     0.000 HD 
HETATM   36  C   UNL     1      -9.095   6.226  74.131  1.00  0.00    -0.157 C  
ENDBRANCH   7  33
TORSDOF 5
ENDMDL
MODEL      191
REMARK 921   NORMALIZED FREE ENERGY PREDICTED BY IDOCK:   -4.51 KCAL/MOL
REMARK 922        TOTAL FREE ENERGY PREDICTED BY IDOCK:   -7.51 KCAL/MOL
REMARK 923 INTER-LIGAND FREE ENERGY PREDICTED BY IDOCK:   -6.40 KCAL/MOL
REMARK 924 INTRA-LIGAND FREE ENERGY PREDICTED BY IDOCK:   -1.11 KCAL/MOL
REMARK 927      BINDING AFFINITY PREDICTED BY RF-SCORE:    0.00 PKD
ROOT
HETATM    1  C   UNL     1     -11.723  12.726  68.051  1.00  0.00    -0.356 C  
HETATM    2  C   UNL     1     -10.695  12.652  66.919  1.00  0.00    -0.264 C  
HETATM    3  C   UNL     1     -10.221  11.215  66.999  1.00  0.00    -0.215 C  
HETATM    4  C   UNL     1      -9.629  13.728  67.076  1.00  0.00    -0.251 C  
HETATM    5  O   UNL     1     -11.554  11.050  70.890  1.00  0.00    -0.225 OA 
HETATM    6  C   UNL     1     -10.882  10.545  67.964  1.00  0.00    -0.263 C  
HETATM    7  C   UNL     1     -11.415  13.201  69.507  1.00  0.00    -0.291 C  
HETATM    8  N   UNL     1     -11.820  11.346  68.605  1.00  0.00    -0.325 N  
HETATM    9  C   UNL     1     -10.758   9.093  68.300  1.00  0.00    -0.122 C  
HETATM   10  O   UNL     1     -10.327   8.245  67.534  1.00  0.00    -0.229 OA 
HETATM   11  O   UNL     1     -11.154   8.764  69.549  1.00  0.00    -0.132 OA 
HETATM   12  C   UNL     1     -11.660  11.743  69.902  1.00  0.00    -0.274 C  
ENDROOT
BRANCH   3  13
HETATM   13  S   UNL     1      -9.133  10.630  65.796  1.00  0.00    -0.195 SA 
BRANCH  13  14
HETATM   14  C   UNL     1      -7.463  11.083  66.406  1.00  0.00    -0.131 C  
HETATM   15  C   UNL     1      -6.307  10.509  65.595  1.00  0.00    -0.126 C  
HETATM   16  N   UNL     1      -6.219   9.132  66.048  1.00  0.00    -0.062 NA 
HETATM   17  C   UNL     1      -6.475   9.124  67.506  1.00  0.00    -0.064 C  
HETATM   18  C   UNL     1      -7.258  10.415  67.774  1.00  0.00    -0.086 C  
HETATM   19  H   UNL     1      -5.335   8.687  65.798  1.00  0.00     0.000 HD 
BRANCH  17  20
HETATM   20  C   UNL     1      -7.133   7.767  67.889  1.00  0.00    -0.086 C  
HETATM   21  O   UNL     1      -7.365   7.509  69.072  1.00  0.00    -0.082 OA 
HETATM   22  N   UNL     1      -7.523   6.968  66.823  1.00  0.00    -0.081 N  
HETATM   23  H   UNL     1      -7.355   7.340  65.888  1.00  0.00     0.000 HD 
BRANCH  22  24
HETATM   24  C   UNL     1      -8.130   5.689  66.897  1.00  0.00    -0.102 A  
HETATM   25  C   UNL     1      -8.277   4.965  68.085  1.00  0.00    -0.089 A  
HETATM   26  C   UNL     1      -8.898   3.711  68.096  1.00  0.00    -0.149 A  
HETATM   27  C   UNL     1      -9.373   3.153  66.915  1.00  0.00    -0.163 A  
HETATM   28  C   UNL     1      -9.206   3.848  65.712  1.00  0.00    -0.154 A  
HETATM   29  C   UNL     1      -9.690   3.295  64.424  1.00  0.00    -0.163 C  
HETATM   30  C   UNL     1      -8.606   5.121  65.710  1.00  0.00    -0.135 A  
HETATM   31  O   UNL     1      -9.616   1.949  64.341  1.00  0.00    -0.135 OA 
HETATM   32  O   UNL     1     -10.080   4.000  63.510  1.00  0.00    -0.169 OA 
ENDBRANCH  22  24
ENDBRANCH  17  20
ENDBRANCH  13  14
ENDBRANCH   3  13
BRANCH   7  33
HETATM   33  C   UNL     1     -12.350  14.273  70.031  1.00  0.00    -0.346 C  
HETATM   34  O   UNL     1     -12.550  15.200  68.965  1.00  0.00    -0.545 OA 
HETATM   35  H   UNL     1     -13.136  15.872  69.294  1.00  0.00     0.000 HD 
HETATM   36  C   UNL     1     -11.746  15.000  71.223  1.00  0.00    -0.397 C  
ENDBRANCH   7  33
TORSDOF 5
ENDMDL
MODEL      192
REMARK 921   NORMALIZED FREE ENERGY PREDICTED BY IDOCK:   -4.50 KCAL/MOL
REMARK 922        TOTAL FREE ENERGY PREDICTED BY IDOCK:   -7.50 KCAL/MOL
REMARK 923 INTER-LIGAND FREE ENERGY PREDICTED BY IDOCK:   -6.31 KCAL/MOL
REMARK 924 INTRA-LIGAND FREE ENERGY PREDICTED BY IDOCK:   -1.20 KCAL/MOL
REMARK 927      BINDING AFFINITY PREDICTED BY RF-SCORE:    0.00 PKD
ROOT
HETATM    1  C   UNL     1      -8.351   6.106  67.972  1.00  0.00    -0.117 C  
HETATM    2  C   UNL     1      -8.240   7.632  67.991  1.00  0.00    -0.124 C  
HETATM    3  C   UNL     1      -8.302   7.949  69.471  1.00  0.00    -0.131 C  
HETATM    4  C   UNL     1      -9.313   8.269  67.117  1.00  0.00    -0.189 C  
HETATM    5  O   UNL     1     -10.082   4.294  70.122  1.00  0.00    -0.194 OA 
HETATM    6  C   UNL     1      -8.380   6.817  70.200  1.00  0.00    -0.135 C  
HETATM    7  C   UNL     1      -9.684   5.309  67.804  1.00  0.00    -0.170 C  
HETATM    8  N   UNL     1      -8.368   5.681  69.400  1.00  0.00    -0.106 N  
HETATM    9  C   UNL     1      -8.379   6.704  71.692  1.00  0.00    -0.115 C  
HETATM   10  O   UNL     1      -7.948   7.563  72.445  1.00  0.00    -0.096 OA 
HETATM   11  O   UNL     1      -8.911   5.559  72.174  1.00  0.00    -0.130 OA 
HETATM   12  C   UNL     1      -9.472   4.888  69.260  1.00  0.00    -0.142 C  
ENDROOT
BRANCH   3  13
HETATM   13  S   UNL     1      -8.070   9.578  69.984  1.00  0.00    -0.182 SA 
BRANCH  13  14
HETATM   14  C   UNL     1      -6.274   9.889  69.782  1.00  0.00    -0.050 C  
HETATM   15  C   UNL     1      -5.658  10.803  70.835  1.00  0.00    -0.092 C  
HETATM   16  N   UNL     1      -6.049  12.135  70.405  1.00  0.00    -0.406 NA 
HETATM   17  C   UNL     1      -5.967  12.169  68.927  1.00  0.00    -0.064 C  
HETATM   18  C   UNL     1      -6.073  10.702  68.494  1.00  0.00    -0.046 C  
HETATM   19  H   UNL     1      -5.502  12.872  70.850  1.00  0.00     0.000 HD 
BRANCH  17  20
HETATM   20  C   UNL     1      -7.024  13.177  68.392  1.00  0.00    -0.104 C  
HETATM   21  O   UNL     1      -6.689  14.053  67.594  1.00  0.00    -0.169 OA 
HETATM   22  N   UNL     1      -8.334  12.935  68.784  1.00  0.00    -0.357 N  
HETATM   23  H   UNL     1      -8.491  12.119  69.376  1.00  0.00     0.000 HD 
BRANCH  22  24
HETATM   24  C   UNL     1      -9.477  13.703  68.448  1.00  0.00    -0.190 A  
HETATM   25  C   UNL     1      -9.951  14.773  69.216  1.00  0.00    -0.146 A  
HETATM   26  C   UNL     1     -11.078  15.502  68.823  1.00  0.00    -0.291 A  
HETATM   27  C   UNL     1     -11.761  15.166  67.660  1.00  0.00    -0.233 A  
HETATM   28  C   UNL     1     -11.321  14.080  66.896  1.00  0.00    -0.343 A  
HETATM   29  C   UNL     1     -12.017  13.677  65.650  1.00  0.00    -0.395 C  
HETATM   30  C   UNL     1     -10.171  13.367  67.280  1.00  0.00    -0.241 A  
HETATM   31  O   UNL     1     -13.352  13.876  65.676  1.00  0.00    -0.620 OA 
HETATM   32  O   UNL     1     -11.435  13.175  64.704  1.00  0.00    -0.311 OA 
ENDBRANCH  22  24
ENDBRANCH  17  20
ENDBRANCH  13  14
ENDBRANCH   3  13
BRANCH   7  33
HETATM   33  C   UNL     1      -9.652   4.249  66.721  1.00  0.00    -0.202 C  
HETATM   34  O   UNL     1      -8.456   3.496  66.918  1.00  0.00    -0.101 OA 
HETATM   35  H   UNL     1      -8.436   2.832  66.238  1.00  0.00     0.000 HD 
HETATM   36  C   UNL     1      -9.630   4.875  65.335  1.00  0.00    -0.115 C  
ENDBRANCH   7  33
TORSDOF 5
ENDMDL
MODEL      193
REMARK 921   NORMALIZED FREE ENERGY PREDICTED BY IDOCK:   -4.48 KCAL/MOL
REMARK 922        TOTAL FREE ENERGY PREDICTED BY IDOCK:   -7.47 KCAL/MOL
REMARK 923 INTER-LIGAND FREE ENERGY PREDICTED BY IDOCK:   -6.20 KCAL/MOL
REMARK 924 INTRA-LIGAND FREE ENERGY PREDICTED BY IDOCK:   -1.27 KCAL/MOL
REMARK 927      BINDING AFFINITY PREDICTED BY RF-SCORE:    0.00 PKD
ROOT
HETATM    1  C   UNL     1      -7.771  13.078  67.605  1.00  0.00    -0.161 C  
HETATM    2  C   UNL     1      -8.859  12.111  67.131  1.00  0.00    -0.191 C  
HETATM    3  C   UNL     1     -10.078  13.007  67.037  1.00  0.00    -0.243 C  
HETATM    4  C   UNL     1      -8.969  10.913  68.065  1.00  0.00    -0.145 C  
HETATM    5  O   UNL     1      -8.256  15.661  69.604  1.00  0.00    -0.213 OA 
HETATM    6  C   UNL     1      -9.761  14.280  67.345  1.00  0.00    -0.235 C  
HETATM    7  C   UNL     1      -7.371  13.311  69.097  1.00  0.00     0.115 C  
HETATM    8  N   UNL     1      -8.412  14.423  67.648  1.00  0.00    -0.172 N  
HETATM    9  C   UNL     1     -10.664  15.472  67.292  1.00  0.00    -0.308 C  
HETATM   10  O   UNL     1     -11.688  15.529  66.629  1.00  0.00     0.032 OA 
HETATM   11  O   UNL     1     -10.272  16.515  68.057  1.00  0.00    -0.253 OA 
HETATM   12  C   UNL     1      -7.985  14.702  68.915  1.00  0.00    -0.149 C  
ENDROOT
BRANCH   3  13
HETATM   13  S   UNL     1     -11.540  12.357  66.395  1.00  0.00    -0.374 SA 
BRANCH  13  14
HETATM   14  C   UNL     1     -11.734  13.154  64.755  1.00  0.00    -0.347 C  
HETATM   15  C   UNL     1     -12.655  12.417  63.789  1.00  0.00    -0.437 C  
HETATM   16  N   UNL     1     -11.830  11.333  63.286  1.00  0.00    -0.710 NA 
HETATM   17  C   UNL     1     -10.459  11.862  63.103  1.00  0.00    -0.276 C  
HETATM   18  C   UNL     1     -10.384  13.083  64.028  1.00  0.00    -0.272 C  
HETATM   19  H   UNL     1     -12.207  10.906  62.439  1.00  0.00     0.000 HD 
BRANCH  17  20
HETATM   20  C   UNL     1      -9.444  10.704  63.321  1.00  0.00    -0.329 C  
HETATM   21  O   UNL     1      -9.504   9.693  62.619  1.00  0.00    -0.182 OA 
HETATM   22  N   UNL     1      -8.442  10.954  64.249  1.00  0.00    -0.375 N  
HETATM   23  H   UNL     1      -8.451  11.869  64.697  1.00  0.00     0.000 HD 
BRANCH  22  24
HETATM   24  C   UNL     1      -7.406  10.067  64.639  1.00  0.00    -0.143 A  
HETATM   25  C   UNL     1      -6.156  10.006  64.013  1.00  0.00    -0.132 A  
HETATM   26  C   UNL     1      -5.169   9.118  64.454  1.00  0.00    -0.054 A  
HETATM   27  C   UNL     1      -5.420   8.264  65.522  1.00  0.00    -0.032 A  
HETATM   28  C   UNL     1      -6.675   8.288  66.139  1.00  0.00    -0.054 A  
HETATM   29  C   UNL     1      -6.995   7.394  67.279  1.00  0.00    -0.083 C  
HETATM   30  C   UNL     1      -7.655   9.202  65.710  1.00  0.00    -0.091 A  
HETATM   31  O   UNL     1      -6.392   6.188  67.218  1.00  0.00    -0.038 OA 
HETATM   32  O   UNL     1      -7.767   7.711  68.167  1.00  0.00    -0.114 OA 
ENDBRANCH  22  24
ENDBRANCH  17  20
ENDBRANCH  13  14
ENDBRANCH   3  13
BRANCH   7  33
HETATM   33  C   UNL     1      -5.886  13.194  69.377  1.00  0.00    -0.095 C  
HETATM   34  O   UNL     1      -5.352  14.516  69.320  1.00  0.00    -0.083 OA 
HETATM   35  H   UNL     1      -4.421  14.442  69.496  1.00  0.00     0.000 HD 
HETATM   36  C   UNL     1      -5.193  12.326  68.337  1.00  0.00    -0.053 C  
ENDBRANCH   7  33
TORSDOF 5
ENDMDL
MODEL      194
REMARK 921   NORMALIZED FREE ENERGY PREDICTED BY IDOCK:   -4.47 KCAL/MOL
REMARK 922        TOTAL FREE ENERGY PREDICTED BY IDOCK:   -7.46 KCAL/MOL
REMARK 923 INTER-LIGAND FREE ENERGY PREDICTED BY IDOCK:   -6.75 KCAL/MOL
REMARK 924 INTRA-LIGAND FREE ENERGY PREDICTED BY IDOCK:   -0.70 KCAL/MOL
REMARK 927      BINDING AFFINITY PREDICTED BY RF-SCORE:    0.00 PKD
ROOT
HETATM    1  C   UNL     1     -10.307  12.246  65.943  1.00  0.00    -0.252 C  
HETATM    2  C   UNL     1      -8.796  12.489  65.969  1.00  0.00     0.255 C  
HETATM    3  C   UNL     1      -8.267  11.205  66.577  1.00  0.00    -0.167 C  
HETATM    4  C   UNL     1      -8.462  13.777  66.709  1.00  0.00     0.007 C  
HETATM    5  O   UNL     1     -11.994  10.490  68.172  1.00  0.00    -0.375 OA 
HETATM    6  C   UNL     1      -9.272  10.339  66.817  1.00  0.00    -0.157 C  
HETATM    7  C   UNL     1     -11.303  12.691  67.060  1.00  0.00    -0.377 C  
HETATM    8  N   UNL     1     -10.505  10.852  66.431  1.00  0.00    -0.255 N  
HETATM    9  C   UNL     1      -9.152   8.941  67.336  1.00  0.00    -0.132 C  
HETATM   10  O   UNL     1      -8.135   8.269  67.271  1.00  0.00    -0.107 OA 
HETATM   11  O   UNL     1     -10.273   8.452  67.911  1.00  0.00    -0.196 OA 
HETATM   12  C   UNL     1     -11.459  11.196  67.346  1.00  0.00    -0.180 C  
ENDROOT
BRANCH   3  13
HETATM   13  S   UNL     1      -6.562  10.972  66.675  1.00  0.00    -0.134 SA 
BRANCH  13  14
HETATM   14  C   UNL     1      -6.212  10.764  68.463  1.00  0.00    -0.046 C  
HETATM   15  C   UNL     1      -7.395  11.041  69.385  1.00  0.00    -0.092 C  
HETATM   16  N   UNL     1      -7.446  12.491  69.452  1.00  0.00    -0.284 NA 
HETATM   17  C   UNL     1      -6.052  12.987  69.492  1.00  0.00    -0.115 C  
HETATM   18  C   UNL     1      -5.216  11.854  68.883  1.00  0.00    -0.050 C  
HETATM   19  H   UNL     1      -8.012  12.833  70.229  1.00  0.00     0.000 HD 
BRANCH  17  20
HETATM   20  C   UNL     1      -6.001  14.388  68.818  1.00  0.00    -0.084 C  
HETATM   21  O   UNL     1      -5.329  14.555  67.798  1.00  0.00    -0.254 OA 
HETATM   22  N   UNL     1      -6.834  15.350  69.373  1.00  0.00    -0.160 N  
HETATM   23  H   UNL     1      -7.409  15.056  70.162  1.00  0.00     0.000 HD 
BRANCH  22  24
HETATM   24  C   UNL     1      -6.967  16.699  68.958  1.00  0.00    -0.212 A  
HETATM   25  C   UNL     1      -5.892  17.586  68.833  1.00  0.00    -0.181 A  
HETATM   26  C   UNL     1      -6.087  18.903  68.405  1.00  0.00    -0.228 A  
HETATM   27  C   UNL     1      -7.365  19.363  68.107  1.00  0.00    -0.330 A  
HETATM   28  C   UNL     1      -8.456  18.500  68.257  1.00  0.00    -0.341 A  
HETATM   29  C   UNL     1      -9.840  18.942  67.957  1.00  0.00    -0.352 C  
HETATM   30  C   UNL     1      -8.252  17.168  68.661  1.00  0.00    -0.255 A  
HETATM   31  O   UNL     1     -10.075  20.242  68.235  1.00  0.00    -0.381 OA 
HETATM   32  O   UNL     1     -10.696  18.184  67.535  1.00  0.00    -0.412 OA 
ENDBRANCH  22  24
ENDBRANCH  17  20
ENDBRANCH  13  14
ENDBRANCH   3  13
BRANCH   7  33
HETATM   33  C   UNL     1     -12.501  13.474  66.561  1.00  0.00    -0.253 C  
HETATM   34  O   UNL     1     -12.898  12.875  65.328  1.00  0.00    -0.668 OA 
HETATM   35  H   UNL     1     -13.649  13.366  65.015  1.00  0.00     0.000 HD 
HETATM   36  C   UNL     1     -12.148  14.933  66.320  1.00  0.00     0.015 C  
ENDBRANCH   7  33
TORSDOF 5
ENDMDL
MODEL      195
REMARK 921   NORMALIZED FREE ENERGY PREDICTED BY IDOCK:   -4.46 KCAL/MOL
REMARK 922        TOTAL FREE ENERGY PREDICTED BY IDOCK:   -7.45 KCAL/MOL
REMARK 923 INTER-LIGAND FREE ENERGY PREDICTED BY IDOCK:   -6.36 KCAL/MOL
REMARK 924 INTRA-LIGAND FREE ENERGY PREDICTED BY IDOCK:   -1.09 KCAL/MOL
REMARK 927      BINDING AFFINITY PREDICTED BY RF-SCORE:    0.00 PKD
ROOT
HETATM    1  C   UNL     1      -7.264   7.643  66.020  1.00  0.00    -0.070 C  
HETATM    2  C   UNL     1      -8.653   8.015  66.546  1.00  0.00    -0.148 C  
HETATM    3  C   UNL     1      -9.326   6.664  66.684  1.00  0.00    -0.163 C  
HETATM    4  C   UNL     1      -9.333   9.021  65.629  1.00  0.00    -0.289 C  
HETATM    5  O   UNL     1      -6.602   5.100  64.022  1.00  0.00    -0.036 OA 
HETATM    6  C   UNL     1      -8.477   5.670  66.352  1.00  0.00    -0.121 C  
HETATM    7  C   UNL     1      -6.863   7.600  64.511  1.00  0.00    -0.055 C  
HETATM    8  N   UNL     1      -7.225   6.153  65.993  1.00  0.00    -0.074 N  
HETATM    9  C   UNL     1      -8.737   4.199  66.432  1.00  0.00    -0.115 C  
HETATM   10  O   UNL     1      -9.595   3.691  67.136  1.00  0.00    -0.212 OA 
HETATM   11  O   UNL     1      -7.945   3.440  65.643  1.00  0.00    -0.088 OA 
HETATM   12  C   UNL     1      -6.769   6.085  64.707  1.00  0.00    -0.046 C  
ENDROOT
BRANCH   3  13
HETATM   13  S   UNL     1     -10.896   6.585  67.390  1.00  0.00    -0.388 SA 
BRANCH  13  14
HETATM   14  C   UNL     1     -10.598   6.363  69.186  1.00  0.00    -0.255 C  
HETATM   15  C   UNL     1     -11.757   6.779  70.085  1.00  0.00    -0.313 C  
HETATM   16  N   UNL     1     -11.650   8.227  70.136  1.00  0.00    -0.466 NA 
HETATM   17  C   UNL     1     -10.210   8.567  70.193  1.00  0.00    -0.195 C  
HETATM   18  C   UNL     1      -9.494   7.341  69.611  1.00  0.00    -0.155 C  
HETATM   19  H   UNL     1     -12.186   8.638  70.900  1.00  0.00     0.000 HD 
BRANCH  17  20
HETATM   20  C   UNL     1      -9.995   9.945  69.506  1.00  0.00    -0.222 C  
HETATM   21  O   UNL     1      -8.899  10.504  69.577  1.00  0.00    -0.134 OA 
HETATM   22  N   UNL     1     -11.060  10.406  68.743  1.00  0.00    -0.249 N  
HETATM   23  H   UNL     1     -11.880   9.803  68.691  1.00  0.00     0.000 HD 
BRANCH  22  24
HETATM   24  C   UNL     1     -11.125  11.629  68.028  1.00  0.00    -0.242 A  
HETATM   25  C   UNL     1     -11.721  11.765  66.769  1.00  0.00    -0.197 A  
HETATM   26  C   UNL     1     -11.766  13.003  66.120  1.00  0.00    -0.445 A  
HETATM   27  C   UNL     1     -11.203  14.127  66.713  1.00  0.00    -0.330 A  
HETATM   28  C   UNL     1     -10.574  14.004  67.956  1.00  0.00    -0.250 A  
HETATM   29  C   UNL     1      -9.954  15.171  68.629  1.00  0.00    -0.220 C  
HETATM   30  C   UNL     1     -10.556  12.763  68.618  1.00  0.00    -0.256 A  
HETATM   31  O   UNL     1      -9.410  16.071  67.782  1.00  0.00    -0.209 OA 
HETATM   32  O   UNL     1      -9.906  15.283  69.842  1.00  0.00    -0.229 OA 
ENDBRANCH  22  24
ENDBRANCH  17  20
ENDBRANCH  13  14
ENDBRANCH   3  13
BRANCH   7  33
HETATM   33  C   UNL     1      -5.606   8.377  64.171  1.00  0.00    -0.063 C  
HETATM   34  O   UNL     1      -5.600   9.534  65.007  1.00  0.00    -0.055 OA 
HETATM   35  H   UNL     1      -4.813  10.021  64.794  1.00  0.00     0.000 HD 
HETATM   36  C   UNL     1      -5.600   8.810  62.714  1.00  0.00    -0.071 C  
ENDBRANCH   7  33
TORSDOF 5
ENDMDL
MODEL      196
REMARK 921   NORMALIZED FREE ENERGY PREDICTED BY IDOCK:   -4.45 KCAL/MOL
REMARK 922        TOTAL FREE ENERGY PREDICTED BY IDOCK:   -7.44 KCAL/MOL
REMARK 923 INTER-LIGAND FREE ENERGY PREDICTED BY IDOCK:   -5.74 KCAL/MOL
REMARK 924 INTRA-LIGAND FREE ENERGY PREDICTED BY IDOCK:   -1.70 KCAL/MOL
REMARK 927      BINDING AFFINITY PREDICTED BY RF-SCORE:    0.00 PKD
ROOT
HETATM    1  C   UNL     1      -9.759  10.157  64.927  1.00  0.00    -0.324 C  
HETATM    2  C   UNL     1      -8.496   9.291  64.941  1.00  0.00    -0.182 C  
HETATM    3  C   UNL     1      -8.546   8.658  66.317  1.00  0.00    -0.137 C  
HETATM    4  C   UNL     1      -7.261  10.122  64.622  1.00  0.00    -0.124 C  
HETATM    5  O   UNL     1     -11.055  11.678  67.554  1.00  0.00    -0.240 OA 
HETATM    6  C   UNL     1      -9.659   9.034  66.977  1.00  0.00    -0.176 C  
HETATM    7  C   UNL     1      -9.810  11.668  65.317  1.00  0.00    -0.279 C  
HETATM    8  N   UNL     1     -10.456   9.881  66.215  1.00  0.00    -0.154 N  
HETATM    9  C   UNL     1     -10.111   8.565  68.324  1.00  0.00    -0.192 C  
HETATM   10  O   UNL     1      -9.741   7.526  68.848  1.00  0.00    -0.149 OA 
HETATM   11  O   UNL     1     -10.974   9.392  68.953  1.00  0.00    -0.165 OA 
HETATM   12  C   UNL     1     -10.612  11.200  66.533  1.00  0.00    -0.262 C  
ENDROOT
BRANCH   3  13
HETATM   13  S   UNL     1      -7.366   7.472  66.729  1.00  0.00    -0.094 SA 
BRANCH  13  14
HETATM   14  C   UNL     1      -7.593   6.128  65.502  1.00  0.00    -0.086 C  
HETATM   15  C   UNL     1      -9.039   5.697  65.281  1.00  0.00     0.037 C  
HETATM   16  N   UNL     1      -9.323   4.849  66.425  1.00  0.00    -0.136 NA 
HETATM   17  C   UNL     1      -8.107   4.050  66.703  1.00  0.00    -0.097 C  
HETATM   18  C   UNL     1      -6.961   4.850  66.072  1.00  0.00    -0.066 C  
HETATM   19  H   UNL     1     -10.155   4.272  66.296  1.00  0.00     0.000 HD 
BRANCH  17  20
HETATM   20  C   UNL     1      -8.046   3.747  68.227  1.00  0.00    -0.075 C  
HETATM   21  O   UNL     1      -7.802   2.604  68.617  1.00  0.00    -0.053 OA 
HETATM   22  N   UNL     1      -8.167   4.850  69.062  1.00  0.00    -0.082 N  
HETATM   23  H   UNL     1      -8.274   5.757  68.609  1.00  0.00     0.000 HD 
BRANCH  22  24
HETATM   24  C   UNL     1      -8.156   4.846  70.480  1.00  0.00    -0.084 A  
HETATM   25  C   UNL     1      -6.997   4.697  71.250  1.00  0.00    -0.042 A  
HETATM   26  C   UNL     1      -7.050   4.716  72.648  1.00  0.00    -0.076 A  
HETATM   27  C   UNL     1      -8.267   4.871  73.302  1.00  0.00    -0.104 A  
HETATM   28  C   UNL     1      -9.440   4.989  72.549  1.00  0.00    -0.164 A  
HETATM   29  C   UNL     1     -10.764   5.151  73.198  1.00  0.00    -0.265 C  
HETATM   30  C   UNL     1      -9.379   4.998  71.144  1.00  0.00    -0.199 A  
HETATM   31  O   UNL     1     -10.883   4.501  74.375  1.00  0.00    -0.303 OA 
HETATM   32  O   UNL     1     -11.673   5.784  72.689  1.00  0.00    -0.293 OA 
ENDBRANCH  22  24
ENDBRANCH  17  20
ENDBRANCH  13  14
ENDBRANCH   3  13
BRANCH   7  33
HETATM   33  C   UNL     1     -10.482  12.561  64.292  1.00  0.00    -0.378 C  
HETATM   34  O   UNL     1     -11.113  13.616  65.017  1.00  0.00    -0.308 OA 
HETATM   35  H   UNL     1     -11.534  14.175  64.374  1.00  0.00     0.000 HD 
HETATM   36  C   UNL     1     -11.531  11.799  63.497  1.00  0.00    -0.489 C  
ENDBRANCH   7  33
TORSDOF 5
ENDMDL
MODEL      197
REMARK 921   NORMALIZED FREE ENERGY PREDICTED BY IDOCK:   -4.45 KCAL/MOL
REMARK 922        TOTAL FREE ENERGY PREDICTED BY IDOCK:   -7.44 KCAL/MOL
REMARK 923 INTER-LIGAND FREE ENERGY PREDICTED BY IDOCK:   -6.44 KCAL/MOL
REMARK 924 INTRA-LIGAND FREE ENERGY PREDICTED BY IDOCK:   -1.00 KCAL/MOL
REMARK 927      BINDING AFFINITY PREDICTED BY RF-SCORE:    0.00 PKD
ROOT
HETATM    1  C   UNL     1      -9.549   6.867  70.356  1.00  0.00    -0.169 C  
HETATM    2  C   UNL     1     -10.052   8.306  70.493  1.00  0.00    -0.210 C  
HETATM    3  C   UNL     1      -9.105   9.073  69.591  1.00  0.00    -0.154 C  
HETATM    4  C   UNL     1     -10.093   8.735  71.953  1.00  0.00    -0.409 C  
HETATM    5  O   UNL     1      -6.401   5.983  69.900  1.00  0.00    -0.028 OA 
HETATM    6  C   UNL     1      -8.235   8.237  68.989  1.00  0.00    -0.119 C  
HETATM    7  C   UNL     1      -8.524   6.184  71.317  1.00  0.00    -0.125 C  
HETATM    8  N   UNL     1      -8.454   6.912  69.347  1.00  0.00    -0.132 N  
HETATM    9  C   UNL     1      -7.199   8.594  67.970  1.00  0.00    -0.087 C  
HETATM   10  O   UNL     1      -7.233   9.601  67.281  1.00  0.00    -0.085 OA 
HETATM   11  O   UNL     1      -6.183   7.711  67.862  1.00  0.00    -0.045 OA 
HETATM   12  C   UNL     1      -7.568   6.220  70.123  1.00  0.00    -0.096 C  
ENDROOT
BRANCH   3  13
HETATM   13  S   UNL     1      -9.387  10.752  69.323  1.00  0.00     0.010 SA 
BRANCH  13  14
HETATM   14  C   UNL     1     -11.174  10.876  68.928  1.00  0.00    -0.267 C  
HETATM   15  C   UNL     1     -11.533  10.575  67.478  1.00  0.00     0.082 C  
HETATM   16  N   UNL     1     -11.180  11.796  66.775  1.00  0.00    -0.316 NA 
HETATM   17  C   UNL     1     -11.549  12.935  67.646  1.00  0.00    -0.355 C  
HETATM   18  C   UNL     1     -11.590  12.348  69.063  1.00  0.00    -0.362 C  
HETATM   19  H   UNL     1     -11.599  11.855  65.846  1.00  0.00     0.000 HD 
BRANCH  17  20
HETATM   20  C   UNL     1     -10.577  14.116  67.362  1.00  0.00    -0.279 C  
HETATM   21  O   UNL     1      -9.884  14.110  66.343  1.00  0.00    -0.276 OA 
HETATM   22  N   UNL     1     -10.647  15.177  68.255  1.00  0.00    -0.239 N  
HETATM   23  H   UNL     1     -11.330  15.097  69.007  1.00  0.00     0.000 HD 
BRANCH  22  24
HETATM   24  C   UNL     1      -9.867  16.361  68.229  1.00  0.00    -0.229 A  
HETATM   25  C   UNL     1     -10.347  17.600  67.789  1.00  0.00    -0.365 A  
HETATM   26  C   UNL     1      -9.531  18.736  67.801  1.00  0.00    -0.333 A  
HETATM   27  C   UNL     1      -8.215  18.651  68.240  1.00  0.00    -0.349 A  
HETATM   28  C   UNL     1      -7.708  17.414  68.652  1.00  0.00    -0.273 A  
HETATM   29  C   UNL     1      -6.310  17.268  69.125  1.00  0.00    -0.229 C  
HETATM   30  C   UNL     1      -8.540  16.280  68.666  1.00  0.00    -0.222 A  
HETATM   31  O   UNL     1      -5.432  18.087  68.508  1.00  0.00    -0.161 OA 
HETATM   32  O   UNL     1      -5.982  16.452  69.969  1.00  0.00    -0.201 OA 
ENDBRANCH  22  24
ENDBRANCH  17  20
ENDBRANCH  13  14
ENDBRANCH   3  13
BRANCH   7  33
HETATM   33  C   UNL     1      -8.970   4.842  71.862  1.00  0.00    -0.127 C  
HETATM   34  O   UNL     1     -10.240   4.561  71.274  1.00  0.00    -0.173 OA 
HETATM   35  H   UNL     1     -10.519   3.719  71.616  1.00  0.00     0.000 HD 
HETATM   36  C   UNL     1      -9.114   4.878  73.376  1.00  0.00    -0.117 C  
ENDBRANCH   7  33
TORSDOF 5
ENDMDL
MODEL      198
REMARK 921   NORMALIZED FREE ENERGY PREDICTED BY IDOCK:   -4.44 KCAL/MOL
REMARK 922        TOTAL FREE ENERGY PREDICTED BY IDOCK:   -7.42 KCAL/MOL
REMARK 923 INTER-LIGAND FREE ENERGY PREDICTED BY IDOCK:   -6.39 KCAL/MOL
REMARK 924 INTRA-LIGAND FREE ENERGY PREDICTED BY IDOCK:   -1.03 KCAL/MOL
REMARK 927      BINDING AFFINITY PREDICTED BY RF-SCORE:    0.00 PKD
ROOT
HETATM    1  C   UNL     1     -10.097  14.225  67.330  1.00  0.00    -0.247 C  
HETATM    2  C   UNL     1     -10.512  12.753  67.252  1.00  0.00    -0.238 C  
HETATM    3  C   UNL     1      -9.296  12.038  67.807  1.00  0.00    -0.190 C  
HETATM    4  C   UNL     1     -10.931  12.378  65.837  1.00  0.00    -0.323 C  
HETATM    5  O   UNL     1      -7.021  15.360  66.948  1.00  0.00    -0.207 OA 
HETATM    6  C   UNL     1      -8.355  12.923  68.193  1.00  0.00    -0.168 C  
HETATM    7  C   UNL     1      -9.437  15.030  66.166  1.00  0.00    -0.347 C  
HETATM    8  N   UNL     1      -8.762  14.237  67.992  1.00  0.00    -0.168 N  
HETATM    9  C   UNL     1      -7.051  12.619  68.861  1.00  0.00    -0.069 C  
HETATM   10  O   UNL     1      -6.816  11.588  69.471  1.00  0.00    -0.118 OA 
HETATM   11  O   UNL     1      -6.112  13.583  68.737  1.00  0.00    -0.078 OA 
HETATM   12  C   UNL     1      -8.183  15.031  67.043  1.00  0.00    -0.213 C  
ENDROOT
BRANCH   3  13
HETATM   13  S   UNL     1      -9.368  10.332  68.041  1.00  0.00    -0.139 SA 
BRANCH  13  14
HETATM   14  C   UNL     1      -8.593   9.615  66.541  1.00  0.00    -0.127 C  
HETATM   15  C   UNL     1      -9.488   8.671  65.745  1.00  0.00    -0.122 C  
HETATM   16  N   UNL     1      -9.436   7.431  66.499  1.00  0.00    -0.236 NA 
HETATM   17  C   UNL     1      -8.050   7.264  66.992  1.00  0.00    -0.117 C  
HETATM   18  C   UNL     1      -7.461   8.680  66.992  1.00  0.00    -0.084 C  
HETATM   19  H   UNL     1      -9.767   6.627  65.964  1.00  0.00     0.000 HD 
BRANCH  17  20
HETATM   20  C   UNL     1      -8.089   6.478  68.334  1.00  0.00    -0.111 C  
HETATM   21  O   UNL     1      -7.252   6.714  69.208  1.00  0.00    -0.084 OA 
HETATM   22  N   UNL     1      -9.168   5.620  68.494  1.00  0.00    -0.120 N  
HETATM   23  H   UNL     1      -9.841   5.584  67.730  1.00  0.00     0.000 HD 
BRANCH  22  24
HETATM   24  C   UNL     1      -9.431   4.786  69.610  1.00  0.00    -0.153 A  
HETATM   25  C   UNL     1      -9.140   3.418  69.646  1.00  0.00    -0.202 A  
HETATM   26  C   UNL     1      -9.411   2.650  70.784  1.00  0.00    -0.215 A  
HETATM   27  C   UNL     1      -9.991   3.236  71.904  1.00  0.00    -0.209 A  
HETATM   28  C   UNL     1     -10.319   4.595  71.874  1.00  0.00    -0.220 A  
HETATM   29  C   UNL     1     -10.944   5.267  73.040  1.00  0.00    -0.298 C  
HETATM   30  C   UNL     1     -10.019   5.369  70.738  1.00  0.00    -0.269 A  
HETATM   31  O   UNL     1     -11.777   4.476  73.749  1.00  0.00    -0.137 OA 
HETATM   32  O   UNL     1     -10.749   6.441  73.305  1.00  0.00    -0.248 OA 
ENDBRANCH  22  24
ENDBRANCH  17  20
ENDBRANCH  13  14
ENDBRANCH   3  13
BRANCH   7  33
HETATM   33  C   UNL     1     -10.114  16.348  65.848  1.00  0.00    -0.347 C  
HETATM   34  O   UNL     1     -10.710  16.806  67.062  1.00  0.00    -0.270 OA 
HETATM   35  H   UNL     1     -11.135  17.633  66.862  1.00  0.00     0.000 HD 
HETATM   36  C   UNL     1     -11.195  16.175  64.792  1.00  0.00    -0.313 C  
ENDBRANCH   7  33
TORSDOF 5
ENDMDL
MODEL      199
REMARK 921   NORMALIZED FREE ENERGY PREDICTED BY IDOCK:   -4.44 KCAL/MOL
REMARK 922        TOTAL FREE ENERGY PREDICTED BY IDOCK:   -7.42 KCAL/MOL
REMARK 923 INTER-LIGAND FREE ENERGY PREDICTED BY IDOCK:   -5.92 KCAL/MOL
REMARK 924 INTRA-LIGAND FREE ENERGY PREDICTED BY IDOCK:   -1.50 KCAL/MOL
REMARK 927      BINDING AFFINITY PREDICTED BY RF-SCORE:    0.00 PKD
ROOT
HETATM    1  C   UNL     1      -7.197   8.110  66.464  1.00  0.00    -0.080 C  
HETATM    2  C   UNL     1      -6.759   8.599  67.847  1.00  0.00    -0.066 C  
HETATM    3  C   UNL     1      -7.506   9.910  67.985  1.00  0.00    -0.085 C  
HETATM    4  C   UNL     1      -5.242   8.669  67.948  1.00  0.00    -0.035 C  
HETATM    5  O   UNL     1      -7.891  10.056  63.888  1.00  0.00    -0.143 OA 
HETATM    6  C   UNL     1      -8.284  10.134  66.907  1.00  0.00    -0.122 C  
HETATM    7  C   UNL     1      -6.418   8.373  65.136  1.00  0.00    -0.056 C  
HETATM    8  N   UNL     1      -8.199   9.101  65.980  1.00  0.00    -0.113 N  
HETATM    9  C   UNL     1      -9.230  11.274  66.699  1.00  0.00    -0.180 C  
HETATM   10  O   UNL     1      -9.699  11.950  67.601  1.00  0.00    -0.179 OA 
HETATM   11  O   UNL     1      -9.538  11.527  65.408  1.00  0.00    -0.226 OA 
HETATM   12  C   UNL     1      -7.599   9.272  64.765  1.00  0.00    -0.109 C  
ENDROOT
BRANCH   3  13
HETATM   13  S   UNL     1      -7.419  10.764  69.480  1.00  0.00    -0.063 SA 
BRANCH  13  14
HETATM   14  C   UNL     1      -5.828  11.674  69.416  1.00  0.00    -0.071 C  
HETATM   15  C   UNL     1      -5.545  12.558  70.625  1.00  0.00    -0.175 C  
HETATM   16  N   UNL     1      -6.356  13.739  70.383  1.00  0.00    -0.386 NA 
HETATM   17  C   UNL     1      -6.296  14.034  68.934  1.00  0.00    -0.092 C  
HETATM   18  C   UNL     1      -5.912  12.702  68.278  1.00  0.00    -0.068 C  
HETATM   19  H   UNL     1      -6.082  14.534  70.962  1.00  0.00     0.000 HD 
BRANCH  17  20
HETATM   20  C   UNL     1      -7.629  14.712  68.507  1.00  0.00    -0.120 C  
HETATM   21  O   UNL     1      -8.442  15.063  69.364  1.00  0.00    -0.191 OA 
HETATM   22  N   UNL     1      -7.758  14.980  67.151  1.00  0.00    -0.240 N  
HETATM   23  H   UNL     1      -6.970  14.721  66.558  1.00  0.00     0.000 HD 
BRANCH  22  24
HETATM   24  C   UNL     1      -8.870  15.576  66.505  1.00  0.00    -0.313 A  
HETATM   25  C   UNL     1      -9.160  16.944  66.558  1.00  0.00    -0.302 A  
HETATM   26  C   UNL     1     -10.267  17.475  65.887  1.00  0.00    -0.251 A  
HETATM   27  C   UNL     1     -11.112  16.644  65.160  1.00  0.00    -0.086 A  
HETATM   28  C   UNL     1     -10.856  15.269  65.122  1.00  0.00    -0.441 A  
HETATM   29  C   UNL     1     -11.729  14.339  64.366  1.00  0.00    -0.389 C  
HETATM   30  C   UNL     1      -9.726  14.744  65.776  1.00  0.00    -0.347 A  
HETATM   31  O   UNL     1     -13.032  14.696  64.352  1.00  0.00    -0.475 OA 
HETATM   32  O   UNL     1     -11.309  13.323  63.840  1.00  0.00    -0.381 OA 
ENDBRANCH  22  24
ENDBRANCH  17  20
ENDBRANCH  13  14
ENDBRANCH   3  13
BRANCH   7  33
HETATM   33  C   UNL     1      -6.148   7.133  64.307  1.00  0.00    -0.037 C  
HETATM   34  O   UNL     1      -7.047   7.177  63.199  1.00  0.00    -0.058 OA 
HETATM   35  H   UNL     1      -6.878   6.399  62.680  1.00  0.00     0.000 HD 
HETATM   36  C   UNL     1      -6.401   5.866  65.109  1.00  0.00    -0.038 C  
ENDBRANCH   7  33
TORSDOF 5
ENDMDL
MODEL      200
REMARK 921   NORMALIZED FREE ENERGY PREDICTED BY IDOCK:   -4.43 KCAL/MOL
REMARK 922        TOTAL FREE ENERGY PREDICTED BY IDOCK:   -7.40 KCAL/MOL
REMARK 923 INTER-LIGAND FREE ENERGY PREDICTED BY IDOCK:   -6.52 KCAL/MOL
REMARK 924 INTRA-LIGAND FREE ENERGY PREDICTED BY IDOCK:   -0.88 KCAL/MOL
REMARK 927      BINDING AFFINITY PREDICTED BY RF-SCORE:    0.00 PKD
ROOT
HETATM    1  C   UNL     1      -9.098  17.532  67.425  1.00  0.00    -0.237 C  
HETATM    2  C   UNL     1      -9.603  16.111  67.166  1.00  0.00    -0.235 C  
HETATM    3  C   UNL     1      -8.714  15.276  68.065  1.00  0.00    -0.160 C  
HETATM    4  C   UNL     1      -9.567  15.780  65.680  1.00  0.00    -0.299 C  
HETATM    5  O   UNL     1      -5.973  18.348  68.111  1.00  0.00    -0.178 OA 
HETATM    6  C   UNL     1      -7.872  16.060  68.768  1.00  0.00    -0.190 C  
HETATM    7  C   UNL     1      -8.017  18.266  66.570  1.00  0.00    -0.294 C  
HETATM    8  N   UNL     1      -8.061  17.409  68.488  1.00  0.00    -0.263 N  
HETATM    9  C   UNL     1      -6.897  15.624  69.815  1.00  0.00    -0.134 C  
HETATM   10  O   UNL     1      -6.976  14.575  70.433  1.00  0.00    -0.019 OA 
HETATM   11  O   UNL     1      -5.881  16.487  70.038  1.00  0.00    -0.203 OA 
HETATM   12  C   UNL     1      -7.128  18.140  67.809  1.00  0.00    -0.212 C  
ENDROOT
BRANCH   3  13
HETATM   13  S   UNL     1      -9.023  13.586  68.204  1.00  0.00    -0.185 SA 
BRANCH  13  14
HETATM   14  C   UNL     1      -7.646  12.775  67.303  1.00  0.00    -0.112 C  
HETATM   15  C   UNL     1      -8.070  11.934  66.105  1.00  0.00     0.296 C  
HETATM   16  N   UNL     1      -8.550  10.701  66.703  1.00  0.00    -0.135 NA 
HETATM   17  C   UNL     1      -7.661  10.381  67.843  1.00  0.00    -0.089 C  
HETATM   18  C   UNL     1      -7.025  11.722  68.231  1.00  0.00    -0.075 C  
HETATM   19  H   UNL     1      -8.625   9.936  66.031  1.00  0.00     0.000 HD 
BRANCH  17  20
HETATM   20  C   UNL     1      -8.484   9.614  68.917  1.00  0.00    -0.125 C  
HETATM   21  O   UNL     1      -8.652  10.110  70.033  1.00  0.00    -0.152 OA 
HETATM   22  N   UNL     1      -9.081   8.437  68.486  1.00  0.00    -0.136 N  
HETATM   23  H   UNL     1      -8.938   8.183  67.509  1.00  0.00     0.000 HD 
BRANCH  22  24
HETATM   24  C   UNL     1      -9.868   7.550  69.263  1.00  0.00    -0.170 A  
HETATM   25  C   UNL     1      -9.811   6.156  69.153  1.00  0.00    -0.176 A  
HETATM   26  C   UNL     1     -10.604   5.333  69.959  1.00  0.00    -0.300 A  
HETATM   27  C   UNL     1     -11.481   5.891  70.883  1.00  0.00    -0.122 A  
HETATM   28  C   UNL     1     -11.576   7.283  70.985  1.00  0.00    -0.329 A  
HETATM   29  C   UNL     1     -12.499   7.928  71.950  1.00  0.00    -0.321 C  
HETATM   30  C   UNL     1     -10.756   8.106  70.192  1.00  0.00    -0.243 A  
HETATM   31  O   UNL     1     -13.644   7.244  72.158  1.00  0.00    -0.130 OA 
HETATM   32  O   UNL     1     -12.257   9.001  72.475  1.00  0.00    -0.304 OA 
ENDBRANCH  22  24
ENDBRANCH  17  20
ENDBRANCH  13  14
ENDBRANCH   3  13
BRANCH   7  33
HETATM   33  C   UNL     1      -8.421  19.646  66.092  1.00  0.00    -0.334 C  
HETATM   34  O   UNL     1      -7.820  20.582  66.987  1.00  0.00    -0.379 OA 
HETATM   35  H   UNL     1      -8.074  21.448  66.687  1.00  0.00     0.000 HD 
HETATM   36  C   UNL     1      -9.931  19.822  66.120  1.00  0.00    -0.573 C  
ENDBRANCH   7  33
TORSDOF 5
ENDMDL
MODEL      201
REMARK 921   NORMALIZED FREE ENERGY PREDICTED BY IDOCK:   -4.39 KCAL/MOL
REMARK 922        TOTAL FREE ENERGY PREDICTED BY IDOCK:   -7.36 KCAL/MOL
REMARK 923 INTER-LIGAND FREE ENERGY PREDICTED BY IDOCK:   -5.81 KCAL/MOL
REMARK 924 INTRA-LIGAND FREE ENERGY PREDICTED BY IDOCK:   -1.55 KCAL/MOL
REMARK 927      BINDING AFFINITY PREDICTED BY RF-SCORE:    0.00 PKD
ROOT
HETATM    1  C   UNL     1      -9.095  17.113  68.027  1.00  0.00    -0.240 C  
HETATM    2  C   UNL     1     -10.422  16.596  67.465  1.00  0.00    -0.317 C  
HETATM    3  C   UNL     1     -10.286  15.096  67.627  1.00  0.00    -0.241 C  
HETATM    4  C   UNL     1     -10.651  17.107  66.049  1.00  0.00    -0.205 C  
HETATM    5  O   UNL     1      -6.198  15.543  67.823  1.00  0.00    -0.136 OA 
HETATM    6  C   UNL     1      -9.118  14.782  68.224  1.00  0.00    -0.183 C  
HETATM    7  C   UNL     1      -7.821  17.416  67.176  1.00  0.00    -0.226 C  
HETATM    8  N   UNL     1      -8.373  15.913  68.538  1.00  0.00    -0.173 N  
HETATM    9  C   UNL     1      -8.651  13.420  68.630  1.00  0.00     0.010 C  
HETATM   10  O   UNL     1      -9.390  12.466  68.811  1.00  0.00    -0.048 OA 
HETATM   11  O   UNL     1      -7.313  13.302  68.780  1.00  0.00    -0.103 OA 
HETATM   12  C   UNL     1      -7.208  16.209  67.890  1.00  0.00    -0.130 C  
ENDROOT
BRANCH   3  13
HETATM   13  S   UNL     1     -11.633  14.092  67.243  1.00  0.00    -0.393 SA 
BRANCH  13  14
HETATM   14  C   UNL     1     -11.461  13.730  65.453  1.00  0.00    -0.311 C  
HETATM   15  C   UNL     1     -12.628  12.967  64.837  1.00  0.00    -0.458 C  
HETATM   16  N   UNL     1     -12.395  11.593  65.249  1.00  0.00     0.119 NA 
HETATM   17  C   UNL     1     -10.937  11.348  65.184  1.00  0.00    -0.192 C  
HETATM   18  C   UNL     1     -10.300  12.740  65.276  1.00  0.00    -0.313 C  
HETATM   19  H   UNL     1     -12.936  10.919  64.706  1.00  0.00     0.000 HD 
BRANCH  17  20
HETATM   20  C   UNL     1     -10.561  10.289  66.260  1.00  0.00    -0.080 C  
HETATM   21  O   UNL     1     -11.369   9.996  67.143  1.00  0.00    -0.113 OA 
HETATM   22  N   UNL     1      -9.342   9.652  66.072  1.00  0.00    -0.190 N  
HETATM   23  H   UNL     1      -8.807   9.923  65.248  1.00  0.00     0.000 HD 
BRANCH  22  24
HETATM   24  C   UNL     1      -8.763   8.663  66.908  1.00  0.00    -0.124 A  
HETATM   25  C   UNL     1      -7.816   8.939  67.900  1.00  0.00    -0.102 A  
HETATM   26  C   UNL     1      -7.291   7.921  68.703  1.00  0.00    -0.090 A  
HETATM   27  C   UNL     1      -7.696   6.603  68.518  1.00  0.00    -0.105 A  
HETATM   28  C   UNL     1      -8.618   6.304  67.510  1.00  0.00    -0.107 A  
HETATM   29  C   UNL     1      -9.078   4.915  67.269  1.00  0.00    -0.116 C  
HETATM   30  C   UNL     1      -9.163   7.335  66.724  1.00  0.00    -0.187 A  
HETATM   31  O   UNL     1      -8.138   3.974  67.504  1.00  0.00    -0.090 OA 
HETATM   32  O   UNL     1     -10.195   4.654  66.856  1.00  0.00    -0.213 OA 
ENDBRANCH  22  24
ENDBRANCH  17  20
ENDBRANCH  13  14
ENDBRANCH   3  13
BRANCH   7  33
HETATM   33  C   UNL     1      -7.221  18.789  67.405  1.00  0.00    -0.206 C  
HETATM   34  O   UNL     1      -6.058  18.599  68.210  1.00  0.00    -0.201 OA 
HETATM   35  H   UNL     1      -5.682  19.460  68.354  1.00  0.00     0.000 HD 
HETATM   36  C   UNL     1      -8.193  19.703  68.135  1.00  0.00    -0.348 C  
ENDBRANCH   7  33
TORSDOF 5
ENDMDL
MODEL      202
REMARK 921   NORMALIZED FREE ENERGY PREDICTED BY IDOCK:   -4.39 KCAL/MOL
REMARK 922        TOTAL FREE ENERGY PREDICTED BY IDOCK:   -7.35 KCAL/MOL
REMARK 923 INTER-LIGAND FREE ENERGY PREDICTED BY IDOCK:   -7.36 KCAL/MOL
REMARK 924 INTRA-LIGAND FREE ENERGY PREDICTED BY IDOCK:    0.01 KCAL/MOL
REMARK 927      BINDING AFFINITY PREDICTED BY RF-SCORE:    0.00 PKD
ROOT
HETATM    1  C   UNL     1     -11.077  13.917  69.786  1.00  0.00    -0.006 C  
HETATM    2  C   UNL     1     -10.582  12.754  68.923  1.00  0.00    -0.154 C  
HETATM    3  C   UNL     1      -9.987  13.464  67.723  1.00  0.00    -0.233 C  
HETATM    4  C   UNL     1     -11.706  11.767  68.638  1.00  0.00    -0.389 C  
HETATM    5  O   UNL     1     -12.252  16.780  68.635  1.00  0.00     0.579 OA 
HETATM    6  C   UNL     1     -10.066  14.802  67.871  1.00  0.00    -0.221 C  
HETATM    7  C   UNL     1     -12.528  14.495  69.759  1.00  0.00    -0.259 C  
HETATM    8  N   UNL     1     -10.653  15.159  69.079  1.00  0.00    -0.236 N  
HETATM    9  C   UNL     1      -9.522  15.845  66.946  1.00  0.00    -0.227 C  
HETATM   10  O   UNL     1      -8.631  15.646  66.135  1.00  0.00    -0.297 OA 
HETATM   11  O   UNL     1     -10.102  17.060  67.059  1.00  0.00    -0.279 OA 
HETATM   12  C   UNL     1     -11.888  15.738  69.136  1.00  0.00    -0.354 C  
ENDROOT
BRANCH   3  13
HETATM   13  S   UNL     1      -9.169  12.533  66.526  1.00  0.00    -0.172 SA 
BRANCH  13  14
HETATM   14  C   UNL     1      -7.891  11.593  67.447  1.00  0.00    -0.147 C  
HETATM   15  C   UNL     1      -7.994  11.687  68.965  1.00  0.00     0.063 C  
HETATM   16  N   UNL     1      -7.416  12.984  69.269  1.00  0.00    -0.311 NA 
HETATM   17  C   UNL     1      -6.261  13.183  68.364  1.00  0.00    -0.083 C  
HETATM   18  C   UNL     1      -6.530  12.250  67.176  1.00  0.00    -0.118 C  
HETATM   19  H   UNL     1      -7.170  13.089  70.254  1.00  0.00     0.000 HD 
BRANCH  17  20
HETATM   20  C   UNL     1      -6.100  14.705  68.087  1.00  0.00    -0.142 C  
HETATM   21  O   UNL     1      -5.762  15.094  66.967  1.00  0.00    -0.115 OA 
HETATM   22  N   UNL     1      -6.468  15.545  69.129  1.00  0.00    -0.120 N  
HETATM   23  H   UNL     1      -6.819  15.097  69.975  1.00  0.00     0.000 HD 
BRANCH  22  24
HETATM   24  C   UNL     1      -6.407  16.961  69.139  1.00  0.00    -0.204 A  
HETATM   25  C   UNL     1      -5.759  17.706  70.131  1.00  0.00    -0.227 A  
HETATM   26  C   UNL     1      -5.722  19.104  70.078  1.00  0.00    -0.271 A  
HETATM   27  C   UNL     1      -6.346  19.783  69.038  1.00  0.00    -0.341 A  
HETATM   28  C   UNL     1      -7.027  19.057  68.055  1.00  0.00    -0.256 A  
HETATM   29  C   UNL     1      -7.712  19.734  66.927  1.00  0.00    -0.272 C  
HETATM   30  C   UNL     1      -7.037  17.651  68.097  1.00  0.00    -0.216 A  
HETATM   31  O   UNL     1      -8.243  20.933  67.246  1.00  0.00    -0.271 OA 
HETATM   32  O   UNL     1      -7.818  19.229  65.822  1.00  0.00    -0.444 OA 
ENDBRANCH  22  24
ENDBRANCH  17  20
ENDBRANCH  13  14
ENDBRANCH   3  13
BRANCH   7  33
HETATM   33  C   UNL     1     -13.186  14.610  71.119  1.00  0.00    -0.372 C  
HETATM   34  O   UNL     1     -14.229  15.576  70.991  1.00  0.00    -0.820 OA 
HETATM   35  H   UNL     1     -14.641  15.648  71.844  1.00  0.00     0.000 HD 
HETATM   36  C   UNL     1     -12.196  15.076  72.176  1.00  0.00    -0.446 C  
ENDBRANCH   7  33
TORSDOF 5
ENDMDL
MODEL      203
REMARK 921   NORMALIZED FREE ENERGY PREDICTED BY IDOCK:   -4.38 KCAL/MOL
REMARK 922        TOTAL FREE ENERGY PREDICTED BY IDOCK:   -7.34 KCAL/MOL
REMARK 923 INTER-LIGAND FREE ENERGY PREDICTED BY IDOCK:   -5.43 KCAL/MOL
REMARK 924 INTRA-LIGAND FREE ENERGY PREDICTED BY IDOCK:   -1.92 KCAL/MOL
REMARK 927      BINDING AFFINITY PREDICTED BY RF-SCORE:    0.00 PKD
ROOT
HETATM    1  C   UNL     1      -9.461  12.581  68.331  1.00  0.00    -0.167 C  
HETATM    2  C   UNL     1     -10.664  11.640  68.445  1.00  0.00    -0.248 C  
HETATM    3  C   UNL     1     -10.010  10.273  68.479  1.00  0.00    -0.164 C  
HETATM    4  C   UNL     1     -11.660  11.888  67.321  1.00  0.00    -0.364 C  
HETATM    5  O   UNL     1      -6.652  11.899  66.737  1.00  0.00    -0.121 OA 
HETATM    6  C   UNL     1      -8.667  10.384  68.445  1.00  0.00    -0.129 C  
HETATM    7  C   UNL     1      -8.882  13.132  66.990  1.00  0.00    -0.212 C  
HETATM    8  N   UNL     1      -8.254  11.710  68.404  1.00  0.00    -0.151 N  
HETATM    9  C   UNL     1      -7.669   9.273  68.540  1.00  0.00    -0.085 C  
HETATM   10  O   UNL     1      -7.906   8.176  69.019  1.00  0.00    -0.104 OA 
HETATM   11  O   UNL     1      -6.448   9.564  68.038  1.00  0.00    -0.060 OA 
HETATM   12  C   UNL     1      -7.670  12.248  67.293  1.00  0.00    -0.161 C  
ENDROOT
BRANCH   3  13
HETATM   13  S   UNL     1     -10.997   8.886  68.744  1.00  0.00     0.205 SA 
BRANCH  13  14
HETATM   14  C   UNL     1     -11.387   8.916  70.536  1.00  0.00    -0.234 C  
HETATM   15  C   UNL     1     -10.181   9.091  71.453  1.00  0.00    -0.329 C  
HETATM   16  N   UNL     1      -9.586   7.766  71.493  1.00  0.00    -0.154 NA 
HETATM   17  C   UNL     1     -10.690   6.780  71.524  1.00  0.00    -0.226 C  
HETATM   18  C   UNL     1     -11.896   7.524  70.937  1.00  0.00    -0.293 C  
HETATM   19  H   UNL     1      -8.928   7.649  72.265  1.00  0.00     0.000 HD 
BRANCH  17  20
HETATM   20  C   UNL     1     -10.213   5.475  70.825  1.00  0.00    -0.235 C  
HETATM   21  O   UNL     1     -10.380   4.386  71.377  1.00  0.00    -0.132 OA 
HETATM   22  N   UNL     1      -9.719   5.632  69.538  1.00  0.00    -0.145 N  
HETATM   23  H   UNL     1      -9.719   6.579  69.160  1.00  0.00     0.000 HD 
BRANCH  22  24
HETATM   24  C   UNL     1      -9.213   4.612  68.693  1.00  0.00    -0.126 A  
HETATM   25  C   UNL     1      -8.294   3.641  69.107  1.00  0.00    -0.085 A  
HETATM   26  C   UNL     1      -7.842   2.651  68.228  1.00  0.00    -0.056 A  
HETATM   27  C   UNL     1      -8.292   2.622  66.913  1.00  0.00    -0.095 A  
HETATM   28  C   UNL     1      -9.186   3.604  66.471  1.00  0.00    -0.183 A  
HETATM   29  C   UNL     1      -9.692   3.620  65.078  1.00  0.00    -0.162 C  
HETATM   30  C   UNL     1      -9.659   4.580  67.366  1.00  0.00    -0.209 A  
HETATM   31  O   UNL     1      -8.801   3.182  64.163  1.00  0.00    -0.096 OA 
HETATM   32  O   UNL     1     -10.802   4.031  64.785  1.00  0.00    -0.233 OA 
ENDBRANCH  22  24
ENDBRANCH  17  20
ENDBRANCH  13  14
ENDBRANCH   3  13
BRANCH   7  33
HETATM   33  C   UNL     1      -8.704  14.637  66.951  1.00  0.00    -0.224 C  
HETATM   34  O   UNL     1      -7.300  14.886  67.016  1.00  0.00    -0.249 OA 
HETATM   35  H   UNL     1      -7.188  15.829  66.992  1.00  0.00     0.000 HD 
HETATM   36  C   UNL     1      -9.388  15.306  68.132  1.00  0.00    -0.198 C  
ENDBRANCH   7  33
TORSDOF 5
ENDMDL
MODEL      204
REMARK 921   NORMALIZED FREE ENERGY PREDICTED BY IDOCK:   -4.37 KCAL/MOL
REMARK 922        TOTAL FREE ENERGY PREDICTED BY IDOCK:   -7.33 KCAL/MOL
REMARK 923 INTER-LIGAND FREE ENERGY PREDICTED BY IDOCK:   -7.03 KCAL/MOL
REMARK 924 INTRA-LIGAND FREE ENERGY PREDICTED BY IDOCK:   -0.30 KCAL/MOL
REMARK 927      BINDING AFFINITY PREDICTED BY RF-SCORE:    0.00 PKD
ROOT
HETATM    1  C   UNL     1     -10.060  17.313  67.522  1.00  0.00    -0.315 C  
HETATM    2  C   UNL     1     -10.473  15.850  67.346  1.00  0.00    -0.306 C  
HETATM    3  C   UNL     1      -9.360  15.106  68.055  1.00  0.00    -0.187 C  
HETATM    4  C   UNL     1     -10.684  15.515  65.876  1.00  0.00    -0.346 C  
HETATM    5  O   UNL     1      -6.949  18.415  67.625  1.00  0.00    -0.204 OA 
HETATM    6  C   UNL     1      -8.477  15.968  68.598  1.00  0.00    -0.208 C  
HETATM    7  C   UNL     1      -9.227  18.137  66.489  1.00  0.00    -0.290 C  
HETATM    8  N   UNL     1      -8.836  17.291  68.373  1.00  0.00    -0.261 N  
HETATM    9  C   UNL     1      -7.289  15.629  69.442  1.00  0.00    -0.216 C  
HETATM   10  O   UNL     1      -7.157  14.581  70.053  1.00  0.00    -0.096 OA 
HETATM   11  O   UNL     1      -6.332  16.583  69.482  1.00  0.00    -0.196 OA 
HETATM   12  C   UNL     1      -8.116  18.100  67.540  1.00  0.00    -0.238 C  
ENDROOT
BRANCH   3  13
HETATM   13  S   UNL     1      -9.484  13.396  68.231  1.00  0.00    -0.185 SA 
BRANCH  13  14
HETATM   14  C   UNL     1     -10.427  12.834  66.762  1.00  0.00    -0.241 C  
HETATM   15  C   UNL     1     -11.900  12.536  67.020  1.00  0.00    -0.323 C  
HETATM   16  N   UNL     1     -11.881  11.225  67.645  1.00  0.00    -0.627 NA 
HETATM   17  C   UNL     1     -10.835  10.423  66.971  1.00  0.00    -0.203 C  
HETATM   18  C   UNL     1      -9.888  11.457  66.348  1.00  0.00    -0.242 C  
HETATM   19  H   UNL     1     -12.794  10.770  67.642  1.00  0.00     0.000 HD 
BRANCH  17  20
HETATM   20  C   UNL     1     -10.252   9.404  67.991  1.00  0.00    -0.204 C  
HETATM   21  O   UNL     1     -11.011   8.725  68.684  1.00  0.00    -0.039 OA 
HETATM   22  N   UNL     1      -8.872   9.254  67.964  1.00  0.00    -0.128 N  
HETATM   23  H   UNL     1      -8.365   9.811  67.277  1.00  0.00     0.000 HD 
BRANCH  22  24
HETATM   24  C   UNL     1      -8.094   8.405  68.792  1.00  0.00    -0.121 A  
HETATM   25  C   UNL     1      -7.668   8.750  70.079  1.00  0.00    -0.082 A  
HETATM   26  C   UNL     1      -6.913   7.863  70.854  1.00  0.00    -0.048 A  
HETATM   27  C   UNL     1      -6.558   6.617  70.348  1.00  0.00    -0.048 A  
HETATM   28  C   UNL     1      -6.948   6.268  69.051  1.00  0.00    -0.068 A  
HETATM   29  C   UNL     1      -6.591   4.953  68.463  1.00  0.00    -0.049 C  
HETATM   30  C   UNL     1      -7.731   7.152  68.287  1.00  0.00    -0.120 A  
HETATM   31  O   UNL     1      -5.394   4.476  68.867  1.00  0.00    -0.010 OA 
HETATM   32  O   UNL     1      -7.302   4.379  67.656  1.00  0.00    -0.068 OA 
ENDBRANCH  22  24
ENDBRANCH  17  20
ENDBRANCH  13  14
ENDBRANCH   3  13
BRANCH   7  33
HETATM   33  C   UNL     1      -9.837  19.472  66.109  1.00  0.00    -0.412 C  
HETATM   34  O   UNL     1      -8.765  20.413  66.060  1.00  0.00    -0.573 OA 
HETATM   35  H   UNL     1      -9.147  21.250  65.822  1.00  0.00     0.000 HD 
HETATM   36  C   UNL     1     -10.859  19.927  67.139  1.00  0.00    -0.381 C  
ENDBRANCH   7  33
TORSDOF 5
ENDMDL
MODEL      205
REMARK 921   NORMALIZED FREE ENERGY PREDICTED BY IDOCK:   -4.37 KCAL/MOL
REMARK 922        TOTAL FREE ENERGY PREDICTED BY IDOCK:   -7.33 KCAL/MOL
REMARK 923 INTER-LIGAND FREE ENERGY PREDICTED BY IDOCK:   -6.09 KCAL/MOL
REMARK 924 INTRA-LIGAND FREE ENERGY PREDICTED BY IDOCK:   -1.24 KCAL/MOL
REMARK 927      BINDING AFFINITY PREDICTED BY RF-SCORE:    0.00 PKD
ROOT
HETATM    1  C   UNL     1     -11.545  13.168  66.008  1.00  0.00    -0.353 C  
HETATM    2  C   UNL     1     -10.717  12.478  67.095  1.00  0.00    -0.263 C  
HETATM    3  C   UNL     1     -10.109  13.650  67.840  1.00  0.00    -0.244 C  
HETATM    4  C   UNL     1      -9.740  11.480  66.488  1.00  0.00    -0.226 C  
HETATM    5  O   UNL     1     -10.758  16.015  64.533  1.00  0.00    -0.542 OA 
HETATM    6  C   UNL     1     -10.538  14.820  67.324  1.00  0.00    -0.273 C  
HETATM    7  C   UNL     1     -11.044  13.470  64.560  1.00  0.00    -0.394 C  
HETATM    8  N   UNL     1     -11.424  14.630  66.271  1.00  0.00    -0.359 N  
HETATM    9  C   UNL     1     -10.230  16.194  67.829  1.00  0.00    -0.267 C  
HETATM   10  O   UNL     1      -9.858  16.441  68.965  1.00  0.00    -0.244 OA 
HETATM   11  O   UNL     1     -10.383  17.180  66.917  1.00  0.00    -0.313 OA 
HETATM   12  C   UNL     1     -11.088  14.940  64.984  1.00  0.00    -0.414 C  
ENDROOT
BRANCH   3  13
HETATM   13  S   UNL     1      -9.187  13.343  69.263  1.00  0.00     0.998 SA 
BRANCH  13  14
HETATM   14  C   UNL     1      -7.533  14.059  68.923  1.00  0.00    -0.095 C  
HETATM   15  C   UNL     1      -7.093  13.994  67.464  1.00  0.00    -0.160 C  
HETATM   16  N   UNL     1      -6.653  12.619  67.299  1.00  0.00    -0.280 NA 
HETATM   17  C   UNL     1      -5.950  12.223  68.541  1.00  0.00    -0.054 C  
HETATM   18  C   UNL     1      -6.482  13.180  69.615  1.00  0.00    -0.047 C  
HETATM   19  H   UNL     1      -6.088  12.481  66.461  1.00  0.00     0.000 HD 
BRANCH  17  20
HETATM   20  C   UNL     1      -6.138  10.694  68.754  1.00  0.00    -0.040 C  
HETATM   21  O   UNL     1      -5.784  10.173  69.813  1.00  0.00    -0.040 OA 
HETATM   22  N   UNL     1      -6.815  10.027  67.742  1.00  0.00    -0.075 N  
HETATM   23  H   UNL     1      -7.137  10.593  66.958  1.00  0.00     0.000 HD 
BRANCH  22  24
HETATM   24  C   UNL     1      -7.106   8.640  67.686  1.00  0.00    -0.080 A  
HETATM   25  C   UNL     1      -6.805   7.825  66.589  1.00  0.00    -0.070 A  
HETATM   26  C   UNL     1      -7.105   6.458  66.600  1.00  0.00    -0.069 A  
HETATM   27  C   UNL     1      -7.726   5.885  67.704  1.00  0.00    -0.097 A  
HETATM   28  C   UNL     1      -8.064   6.690  68.796  1.00  0.00    -0.119 A  
HETATM   29  C   UNL     1      -8.731   6.129  69.996  1.00  0.00    -0.137 C  
HETATM   30  C   UNL     1      -7.735   8.058  68.793  1.00  0.00    -0.108 A  
HETATM   31  O   UNL     1      -9.579   5.113  69.729  1.00  0.00    -0.146 OA 
HETATM   32  O   UNL     1      -8.555   6.575  71.117  1.00  0.00    -0.129 OA 
ENDBRANCH  22  24
ENDBRANCH  17  20
ENDBRANCH  13  14
ENDBRANCH   3  13
BRANCH   7  33
HETATM   33  C   UNL     1     -11.971  12.993  63.460  1.00  0.00    -0.545 C  
HETATM   34  O   UNL     1     -12.835  14.086  63.149  1.00  0.00    -0.647 OA 
HETATM   35  H   UNL     1     -13.416  13.786  62.459  1.00  0.00     0.000 HD 
HETATM   36  C   UNL     1     -12.807  11.807  63.916  1.00  0.00    -0.252 C  
ENDBRANCH   7  33
TORSDOF 5
ENDMDL
MODEL      206
REMARK 921   NORMALIZED FREE ENERGY PREDICTED BY IDOCK:   -4.36 KCAL/MOL
REMARK 922        TOTAL FREE ENERGY PREDICTED BY IDOCK:   -7.32 KCAL/MOL
REMARK 923 INTER-LIGAND FREE ENERGY PREDICTED BY IDOCK:   -6.18 KCAL/MOL
REMARK 924 INTRA-LIGAND FREE ENERGY PREDICTED BY IDOCK:   -1.14 KCAL/MOL
REMARK 927      BINDING AFFINITY PREDICTED BY RF-SCORE:    0.00 PKD
ROOT
HETATM    1  C   UNL     1     -11.739  13.422  70.503  1.00  0.00    -0.026 C  
HETATM    2  C   UNL     1     -11.749  11.932  70.151  1.00  0.00    -0.337 C  
HETATM    3  C   UNL     1     -11.068  11.909  68.797  1.00  0.00    -0.245 C  
HETATM    4  C   UNL     1     -13.161  11.366  70.209  1.00  0.00     0.311 C  
HETATM    5  O   UNL     1     -11.987  15.895  68.330  1.00  0.00    -0.193 OA 
HETATM    6  C   UNL     1     -10.678  13.148  68.436  1.00  0.00    -0.253 C  
HETATM    7  C   UNL     1     -12.906  14.417  70.209  1.00  0.00    -0.230 C  
HETATM    8  N   UNL     1     -10.992  14.095  69.403  1.00  0.00    -0.218 N  
HETATM    9  C   UNL     1      -9.906  13.529  67.213  1.00  0.00    -0.237 C  
HETATM   10  O   UNL     1      -9.216  12.756  66.568  1.00  0.00    -0.233 OA 
HETATM   11  O   UNL     1     -10.030  14.823  66.845  1.00  0.00    -0.237 OA 
HETATM   12  C   UNL     1     -11.949  15.047  69.194  1.00  0.00    -0.275 C  
ENDROOT
BRANCH   3  13
HETATM   13  S   UNL     1     -10.729  10.387  68.063  1.00  0.00    -0.269 SA 
BRANCH  13  14
HETATM   14  C   UNL     1     -10.028   9.356  69.407  1.00  0.00    -0.183 C  
HETATM   15  C   UNL     1      -8.505   9.288  69.437  1.00  0.00    -0.137 C  
HETATM   16  N   UNL     1      -8.183   8.335  68.389  1.00  0.00    -0.130 NA 
HETATM   17  C   UNL     1      -9.200   7.260  68.434  1.00  0.00    -0.137 C  
HETATM   18  C   UNL     1     -10.409   7.894  69.134  1.00  0.00    -0.225 C  
HETATM   19  H   UNL     1      -7.228   7.980  68.454  1.00  0.00     0.000 HD 
BRANCH  17  20
HETATM   20  C   UNL     1      -9.390   6.692  66.999  1.00  0.00    -0.141 C  
HETATM   21  O   UNL     1     -10.503   6.718  66.470  1.00  0.00    -0.158 OA 
HETATM   22  N   UNL     1      -8.228   6.286  66.357  1.00  0.00    -0.111 N  
HETATM   23  H   UNL     1      -7.357   6.402  66.873  1.00  0.00     0.000 HD 
BRANCH  22  24
HETATM   24  C   UNL     1      -8.127   5.726  65.058  1.00  0.00    -0.131 A  
HETATM   25  C   UNL     1      -7.859   6.473  63.906  1.00  0.00    -0.109 A  
HETATM   26  C   UNL     1      -7.758   5.859  62.653  1.00  0.00    -0.084 A  
HETATM   27  C   UNL     1      -7.937   4.486  62.527  1.00  0.00    -0.068 A  
HETATM   28  C   UNL     1      -8.238   3.727  63.664  1.00  0.00    -0.090 A  
HETATM   29  C   UNL     1      -8.442   2.260  63.583  1.00  0.00    -0.085 C  
HETATM   30  C   UNL     1      -8.311   4.345  64.925  1.00  0.00    -0.118 A  
HETATM   31  O   UNL     1      -9.012   1.846  62.431  1.00  0.00    -0.073 OA 
HETATM   32  O   UNL     1      -8.156   1.505  64.496  1.00  0.00    -0.067 OA 
ENDBRANCH  22  24
ENDBRANCH  17  20
ENDBRANCH  13  14
ENDBRANCH   3  13
BRANCH   7  33
HETATM   33  C   UNL     1     -13.354  15.234  71.404  1.00  0.00    -0.491 C  
HETATM   34  O   UNL     1     -12.383  16.265  71.583  1.00  0.00    -0.593 OA 
HETATM   35  H   UNL     1     -12.663  16.777  72.333  1.00  0.00     0.000 HD 
HETATM   36  C   UNL     1     -13.423  14.384  72.663  1.00  0.00    -0.605 C  
ENDBRANCH   7  33
TORSDOF 5
ENDMDL
MODEL      207
REMARK 921   NORMALIZED FREE ENERGY PREDICTED BY IDOCK:   -4.31 KCAL/MOL
REMARK 922        TOTAL FREE ENERGY PREDICTED BY IDOCK:   -7.25 KCAL/MOL
REMARK 923 INTER-LIGAND FREE ENERGY PREDICTED BY IDOCK:   -6.02 KCAL/MOL
REMARK 924 INTRA-LIGAND FREE ENERGY PREDICTED BY IDOCK:   -1.23 KCAL/MOL
REMARK 927      BINDING AFFINITY PREDICTED BY RF-SCORE:    0.00 PKD
ROOT
HETATM    1  C   UNL     1     -11.945  11.186  69.425  1.00  0.00    -0.349 C  
HETATM    2  C   UNL     1     -11.029   9.962  69.353  1.00  0.00    -0.263 C  
HETATM    3  C   UNL     1     -11.638   9.035  70.386  1.00  0.00    -0.117 C  
HETATM    4  C   UNL     1      -9.574  10.354  69.567  1.00  0.00    -0.182 C  
HETATM    5  O   UNL     1     -13.451  12.283  72.150  1.00  0.00    -0.509 OA 
HETATM    6  C   UNL     1     -12.741   9.584  70.932  1.00  0.00    -0.159 C  
HETATM    7  C   UNL     1     -11.682  12.449  70.306  1.00  0.00    -0.207 C  
HETATM    8  N   UNL     1     -13.023  10.833  70.391  1.00  0.00    -0.220 N  
HETATM    9  C   UNL     1     -13.664   8.954  71.927  1.00  0.00    -0.439 C  
HETATM   10  O   UNL     1     -13.760   7.751  72.108  1.00  0.00    -0.216 OA 
HETATM   11  O   UNL     1     -14.403   9.827  72.646  1.00  0.00    -0.082 OA 
HETATM   12  C   UNL     1     -12.890  11.980  71.120  1.00  0.00    -0.235 C  
ENDROOT
BRANCH   3  13
HETATM   13  S   UNL     1     -10.999   7.443  70.554  1.00  0.00    -0.256 SA 
BRANCH  13  14
HETATM   14  C   UNL     1     -10.374   7.361  72.277  1.00  0.00    -0.214 C  
HETATM   15  C   UNL     1      -8.915   7.768  72.450  1.00  0.00    -0.150 C  
HETATM   16  N   UNL     1      -8.177   6.596  72.011  1.00  0.00    -0.106 NA 
HETATM   17  C   UNL     1      -8.911   5.401  72.485  1.00  0.00    -0.133 C  
HETATM   18  C   UNL     1     -10.349   5.887  72.705  1.00  0.00    -0.222 C  
HETATM   19  H   UNL     1      -7.201   6.606  72.308  1.00  0.00     0.000 HD 
BRANCH  17  20
HETATM   20  C   UNL     1      -8.668   4.236  71.484  1.00  0.00    -0.112 C  
HETATM   21  O   UNL     1      -9.550   3.396  71.293  1.00  0.00    -0.144 OA 
HETATM   22  N   UNL     1      -7.477   4.296  70.773  1.00  0.00    -0.050 N  
HETATM   23  H   UNL     1      -6.873   5.095  70.960  1.00  0.00     0.000 HD 
BRANCH  22  24
HETATM   24  C   UNL     1      -7.013   3.360  69.815  1.00  0.00    -0.041 A  
HETATM   25  C   UNL     1      -6.048   2.382  70.084  1.00  0.00    -0.023 A  
HETATM   26  C   UNL     1      -5.640   1.477  69.098  1.00  0.00    -0.014 A  
HETATM   27  C   UNL     1      -6.182   1.542  67.819  1.00  0.00    -0.024 A  
HETATM   28  C   UNL     1      -7.123   2.533  67.522  1.00  0.00    -0.049 A  
HETATM   29  C   UNL     1      -7.727   2.648  66.172  1.00  0.00    -0.077 C  
HETATM   30  C   UNL     1      -7.551   3.423  68.524  1.00  0.00    -0.052 A  
HETATM   31  O   UNL     1      -6.894   2.308  65.166  1.00  0.00    -0.040 OA 
HETATM   32  O   UNL     1      -8.863   3.053  65.992  1.00  0.00    -0.129 OA 
ENDBRANCH  22  24
ENDBRANCH  17  20
ENDBRANCH  13  14
ENDBRANCH   3  13
BRANCH   7  33
HETATM   33  C   UNL     1     -11.763  13.766  69.560  1.00  0.00    -0.323 C  
HETATM   34  O   UNL     1     -12.911  14.450  70.061  1.00  0.00    -0.507 OA 
HETATM   35  H   UNL     1     -12.962  15.276  69.593  1.00  0.00     0.000 HD 
HETATM   36  C   UNL     1     -11.922  13.547  68.064  1.00  0.00    -0.372 C  
ENDBRANCH   7  33
TORSDOF 5
ENDMDL
MODEL      208
REMARK 921   NORMALIZED FREE ENERGY PREDICTED BY IDOCK:   -4.28 KCAL/MOL
REMARK 922        TOTAL FREE ENERGY PREDICTED BY IDOCK:   -7.22 KCAL/MOL
REMARK 923 INTER-LIGAND FREE ENERGY PREDICTED BY IDOCK:   -6.03 KCAL/MOL
REMARK 924 INTRA-LIGAND FREE ENERGY PREDICTED BY IDOCK:   -1.19 KCAL/MOL
REMARK 927      BINDING AFFINITY PREDICTED BY RF-SCORE:    0.00 PKD
ROOT
HETATM    1  C   UNL     1      -8.634   5.468  66.691  1.00  0.00    -0.116 C  
HETATM    2  C   UNL     1      -8.328   6.129  68.038  1.00  0.00    -0.117 C  
HETATM    3  C   UNL     1      -8.580   7.596  67.749  1.00  0.00    -0.121 C  
HETATM    4  C   UNL     1      -6.931   5.764  68.522  1.00  0.00    -0.068 C  
HETATM    5  O   UNL     1      -8.095   6.829  63.733  1.00  0.00    -0.092 OA 
HETATM    6  C   UNL     1      -9.007   7.768  66.482  1.00  0.00    -0.161 C  
HETATM    7  C   UNL     1      -7.572   5.147  65.592  1.00  0.00    -0.086 C  
HETATM    8  N   UNL     1      -9.113   6.561  65.800  1.00  0.00    -0.050 N  
HETATM    9  C   UNL     1      -9.436   9.050  65.842  1.00  0.00    -0.249 C  
HETATM   10  O   UNL     1      -9.802  10.037  66.459  1.00  0.00    -0.188 OA 
HETATM   11  O   UNL     1      -9.382   9.055  64.491  1.00  0.00     0.053 OA 
HETATM   12  C   UNL     1      -8.269   6.238  64.775  1.00  0.00    -0.100 C  
ENDROOT
BRANCH   3  13
HETATM   13  S   UNL     1      -8.489   8.726  69.046  1.00  0.00    -0.132 SA 
BRANCH  13  14
HETATM   14  C   UNL     1      -6.818   9.470  68.912  1.00  0.00    -0.055 C  
HETATM   15  C   UNL     1      -6.416  10.362  70.081  1.00  0.00    -0.137 C  
HETATM   16  N   UNL     1      -7.112  11.609  69.817  1.00  0.00    -0.344 NA 
HETATM   17  C   UNL     1      -7.063  11.849  68.357  1.00  0.00    -0.086 C  
HETATM   18  C   UNL     1      -6.831  10.463  67.741  1.00  0.00    -0.074 C  
HETATM   19  H   UNL     1      -6.746  12.392  70.360  1.00  0.00     0.000 HD 
BRANCH  17  20
HETATM   20  C   UNL     1      -8.334  12.641  67.938  1.00  0.00    -0.172 C  
HETATM   21  O   UNL     1      -9.304  12.693  68.697  1.00  0.00    -0.115 OA 
HETATM   22  N   UNL     1      -8.234  13.347  66.747  1.00  0.00    -0.406 N  
HETATM   23  H   UNL     1      -7.341  13.294  66.258  1.00  0.00     0.000 HD 
BRANCH  22  24
HETATM   24  C   UNL     1      -9.245  14.134  66.139  1.00  0.00    -0.055 A  
HETATM   25  C   UNL     1     -10.138  13.649  65.178  1.00  0.00    -0.298 A  
HETATM   26  C   UNL     1     -11.123  14.473  64.624  1.00  0.00    -0.356 A  
HETATM   27  C   UNL     1     -11.225  15.804  65.013  1.00  0.00    -0.314 A  
HETATM   28  C   UNL     1     -10.320  16.316  65.949  1.00  0.00    -0.381 A  
HETATM   29  C   UNL     1     -10.382  17.729  66.395  1.00  0.00    -0.351 C  
HETATM   30  C   UNL     1      -9.349  15.476  66.524  1.00  0.00    -0.311 A  
HETATM   31  O   UNL     1     -10.788  18.590  65.437  1.00  0.00    -0.570 OA 
HETATM   32  O   UNL     1     -10.056  18.081  67.515  1.00  0.00    -0.320 OA 
ENDBRANCH  22  24
ENDBRANCH  17  20
ENDBRANCH  13  14
ENDBRANCH   3  13
BRANCH   7  33
HETATM   33  C   UNL     1      -7.600   3.718  65.086  1.00  0.00    -0.081 C  
HETATM   34  O   UNL     1      -8.889   3.513  64.509  1.00  0.00    -0.109 OA 
HETATM   35  H   UNL     1      -8.907   2.617  64.192  1.00  0.00     0.000 HD 
HETATM   36  C   UNL     1      -7.394   2.726  66.220  1.00  0.00    -0.067 C  
ENDBRANCH   7  33
TORSDOF 5
ENDMDL
MODEL      209
REMARK 921   NORMALIZED FREE ENERGY PREDICTED BY IDOCK:   -4.27 KCAL/MOL
REMARK 922        TOTAL FREE ENERGY PREDICTED BY IDOCK:   -7.20 KCAL/MOL
REMARK 923 INTER-LIGAND FREE ENERGY PREDICTED BY IDOCK:   -6.66 KCAL/MOL
REMARK 924 INTRA-LIGAND FREE ENERGY PREDICTED BY IDOCK:   -0.54 KCAL/MOL
REMARK 927      BINDING AFFINITY PREDICTED BY RF-SCORE:    0.00 PKD
ROOT
HETATM    1  C   UNL     1     -10.277  14.100  67.284  1.00  0.00    -0.256 C  
HETATM    2  C   UNL     1     -10.249  12.570  67.331  1.00  0.00    -0.217 C  
HETATM    3  C   UNL     1      -8.875  12.284  67.903  1.00  0.00    -0.178 C  
HETATM    4  C   UNL     1     -10.550  11.975  65.962  1.00  0.00    -0.303 C  
HETATM    5  O   UNL     1      -7.664  16.038  66.725  1.00  0.00    -0.230 OA 
HETATM    6  C   UNL     1      -8.228  13.431  68.192  1.00  0.00    -0.160 C  
HETATM    7  C   UNL     1      -9.886  14.963  66.042  1.00  0.00    -0.345 C  
HETATM    8  N   UNL     1      -8.999  14.551  67.903  1.00  0.00    -0.181 N  
HETATM    9  C   UNL     1      -6.888  13.571  68.842  1.00  0.00    -0.111 C  
HETATM   10  O   UNL     1      -6.361  12.704  69.522  1.00  0.00    -0.117 OA 
HETATM   11  O   UNL     1      -6.269  14.751  68.617  1.00  0.00    -0.081 OA 
HETATM   12  C   UNL     1      -8.681  15.398  66.879  1.00  0.00    -0.254 C  
ENDROOT
BRANCH   3  13
HETATM   13  S   UNL     1      -8.449  10.654  68.268  1.00  0.00    -0.133 SA 
BRANCH  13  14
HETATM   14  C   UNL     1      -9.497  10.199  69.703  1.00  0.00    -0.200 C  
HETATM   15  C   UNL     1      -8.847   9.242  70.695  1.00  0.00    -0.237 C  
HETATM   16  N   UNL     1      -8.971   7.945  70.053  1.00  0.00    -0.145 NA 
HETATM   17  C   UNL     1     -10.294   7.899  69.390  1.00  0.00    -0.220 C  
HETATM   18  C   UNL     1     -10.680   9.370  69.184  1.00  0.00    -0.216 C  
HETATM   19  H   UNL     1      -8.823   7.167  70.697  1.00  0.00     0.000 HD 
BRANCH  17  20
HETATM   20  C   UNL     1     -10.195   6.978  68.141  1.00  0.00    -0.181 C  
HETATM   21  O   UNL     1     -11.130   6.229  67.853  1.00  0.00    -0.332 OA 
HETATM   22  N   UNL     1      -9.066   7.158  67.353  1.00  0.00    -0.120 N  
HETATM   23  H   UNL     1      -8.409   7.877  67.653  1.00  0.00     0.000 HD 
BRANCH  22  24
HETATM   24  C   UNL     1      -8.730   6.444  66.175  1.00  0.00    -0.146 A  
HETATM   25  C   UNL     1      -8.140   7.030  65.050  1.00  0.00    -0.119 A  
HETATM   26  C   UNL     1      -7.820   6.269  63.921  1.00  0.00    -0.112 A  
HETATM   27  C   UNL     1      -8.097   4.907  63.892  1.00  0.00    -0.112 A  
HETATM   28  C   UNL     1      -8.717   4.309  64.994  1.00  0.00    -0.128 A  
HETATM   29  C   UNL     1      -9.038   2.861  65.012  1.00  0.00    -0.147 C  
HETATM   30  C   UNL     1      -9.011   5.073  66.138  1.00  0.00    -0.131 A  
HETATM   31  O   UNL     1      -9.372   2.357  63.804  1.00  0.00    -0.100 OA 
HETATM   32  O   UNL     1      -9.038   2.199  66.035  1.00  0.00    -0.120 OA 
ENDBRANCH  22  24
ENDBRANCH  17  20
ENDBRANCH  13  14
ENDBRANCH   3  13
BRANCH   7  33
HETATM   33  C   UNL     1     -10.918  16.000  65.645  1.00  0.00    -0.171 C  
HETATM   34  O   UNL     1     -11.085  15.891  64.231  1.00  0.00    -0.876 OA 
HETATM   35  H   UNL     1     -11.732  16.541  63.982  1.00  0.00     0.000 HD 
HETATM   36  C   UNL     1     -10.452  17.406  65.988  1.00  0.00    -0.278 C  
ENDBRANCH   7  33
TORSDOF 5
ENDMDL
MODEL      210
REMARK 921   NORMALIZED FREE ENERGY PREDICTED BY IDOCK:   -4.26 KCAL/MOL
REMARK 922        TOTAL FREE ENERGY PREDICTED BY IDOCK:   -7.19 KCAL/MOL
REMARK 923 INTER-LIGAND FREE ENERGY PREDICTED BY IDOCK:   -6.13 KCAL/MOL
REMARK 924 INTRA-LIGAND FREE ENERGY PREDICTED BY IDOCK:   -1.06 KCAL/MOL
REMARK 927      BINDING AFFINITY PREDICTED BY RF-SCORE:    0.00 PKD
ROOT
HETATM    1  C   UNL     1     -10.492  10.944  64.614  1.00  0.00    -0.314 C  
HETATM    2  C   UNL     1      -9.207  10.115  64.532  1.00  0.00    -0.305 C  
HETATM    3  C   UNL     1      -8.684  10.178  65.953  1.00  0.00    -0.146 C  
HETATM    4  C   UNL     1      -8.282  10.646  63.446  1.00  0.00    -0.038 C  
HETATM    5  O   UNL     1     -10.952  13.557  66.579  1.00  0.00    -0.288 OA 
HETATM    6  C   UNL     1      -9.528  10.871  66.744  1.00  0.00    -0.177 C  
HETATM    7  C   UNL     1     -10.593  12.469  64.288  1.00  0.00    -0.395 C  
HETATM    8  N   UNL     1     -10.644  11.320  66.048  1.00  0.00    -0.264 N  
HETATM    9  C   UNL     1      -9.408  11.087  68.220  1.00  0.00    -0.172 C  
HETATM   10  O   UNL     1      -8.748  10.382  68.966  1.00  0.00    -0.149 OA 
HETATM   11  O   UNL     1     -10.090  12.154  68.693  1.00  0.00    -0.212 OA 
HETATM   12  C   UNL     1     -10.844  12.646  65.788  1.00  0.00    -0.274 C  
ENDROOT
BRANCH   3  13
HETATM   13  S   UNL     1      -7.294   9.249  66.370  1.00  0.00    -0.093 SA 
BRANCH  13  14
HETATM   14  C   UNL     1      -7.414   7.730  65.349  1.00  0.00    -0.081 C  
HETATM   15  C   UNL     1      -8.779   7.052  65.366  1.00  0.00     0.029 C  
HETATM   16  N   UNL     1      -8.791   6.335  66.629  1.00  0.00    -0.127 NA 
HETATM   17  C   UNL     1      -7.434   5.784  66.843  1.00  0.00    -0.084 C  
HETATM   18  C   UNL     1      -6.515   6.658  65.982  1.00  0.00    -0.043 C  
HETATM   19  H   UNL     1      -9.520   5.623  66.676  1.00  0.00     0.000 HD 
BRANCH  17  20
HETATM   20  C   UNL     1      -7.161   5.707  68.373  1.00  0.00    -0.075 C  
HETATM   21  O   UNL     1      -6.004   5.624  68.788  1.00  0.00    -0.021 OA 
HETATM   22  N   UNL     1      -8.276   5.855  69.188  1.00  0.00    -0.105 N  
HETATM   23  H   UNL     1      -9.168   6.009  68.718  1.00  0.00     0.000 HD 
BRANCH  22  24
HETATM   24  C   UNL     1      -8.303   5.814  70.605  1.00  0.00    -0.120 A  
HETATM   25  C   UNL     1      -8.695   4.693  71.344  1.00  0.00    -0.138 A  
HETATM   26  C   UNL     1      -8.688   4.710  72.743  1.00  0.00    -0.114 A  
HETATM   27  C   UNL     1      -8.300   5.855  73.429  1.00  0.00    -0.115 A  
HETATM   28  C   UNL     1      -7.936   6.997  72.706  1.00  0.00    -0.110 A  
HETATM   29  C   UNL     1      -7.519   8.245  73.389  1.00  0.00    -0.119 C  
HETATM   30  C   UNL     1      -7.918   6.966  71.300  1.00  0.00    -0.108 A  
HETATM   31  O   UNL     1      -8.150   8.468  74.562  1.00  0.00    -0.270 OA 
HETATM   32  O   UNL     1      -6.708   9.019  72.910  1.00  0.00    -0.324 OA 
ENDBRANCH  22  24
ENDBRANCH  17  20
ENDBRANCH  13  14
ENDBRANCH   3  13
BRANCH   7  33
HETATM   33  C   UNL     1     -11.693  12.832  63.310  1.00  0.00    -0.375 C  
HETATM   34  O   UNL     1     -12.323  14.008  63.820  1.00  0.00    -0.827 OA 
HETATM   35  H   UNL     1     -13.012  14.235  63.207  1.00  0.00     0.000 HD 
HETATM   36  C   UNL     1     -12.723  11.719  63.196  1.00  0.00    -0.179 C  
ENDBRANCH   7  33
TORSDOF 5
ENDMDL
MODEL      211
REMARK 921   NORMALIZED FREE ENERGY PREDICTED BY IDOCK:   -4.25 KCAL/MOL
REMARK 922        TOTAL FREE ENERGY PREDICTED BY IDOCK:   -7.17 KCAL/MOL
REMARK 923 INTER-LIGAND FREE ENERGY PREDICTED BY IDOCK:   -6.32 KCAL/MOL
REMARK 924 INTRA-LIGAND FREE ENERGY PREDICTED BY IDOCK:   -0.85 KCAL/MOL
REMARK 927      BINDING AFFINITY PREDICTED BY RF-SCORE:    0.00 PKD
ROOT
HETATM    1  C   UNL     1      -8.255   6.803  67.275  1.00  0.00    -0.121 C  
HETATM    2  C   UNL     1      -7.678   8.209  67.092  1.00  0.00    -0.097 C  
HETATM    3  C   UNL     1      -8.434   9.013  68.131  1.00  0.00    -0.129 C  
HETATM    4  C   UNL     1      -7.812   8.671  65.647  1.00  0.00    -0.101 C  
HETATM    5  O   UNL     1     -11.362   6.120  68.158  1.00  0.00    -0.234 OA 
HETATM    6  C   UNL     1      -9.267   8.222  68.836  1.00  0.00    -0.147 C  
HETATM    7  C   UNL     1      -9.449   6.215  66.458  1.00  0.00    -0.178 C  
HETATM    8  N   UNL     1      -9.193   6.895  68.430  1.00  0.00    -0.126 N  
HETATM    9  C   UNL     1     -10.122   8.622  69.996  1.00  0.00    -0.189 C  
HETATM   10  O   UNL     1      -9.922   9.606  70.690  1.00  0.00    -0.273 OA 
HETATM   11  O   UNL     1     -11.173   7.805  70.234  1.00  0.00    -0.263 OA 
HETATM   12  C   UNL     1     -10.225   6.284  67.776  1.00  0.00    -0.170 C  
ENDROOT
BRANCH   3  13
HETATM   13  S   UNL     1      -8.001  10.662  68.382  1.00  0.00    -0.127 SA 
BRANCH  13  14
HETATM   14  C   UNL     1      -6.304  10.608  69.076  1.00  0.00    -0.046 C  
HETATM   15  C   UNL     1      -6.176  11.132  70.502  1.00  0.00    -0.021 C  
HETATM   16  N   UNL     1      -6.181  12.575  70.339  1.00  0.00    -0.451 NA 
HETATM   17  C   UNL     1      -5.403  12.891  69.120  1.00  0.00    -0.069 C  
HETATM   18  C   UNL     1      -5.435  11.601  68.290  1.00  0.00    -0.042 C  
HETATM   19  H   UNL     1      -5.841  13.069  71.165  1.00  0.00     0.000 HD 
BRANCH  17  20
HETATM   20  C   UNL     1      -5.974  14.192  68.487  1.00  0.00    -0.092 C  
HETATM   21  O   UNL     1      -6.424  14.172  67.340  1.00  0.00    -0.306 OA 
HETATM   22  N   UNL     1      -6.036  15.291  69.333  1.00  0.00    -0.111 N  
HETATM   23  H   UNL     1      -5.715  15.150  70.290  1.00  0.00     0.000 HD 
BRANCH  22  24
HETATM   24  C   UNL     1      -6.500  16.590  69.004  1.00  0.00    -0.182 A  
HETATM   25  C   UNL     1      -5.681  17.724  68.966  1.00  0.00    -0.188 A  
HETATM   26  C   UNL     1      -6.197  18.978  68.621  1.00  0.00    -0.246 A  
HETATM   27  C   UNL     1      -7.546  19.123  68.319  1.00  0.00    -0.339 A  
HETATM   28  C   UNL     1      -8.387  18.006  68.383  1.00  0.00    -0.305 A  
HETATM   29  C   UNL     1      -9.835  18.108  68.076  1.00  0.00    -0.325 C  
HETATM   30  C   UNL     1      -7.859  16.743  68.704  1.00  0.00    -0.241 A  
HETATM   31  O   UNL     1     -10.391  19.286  68.433  1.00  0.00    -0.399 OA 
HETATM   32  O   UNL     1     -10.469  17.192  67.582  1.00  0.00    -0.335 OA 
ENDBRANCH  22  24
ENDBRANCH  17  20
ENDBRANCH  13  14
ENDBRANCH   3  13
BRANCH   7  33
HETATM   33  C   UNL     1      -9.179   4.860  65.834  1.00  0.00    -0.155 C  
HETATM   34  O   UNL     1      -8.195   5.064  64.820  1.00  0.00    -0.116 OA 
HETATM   35  H   UNL     1      -8.026   4.215  64.429  1.00  0.00     0.000 HD 
HETATM   36  C   UNL     1     -10.436   4.279  65.205  1.00  0.00    -0.196 C  
ENDBRANCH   7  33
TORSDOF 5
ENDMDL
MODEL      212
REMARK 921   NORMALIZED FREE ENERGY PREDICTED BY IDOCK:   -4.23 KCAL/MOL
REMARK 922        TOTAL FREE ENERGY PREDICTED BY IDOCK:   -7.15 KCAL/MOL
REMARK 923 INTER-LIGAND FREE ENERGY PREDICTED BY IDOCK:   -6.27 KCAL/MOL
REMARK 924 INTRA-LIGAND FREE ENERGY PREDICTED BY IDOCK:   -0.88 KCAL/MOL
REMARK 927      BINDING AFFINITY PREDICTED BY RF-SCORE:    0.00 PKD
ROOT
HETATM    1  C   UNL     1      -8.257   7.984  66.561  1.00  0.00    -0.115 C  
HETATM    2  C   UNL     1      -7.765   8.728  67.805  1.00  0.00    -0.102 C  
HETATM    3  C   UNL     1      -8.201  10.154  67.529  1.00  0.00    -0.114 C  
HETATM    4  C   UNL     1      -6.275   8.505  68.021  1.00  0.00    -0.052 C  
HETATM    5  O   UNL     1      -8.413   9.253  63.517  1.00  0.00    -0.180 OA 
HETATM    6  C   UNL     1      -8.874  10.232  66.363  1.00  0.00    -0.145 C  
HETATM    7  C   UNL     1      -7.397   7.706  65.287  1.00  0.00    -0.071 C  
HETATM    8  N   UNL     1      -8.995   8.992  65.748  1.00  0.00    -0.184 N  
HETATM    9  C   UNL     1      -9.532  11.443  65.782  1.00  0.00    -0.233 C  
HETATM   10  O   UNL     1      -9.865  12.422  66.431  1.00  0.00    -0.229 OA 
HETATM   11  O   UNL     1      -9.734  11.392  64.447  1.00  0.00    -0.237 OA 
HETATM   12  C   UNL     1      -8.333   8.696  64.590  1.00  0.00    -0.155 C  
ENDROOT
BRANCH   3  13
HETATM   13  S   UNL     1      -7.972  11.345  68.753  1.00  0.00    -0.086 SA 
BRANCH  13  14
HETATM   14  C   UNL     1      -6.153  11.476  68.954  1.00  0.00    -0.052 C  
HETATM   15  C   UNL     1      -5.697  12.299  70.154  1.00  0.00    -0.153 C  
HETATM   16  N   UNL     1      -5.857  13.672  69.709  1.00  0.00    -0.107 NA 
HETATM   17  C   UNL     1      -5.454  13.732  68.286  1.00  0.00    -0.109 C  
HETATM   18  C   UNL     1      -5.601  12.292  67.776  1.00  0.00    -0.092 C  
HETATM   19  H   UNL     1      -5.353  14.340  70.293  1.00  0.00     0.000 HD 
BRANCH  17  20
HETATM   20  C   UNL     1      -6.269  14.853  67.582  1.00  0.00    -0.100 C  
HETATM   21  O   UNL     1      -5.689  15.699  66.899  1.00  0.00    -0.212 OA 
HETATM   22  N   UNL     1      -7.650  14.747  67.689  1.00  0.00    -0.158 N  
HETATM   23  H   UNL     1      -8.007  13.945  68.207  1.00  0.00     0.000 HD 
BRANCH  22  24
HETATM   24  C   UNL     1      -8.614  15.637  67.153  1.00  0.00    -0.210 A  
HETATM   25  C   UNL     1      -9.415  15.343  66.045  1.00  0.00    -0.381 A  
HETATM   26  C   UNL     1     -10.360  16.260  65.571  1.00  0.00    -0.363 A  
HETATM   27  C   UNL     1     -10.511  17.495  66.191  1.00  0.00    -0.288 A  
HETATM   28  C   UNL     1      -9.696  17.820  67.280  1.00  0.00    -0.285 A  
HETATM   29  C   UNL     1      -9.813  19.126  67.973  1.00  0.00    -0.356 C  
HETATM   30  C   UNL     1      -8.767  16.884  67.770  1.00  0.00    -0.212 A  
HETATM   31  O   UNL     1     -10.147  20.152  67.161  1.00  0.00    -0.422 OA 
HETATM   32  O   UNL     1      -9.589  19.262  69.163  1.00  0.00    -0.374 OA 
ENDBRANCH  22  24
ENDBRANCH  17  20
ENDBRANCH  13  14
ENDBRANCH   3  13
BRANCH   7  33
HETATM   33  C   UNL     1      -7.388   6.259  64.836  1.00  0.00    -0.075 C  
HETATM   34  O   UNL     1      -8.595   6.051  64.102  1.00  0.00    -0.336 OA 
HETATM   35  H   UNL     1      -8.589   5.143  63.820  1.00  0.00     0.000 HD 
HETATM   36  C   UNL     1      -7.351   5.309  66.023  1.00  0.00    -0.081 C  
ENDBRANCH   7  33
TORSDOF 5
ENDMDL
MODEL      213
REMARK 921   NORMALIZED FREE ENERGY PREDICTED BY IDOCK:   -4.21 KCAL/MOL
REMARK 922        TOTAL FREE ENERGY PREDICTED BY IDOCK:   -7.13 KCAL/MOL
REMARK 923 INTER-LIGAND FREE ENERGY PREDICTED BY IDOCK:   -5.80 KCAL/MOL
REMARK 924 INTRA-LIGAND FREE ENERGY PREDICTED BY IDOCK:   -1.33 KCAL/MOL
REMARK 927      BINDING AFFINITY PREDICTED BY RF-SCORE:    0.00 PKD
ROOT
HETATM    1  C   UNL     1     -11.383  12.610  65.649  1.00  0.00    -0.322 C  
HETATM    2  C   UNL     1     -10.765  11.478  66.474  1.00  0.00    -0.318 C  
HETATM    3  C   UNL     1      -9.819  12.220  67.396  1.00  0.00    -0.198 C  
HETATM    4  C   UNL     1     -10.143  10.421  65.571  1.00  0.00    -0.352 C  
HETATM    5  O   UNL     1      -9.833  15.389  64.767  1.00  0.00    -0.153 OA 
HETATM    6  C   UNL     1      -9.898  13.551  67.194  1.00  0.00    -0.245 C  
HETATM    7  C   UNL     1     -10.855  13.095  64.262  1.00  0.00    -0.430 C  
HETATM    8  N   UNL     1     -10.829  13.874  66.214  1.00  0.00    -0.289 N  
HETATM    9  C   UNL     1      -9.185  14.622  67.956  1.00  0.00    -0.197 C  
HETATM   10  O   UNL     1      -8.726  14.477  69.078  1.00  0.00    -0.138 OA 
HETATM   11  O   UNL     1      -9.066  15.799  67.303  1.00  0.00    -0.199 OA 
HETATM   12  C   UNL     1     -10.452  14.374  65.000  1.00  0.00    -0.430 C  
ENDROOT
BRANCH   3  13
HETATM   13  S   UNL     1      -8.990  11.338  68.623  1.00  0.00    -0.110 SA 
BRANCH  13  14
HETATM   14  C   UNL     1      -7.209  11.554  68.243  1.00  0.00    -0.084 C  
HETATM   15  C   UNL     1      -6.870  11.600  66.757  1.00  0.00    -0.086 C  
HETATM   16  N   UNL     1      -6.898  10.205  66.355  1.00  0.00    -0.095 NA 
HETATM   17  C   UNL     1      -6.310   9.410  67.457  1.00  0.00    -0.062 C  
HETATM   18  C   UNL     1      -6.466  10.291  68.702  1.00  0.00    -0.052 C  
HETATM   19  H   UNL     1      -6.439  10.040  65.458  1.00  0.00     0.000 HD 
BRANCH  17  20
HETATM   20  C   UNL     1      -6.968   8.000  67.461  1.00  0.00    -0.075 C  
HETATM   21  O   UNL     1      -7.184   7.426  68.530  1.00  0.00    -0.081 OA 
HETATM   22  N   UNL     1      -7.377   7.527  66.221  1.00  0.00    -0.081 N  
HETATM   23  H   UNL     1      -7.221   8.142  65.423  1.00  0.00     0.000 HD 
BRANCH  22  24
HETATM   24  C   UNL     1      -7.988   6.277  65.950  1.00  0.00    -0.116 A  
HETATM   25  C   UNL     1      -9.309   6.134  65.509  1.00  0.00     0.210 A  
HETATM   26  C   UNL     1      -9.851   4.872  65.245  1.00  0.00    -0.017 A  
HETATM   27  C   UNL     1      -9.085   3.727  65.429  1.00  0.00    -0.145 A  
HETATM   28  C   UNL     1      -7.773   3.847  65.900  1.00  0.00    -0.089 A  
HETATM   29  C   UNL     1      -6.916   2.657  66.118  1.00  0.00    -0.052 C  
HETATM   30  C   UNL     1      -7.223   5.120  66.138  1.00  0.00    -0.073 A  
HETATM   31  O   UNL     1      -7.590   1.561  66.528  1.00  0.00    -0.059 OA 
HETATM   32  O   UNL     1      -5.706   2.682  65.976  1.00  0.00    -0.017 OA 
ENDBRANCH  22  24
ENDBRANCH  17  20
ENDBRANCH  13  14
ENDBRANCH   3  13
BRANCH   7  33
HETATM   33  C   UNL     1     -11.911  13.173  63.178  1.00  0.00    -0.176 C  
HETATM   34  O   UNL     1     -12.505  14.468  63.275  1.00  0.00    -1.010 OA 
HETATM   35  H   UNL     1     -13.167  14.516  62.596  1.00  0.00     0.000 HD 
HETATM   36  C   UNL     1     -12.984  12.113  63.372  1.00  0.00    -0.258 C  
ENDBRANCH   7  33
TORSDOF 5
ENDMDL
MODEL      214
REMARK 921   NORMALIZED FREE ENERGY PREDICTED BY IDOCK:   -4.14 KCAL/MOL
REMARK 922        TOTAL FREE ENERGY PREDICTED BY IDOCK:   -7.03 KCAL/MOL
REMARK 923 INTER-LIGAND FREE ENERGY PREDICTED BY IDOCK:   -6.24 KCAL/MOL
REMARK 924 INTRA-LIGAND FREE ENERGY PREDICTED BY IDOCK:   -0.79 KCAL/MOL
REMARK 927      BINDING AFFINITY PREDICTED BY RF-SCORE:    0.00 PKD
ROOT
HETATM    1  C   UNL     1     -11.621  12.520  67.602  1.00  0.00    -0.355 C  
HETATM    2  C   UNL     1     -10.921  12.357  66.250  1.00  0.00    -0.323 C  
HETATM    3  C   UNL     1     -10.520  10.895  66.261  1.00  0.00    -0.245 C  
HETATM    4  C   UNL     1      -9.793  13.368  66.092  1.00  0.00    -0.289 C  
HETATM    5  O   UNL     1     -10.826  10.902  70.367  1.00  0.00    -0.060 OA 
HETATM    6  C   UNL     1     -10.948  10.290  67.387  1.00  0.00    -0.252 C  
HETATM    7  C   UNL     1     -10.927  13.008  68.914  1.00  0.00    -0.271 C  
HETATM    8  N   UNL     1     -11.648  11.161  68.213  1.00  0.00    -0.297 N  
HETATM    9  C   UNL     1     -10.821   8.840  67.735  1.00  0.00    -0.016 C  
HETATM   10  O   UNL     1     -10.647   7.950  66.918  1.00  0.00    -0.341 OA 
HETATM   11  O   UNL     1     -10.904   8.565  69.056  1.00  0.00    -0.140 OA 
HETATM   12  C   UNL     1     -11.142  11.577  69.413  1.00  0.00    -0.226 C  
ENDROOT
BRANCH   3  13
HETATM   13  S   UNL     1      -9.807  10.217  64.846  1.00  0.00    -0.323 SA 
BRANCH  13  14
HETATM   14  C   UNL     1      -8.045  10.723  64.913  1.00  0.00     0.066 C  
HETATM   15  C   UNL     1      -7.092   9.836  64.120  1.00  0.00    -0.126 C  
HETATM   16  N   UNL     1      -6.906   8.679  64.978  1.00  0.00    -0.071 NA 
HETATM   17  C   UNL     1      -6.839   9.164  66.375  1.00  0.00    -0.079 C  
HETATM   18  C   UNL     1      -7.546  10.525  66.351  1.00  0.00    -0.132 C  
HETATM   19  H   UNL     1      -6.097   8.115  64.714  1.00  0.00     0.000 HD 
BRANCH  17  20
HETATM   20  C   UNL     1      -7.395   8.057  67.315  1.00  0.00    -0.089 C  
HETATM   21  O   UNL     1      -7.530   8.284  68.519  1.00  0.00    -0.091 OA 
HETATM   22  N   UNL     1      -7.817   6.894  66.686  1.00  0.00    -0.105 N  
HETATM   23  H   UNL     1      -7.736   6.868  65.670  1.00  0.00     0.000 HD 
BRANCH  22  24
HETATM   24  C   UNL     1      -8.349   5.737  67.309  1.00  0.00    -0.104 A  
HETATM   25  C   UNL     1      -8.778   4.603  66.611  1.00  0.00    -0.111 A  
HETATM   26  C   UNL     1      -9.282   3.485  67.285  1.00  0.00    -0.221 A  
HETATM   27  C   UNL     1      -9.379   3.487  68.672  1.00  0.00    -0.230 A  
HETATM   28  C   UNL     1      -8.986   4.624  69.385  1.00  0.00    -0.140 A  
HETATM   29  C   UNL     1      -9.074   4.680  70.865  1.00  0.00    -0.131 C  
HETATM   30  C   UNL     1      -8.453   5.735  68.705  1.00  0.00    -0.107 A  
HETATM   31  O   UNL     1     -10.116   3.993  71.380  1.00  0.00    -0.165 OA 
HETATM   32  O   UNL     1      -8.295   5.322  71.547  1.00  0.00    -0.117 OA 
ENDBRANCH  22  24
ENDBRANCH  17  20
ENDBRANCH  13  14
ENDBRANCH   3  13
BRANCH   7  33
HETATM   33  C   UNL     1     -11.639  14.147  69.617  1.00  0.00    -0.292 C  
HETATM   34  O   UNL     1     -10.624  15.012  70.126  1.00  0.00    -0.427 OA 
HETATM   35  H   UNL     1     -11.070  15.726  70.567  1.00  0.00     0.000 HD 
HETATM   36  C   UNL     1     -12.492  13.640  70.769  1.00  0.00    -0.432 C  
ENDBRANCH   7  33
TORSDOF 5
ENDMDL
MODEL      215
REMARK 921   NORMALIZED FREE ENERGY PREDICTED BY IDOCK:   -4.12 KCAL/MOL
REMARK 922        TOTAL FREE ENERGY PREDICTED BY IDOCK:   -7.01 KCAL/MOL
REMARK 923 INTER-LIGAND FREE ENERGY PREDICTED BY IDOCK:   -6.77 KCAL/MOL
REMARK 924 INTRA-LIGAND FREE ENERGY PREDICTED BY IDOCK:   -0.24 KCAL/MOL
REMARK 927      BINDING AFFINITY PREDICTED BY RF-SCORE:    0.00 PKD
ROOT
HETATM    1  C   UNL     1      -8.288  15.612  67.954  1.00  0.00    -0.146 C  
HETATM    2  C   UNL     1      -9.510  14.975  67.289  1.00  0.00    -0.212 C  
HETATM    3  C   UNL     1      -9.069  13.537  67.096  1.00  0.00    -0.232 C  
HETATM    4  C   UNL     1      -9.907  15.736  66.031  1.00  0.00    -0.366 C  
HETATM    5  O   UNL     1      -5.149  14.762  67.384  1.00  0.00    -0.330 OA 
HETATM    6  C   UNL     1      -7.834  13.344  67.601  1.00  0.00    -0.173 C  
HETATM    7  C   UNL     1      -7.144  16.356  67.195  1.00  0.00    -0.235 C  
HETATM    8  N   UNL     1      -7.316  14.502  68.169  1.00  0.00    -0.115 N  
HETATM    9  C   UNL     1      -7.084  12.052  67.677  1.00  0.00    -0.118 C  
HETATM   10  O   UNL     1      -7.608  10.950  67.631  1.00  0.00    -0.094 OA 
HETATM   11  O   UNL     1      -5.744  12.181  67.793  1.00  0.00    -0.064 OA 
HETATM   12  C   UNL     1      -6.267  15.171  67.606  1.00  0.00    -0.120 C  
ENDROOT
BRANCH   3  13
HETATM   13  S   UNL     1     -10.206  12.393  66.490  1.00  0.00    -0.231 SA 
BRANCH  13  14
HETATM   14  C   UNL     1     -11.705  12.619  67.522  1.00  0.00    -0.368 C  
HETATM   15  C   UNL     1     -11.476  13.368  68.831  1.00  0.00    -0.304 C  
HETATM   16  N   UNL     1     -10.894  12.364  69.704  1.00  0.00    -0.419 NA 
HETATM   17  C   UNL     1     -11.580  11.081  69.430  1.00  0.00    -0.312 C  
HETATM   18  C   UNL     1     -12.156  11.238  68.017  1.00  0.00     0.053 C  
HETATM   19  H   UNL     1     -10.924  12.628  70.689  1.00  0.00     0.000 HD 
BRANCH  17  20
HETATM   20  C   UNL     1     -10.586   9.915  69.699  1.00  0.00    -0.250 C  
HETATM   21  O   UNL     1      -9.444  10.160  70.094  1.00  0.00    -0.147 OA 
HETATM   22  N   UNL     1     -11.114   8.637  69.575  1.00  0.00    -0.438 N  
HETATM   23  H   UNL     1     -12.101   8.572  69.330  1.00  0.00     0.000 HD 
BRANCH  22  24
HETATM   24  C   UNL     1     -10.422   7.412  69.753  1.00  0.00    -0.229 A  
HETATM   25  C   UNL     1     -11.036   6.224  70.165  1.00  0.00    -0.411 A  
HETATM   26  C   UNL     1     -10.301   5.043  70.309  1.00  0.00    -0.299 A  
HETATM   27  C   UNL     1      -8.934   5.031  70.056  1.00  0.00    -0.146 A  
HETATM   28  C   UNL     1      -8.297   6.217  69.675  1.00  0.00    -0.125 A  
HETATM   29  C   UNL     1      -6.841   6.260  69.398  1.00  0.00    -0.065 C  
HETATM   30  C   UNL     1      -9.045   7.396  69.504  1.00  0.00    -0.143 A  
HETATM   31  O   UNL     1      -6.110   5.419  70.162  1.00  0.00    -0.020 OA 
HETATM   32  O   UNL     1      -6.348   7.017  68.580  1.00  0.00    -0.033 OA 
ENDBRANCH  22  24
ENDBRANCH  17  20
ENDBRANCH  13  14
ENDBRANCH   3  13
BRANCH   7  33
HETATM   33  C   UNL     1      -6.820  17.734  67.737  1.00  0.00    -0.182 C  
HETATM   34  O   UNL     1      -6.965  17.661  69.155  1.00  0.00    -0.257 OA 
HETATM   35  H   UNL     1      -6.762  18.525  69.495  1.00  0.00     0.000 HD 
HETATM   36  C   UNL     1      -7.775  18.784  67.189  1.00  0.00    -0.241 C  
ENDBRANCH   7  33
TORSDOF 5
ENDMDL
MODEL      216
REMARK 921   NORMALIZED FREE ENERGY PREDICTED BY IDOCK:   -4.10 KCAL/MOL
REMARK 922        TOTAL FREE ENERGY PREDICTED BY IDOCK:   -6.98 KCAL/MOL
REMARK 923 INTER-LIGAND FREE ENERGY PREDICTED BY IDOCK:   -5.87 KCAL/MOL
REMARK 924 INTRA-LIGAND FREE ENERGY PREDICTED BY IDOCK:   -1.12 KCAL/MOL
REMARK 927      BINDING AFFINITY PREDICTED BY RF-SCORE:    0.00 PKD
ROOT
HETATM    1  C   UNL     1      -9.137   8.444  65.702  1.00  0.00    -0.097 C  
HETATM    2  C   UNL     1      -8.620   8.502  67.142  1.00  0.00    -0.123 C  
HETATM    3  C   UNL     1      -8.813   9.962  67.502  1.00  0.00    -0.128 C  
HETATM    4  C   UNL     1      -7.199   7.963  67.235  1.00  0.00    -0.090 C  
HETATM    5  O   UNL     1      -8.894  10.884  63.491  1.00  0.00    -0.168 OA 
HETATM    6  C   UNL     1      -9.387  10.635  66.485  1.00  0.00    -0.167 C  
HETATM    7  C   UNL     1      -8.246   8.590  64.427  1.00  0.00    -0.153 C  
HETATM    8  N   UNL     1      -9.656   9.808  65.400  1.00  0.00    -0.275 N  
HETATM    9  C   UNL     1      -9.812  12.069  66.479  1.00  0.00    -0.209 C  
HETATM   10  O   UNL     1     -10.033  12.724  67.485  1.00  0.00    -0.205 OA 
HETATM   11  O   UNL     1      -9.930  12.620  65.250  1.00  0.00    -0.266 OA 
HETATM   12  C   UNL     1      -8.971   9.922  64.223  1.00  0.00    -0.243 C  
ENDROOT
BRANCH   3  13
HETATM   13  S   UNL     1      -8.486  10.470  69.116  1.00  0.00    -0.121 SA 
BRANCH  13  14
HETATM   14  C   UNL     1      -6.666  10.329  69.299  1.00  0.00    -0.063 C  
HETATM   15  C   UNL     1      -6.137  10.627  70.697  1.00  0.00    -0.075 C  
HETATM   16  N   UNL     1      -6.141  12.078  70.765  1.00  0.00    -0.537 NA 
HETATM   17  C   UNL     1      -5.718  12.588  69.441  1.00  0.00    -0.086 C  
HETATM   18  C   UNL     1      -6.016  11.443  68.466  1.00  0.00    -0.045 C  
HETATM   19  H   UNL     1      -5.574  12.442  71.531  1.00  0.00     0.000 HD 
BRANCH  17  20
HETATM   20  C   UNL     1      -6.399  13.965  69.196  1.00  0.00    -0.107 C  
HETATM   21  O   UNL     1      -6.899  14.581  70.140  1.00  0.00    -0.142 OA 
HETATM   22  N   UNL     1      -6.292  14.465  67.905  1.00  0.00    -0.152 N  
HETATM   23  H   UNL     1      -5.773  13.897  67.237  1.00  0.00     0.000 HD 
BRANCH  22  24
HETATM   24  C   UNL     1      -6.830  15.683  67.419  1.00  0.00    -0.197 A  
HETATM   25  C   UNL     1      -6.051  16.783  67.040  1.00  0.00    -0.218 A  
HETATM   26  C   UNL     1      -6.641  17.954  66.555  1.00  0.00    -0.249 A  
HETATM   27  C   UNL     1      -8.025  18.053  66.452  1.00  0.00    -0.296 A  
HETATM   28  C   UNL     1      -8.821  16.976  66.856  1.00  0.00    -0.251 A  
HETATM   29  C   UNL     1     -10.300  17.032  66.771  1.00  0.00    -0.302 C  
HETATM   30  C   UNL     1      -8.222  15.790  67.318  1.00  0.00    -0.211 A  
HETATM   31  O   UNL     1     -10.818  18.260  66.987  1.00  0.00    -0.329 OA 
HETATM   32  O   UNL     1     -10.986  16.045  66.564  1.00  0.00    -0.226 OA 
ENDBRANCH  22  24
ENDBRANCH  17  20
ENDBRANCH  13  14
ENDBRANCH   3  13
BRANCH   7  33
HETATM   33  C   UNL     1      -8.429   7.488  63.402  1.00  0.00     0.289 C  
HETATM   34  O   UNL     1      -8.547   6.266  64.130  1.00  0.00    -0.342 OA 
HETATM   35  H   UNL     1      -8.661   5.575  63.487  1.00  0.00     0.000 HD 
HETATM   36  C   UNL     1      -7.235   7.401  62.463  1.00  0.00    -0.083 C  
ENDBRANCH   7  33
TORSDOF 5
ENDMDL
MODEL      217
REMARK 921   NORMALIZED FREE ENERGY PREDICTED BY IDOCK:   -4.10 KCAL/MOL
REMARK 922        TOTAL FREE ENERGY PREDICTED BY IDOCK:   -6.98 KCAL/MOL
REMARK 923 INTER-LIGAND FREE ENERGY PREDICTED BY IDOCK:   -5.73 KCAL/MOL
REMARK 924 INTRA-LIGAND FREE ENERGY PREDICTED BY IDOCK:   -1.25 KCAL/MOL
REMARK 927      BINDING AFFINITY PREDICTED BY RF-SCORE:    0.00 PKD
ROOT
HETATM    1  C   UNL     1      -8.222   5.594  68.041  1.00  0.00    -0.100 C  
HETATM    2  C   UNL     1      -9.400   6.100  68.879  1.00  0.00    -0.126 C  
HETATM    3  C   UNL     1      -9.529   5.031  69.945  1.00  0.00    -0.159 C  
HETATM    4  C   UNL     1     -10.625   6.342  68.008  1.00  0.00    -0.315 C  
HETATM    5  O   UNL     1      -7.500   2.420  67.492  1.00  0.00    -0.056 OA 
HETATM    6  C   UNL     1      -8.573   4.091  69.800  1.00  0.00    -0.061 C  
HETATM    7  C   UNL     1      -8.353   4.719  66.754  1.00  0.00    -0.106 C  
HETATM    8  N   UNL     1      -7.729   4.368  68.731  1.00  0.00    -0.066 N  
HETATM    9  C   UNL     1      -8.317   2.921  70.695  1.00  0.00    -0.052 C  
HETATM   10  O   UNL     1      -8.687   2.851  71.857  1.00  0.00    -0.071 OA 
HETATM   11  O   UNL     1      -7.635   1.906  70.120  1.00  0.00    -0.042 OA 
HETATM   12  C   UNL     1      -7.729   3.604  67.598  1.00  0.00    -0.074 C  
ENDROOT
BRANCH   3  13
HETATM   13  S   UNL     1     -10.667   5.260  71.219  1.00  0.00    -0.062 SA 
BRANCH  13  14
HETATM   14  C   UNL     1      -9.714   6.055  72.569  1.00  0.00    -0.157 C  
HETATM   15  C   UNL     1     -10.561   6.673  73.675  1.00  0.00    -0.300 C  
HETATM   16  N   UNL     1     -11.008   7.931  73.103  1.00  0.00    -0.338 NA 
HETATM   17  C   UNL     1      -9.884   8.490  72.319  1.00  0.00    -0.313 C  
HETATM   18  C   UNL     1      -8.998   7.283  71.989  1.00  0.00    -0.143 C  
HETATM   19  H   UNL     1     -11.366   8.582  73.803  1.00  0.00     0.000 HD 
BRANCH  17  20
HETATM   20  C   UNL     1     -10.463   9.326  71.142  1.00  0.00    -0.331 C  
HETATM   21  O   UNL     1     -11.610   9.772  71.211  1.00  0.00    -0.345 OA 
HETATM   22  N   UNL     1      -9.574   9.609  70.114  1.00  0.00    -0.243 N  
HETATM   23  H   UNL     1      -8.624   9.257  70.222  1.00  0.00     0.000 HD 
BRANCH  22  24
HETATM   24  C   UNL     1      -9.850  10.338  68.929  1.00  0.00    -0.195 A  
HETATM   25  C   UNL     1      -9.754   9.798  67.642  1.00  0.00    -0.186 A  
HETATM   26  C   UNL     1     -10.053  10.565  66.511  1.00  0.00    -0.280 A  
HETATM   27  C   UNL     1     -10.442  11.893  66.647  1.00  0.00    -0.250 A  
HETATM   28  C   UNL     1     -10.513  12.460  67.924  1.00  0.00    -0.227 A  
HETATM   29  C   UNL     1     -10.918  13.873  68.123  1.00  0.00    -0.249 C  
HETATM   30  C   UNL     1     -10.238  11.676  69.060  1.00  0.00    -0.077 A  
HETATM   31  O   UNL     1     -10.527  14.702  67.132  1.00  0.00    -0.263 OA 
HETATM   32  O   UNL     1     -11.516  14.252  69.115  1.00  0.00    -0.257 OA 
ENDBRANCH  22  24
ENDBRANCH  17  20
ENDBRANCH  13  14
ENDBRANCH   3  13
BRANCH   7  33
HETATM   33  C   UNL     1      -7.591   5.246  65.554  1.00  0.00    -0.082 C  
HETATM   34  O   UNL     1      -7.298   6.617  65.824  1.00  0.00    -0.072 OA 
HETATM   35  H   UNL     1      -6.821   6.947  65.072  1.00  0.00     0.000 HD 
HETATM   36  C   UNL     1      -8.423   5.151  64.285  1.00  0.00    -0.131 C  
ENDBRANCH   7  33
TORSDOF 5
ENDMDL
MODEL      218
REMARK 921   NORMALIZED FREE ENERGY PREDICTED BY IDOCK:   -4.09 KCAL/MOL
REMARK 922        TOTAL FREE ENERGY PREDICTED BY IDOCK:   -6.97 KCAL/MOL
REMARK 923 INTER-LIGAND FREE ENERGY PREDICTED BY IDOCK:   -6.09 KCAL/MOL
REMARK 924 INTRA-LIGAND FREE ENERGY PREDICTED BY IDOCK:   -0.88 KCAL/MOL
REMARK 927      BINDING AFFINITY PREDICTED BY RF-SCORE:    0.00 PKD
ROOT
HETATM    1  C   UNL     1      -9.372   5.419  69.753  1.00  0.00    -0.142 C  
HETATM    2  C   UNL     1      -8.734   6.463  70.673  1.00  0.00    -0.144 C  
HETATM    3  C   UNL     1      -9.067   7.766  69.974  1.00  0.00    -0.150 C  
HETATM    4  C   UNL     1      -7.255   6.170  70.890  1.00  0.00    -0.074 C  
HETATM    5  O   UNL     1      -9.634   5.677  66.472  1.00  0.00    -0.146 OA 
HETATM    6  C   UNL     1      -9.811   7.542  68.872  1.00  0.00    -0.159 C  
HETATM    7  C   UNL     1      -8.629   4.670  68.601  1.00  0.00    -0.099 C  
HETATM    8  N   UNL     1     -10.078   6.190  68.690  1.00  0.00    -0.150 N  
HETATM    9  C   UNL     1     -10.405   8.569  67.962  1.00  0.00    -0.217 C  
HETATM   10  O   UNL     1     -10.609   9.731  68.277  1.00  0.00    -0.209 OA 
HETATM   11  O   UNL     1     -10.704   8.122  66.722  1.00  0.00    -0.278 OA 
HETATM   12  C   UNL     1      -9.526   5.480  67.662  1.00  0.00    -0.118 C  
ENDROOT
BRANCH   3  13
HETATM   13  S   UNL     1      -8.655   9.252  70.744  1.00  0.00    -0.151 SA 
BRANCH  13  14
HETATM   14  C   UNL     1      -6.864   9.475  70.417  1.00  0.00    -0.101 C  
HETATM   15  C   UNL     1      -6.266  10.763  70.972  1.00  0.00     0.281 C  
HETATM   16  N   UNL     1      -6.678  11.774  70.014  1.00  0.00    -0.400 NA 
HETATM   17  C   UNL     1      -6.594  11.171  68.664  1.00  0.00    -0.059 C  
HETATM   18  C   UNL     1      -6.675   9.658  68.905  1.00  0.00    -0.046 C  
HETATM   19  H   UNL     1      -6.144  12.640  70.095  1.00  0.00     0.000 HD 
BRANCH  17  20
HETATM   20  C   UNL     1      -7.668  11.834  67.754  1.00  0.00    -0.133 C  
HETATM   21  O   UNL     1      -8.240  11.165  66.891  1.00  0.00    -0.136 OA 
HETATM   22  N   UNL     1      -7.991  13.147  68.068  1.00  0.00    -0.143 N  
HETATM   23  H   UNL     1      -7.509  13.558  68.867  1.00  0.00     0.000 HD 
BRANCH  22  24
HETATM   24  C   UNL     1      -8.922  13.976  67.394  1.00  0.00    -0.206 A  
HETATM   25  C   UNL     1      -9.574  13.614  66.210  1.00  0.00    -0.254 A  
HETATM   26  C   UNL     1     -10.494  14.472  65.599  1.00  0.00    -0.351 A  
HETATM   27  C   UNL     1     -10.770  15.716  66.155  1.00  0.00    -0.305 A  
HETATM   28  C   UNL     1     -10.104  16.109  67.321  1.00  0.00    -0.265 A  
HETATM   29  C   UNL     1     -10.359  17.427  67.952  1.00  0.00    -0.369 C  
HETATM   30  C   UNL     1      -9.201  15.231  67.947  1.00  0.00    -0.184 A  
HETATM   31  O   UNL     1     -10.637  18.414  67.072  1.00  0.00    -0.395 OA 
HETATM   32  O   UNL     1     -10.282  17.607  69.155  1.00  0.00    -0.342 OA 
ENDBRANCH  22  24
ENDBRANCH  17  20
ENDBRANCH  13  14
ENDBRANCH   3  13
BRANCH   7  33
HETATM   33  C   UNL     1      -8.772   3.162  68.635  1.00  0.00    -0.103 C  
HETATM   34  O   UNL     1      -9.704   2.814  67.612  1.00  0.00    -0.350 OA 
HETATM   35  H   UNL     1      -9.794   1.868  67.634  1.00  0.00     0.000 HD 
HETATM   36  C   UNL     1      -9.301   2.686  69.979  1.00  0.00    -0.192 C  
ENDBRANCH   7  33
TORSDOF 5
ENDMDL
MODEL      219
REMARK 921   NORMALIZED FREE ENERGY PREDICTED BY IDOCK:   -4.08 KCAL/MOL
REMARK 922        TOTAL FREE ENERGY PREDICTED BY IDOCK:   -6.96 KCAL/MOL
REMARK 923 INTER-LIGAND FREE ENERGY PREDICTED BY IDOCK:   -6.56 KCAL/MOL
REMARK 924 INTRA-LIGAND FREE ENERGY PREDICTED BY IDOCK:   -0.39 KCAL/MOL
REMARK 927      BINDING AFFINITY PREDICTED BY RF-SCORE:    0.00 PKD
ROOT
HETATM    1  C   UNL     1     -10.247  10.984  64.674  1.00  0.00    -0.330 C  
HETATM    2  C   UNL     1      -8.860  10.340  64.747  1.00  0.00    -0.217 C  
HETATM    3  C   UNL     1      -8.626  10.234  66.241  1.00  0.00    -0.137 C  
HETATM    4  C   UNL     1      -7.840  11.148  63.957  1.00  0.00     0.766 C  
HETATM    5  O   UNL     1     -11.452  13.168  66.837  1.00  0.00    -0.309 OA 
HETATM    6  C   UNL     1      -9.696  10.682  66.927  1.00  0.00    -0.179 C  
HETATM    7  C   UNL     1     -10.514  12.517  64.544  1.00  0.00    -0.366 C  
HETATM    8  N   UNL     1     -10.718  11.100  66.083  1.00  0.00    -0.252 N  
HETATM    9  C   UNL     1      -9.886  10.669  68.411  1.00  0.00    -0.161 C  
HETATM   10  O   UNL     1      -9.277   9.936  69.175  1.00  0.00    -0.159 OA 
HETATM   11  O   UNL     1     -10.796  11.554  68.874  1.00  0.00    -0.202 OA 
HETATM   12  C   UNL     1     -11.063  12.417  65.969  1.00  0.00    -0.308 C  
ENDROOT
BRANCH   3  13
HETATM   13  S   UNL     1      -7.213   9.424  66.805  1.00  0.00    -0.083 SA 
BRANCH  13  14
HETATM   14  C   UNL     1      -7.066   7.933  65.748  1.00  0.00    -0.060 C  
HETATM   15  C   UNL     1      -8.363   7.488  65.081  1.00  0.00    -0.085 C  
HETATM   16  N   UNL     1      -9.076   6.799  66.142  1.00  0.00    -0.250 NA 
HETATM   17  C   UNL     1      -8.081   6.035  66.927  1.00  0.00    -0.105 C  
HETATM   18  C   UNL     1      -6.744   6.736  66.654  1.00  0.00    -0.053 C  
HETATM   19  H   UNL     1      -9.840   6.217  65.795  1.00  0.00     0.000 HD 
BRANCH  17  20
HETATM   20  C   UNL     1      -8.576   5.933  68.398  1.00  0.00    -0.113 C  
HETATM   21  O   UNL     1      -7.813   5.530  69.277  1.00  0.00    -0.088 OA 
HETATM   22  N   UNL     1      -9.852   6.428  68.635  1.00  0.00    -0.139 N  
HETATM   23  H   UNL     1     -10.346   6.820  67.835  1.00  0.00     0.000 HD 
BRANCH  22  24
HETATM   24  C   UNL     1     -10.539   6.444  69.875  1.00  0.00    -0.243 A  
HETATM   25  C   UNL     1     -11.374   7.488  70.290  1.00  0.00    -0.219 A  
HETATM   26  C   UNL     1     -12.036   7.439  71.521  1.00  0.00    -0.337 A  
HETATM   27  C   UNL     1     -11.864   6.350  72.368  1.00  0.00    -0.255 A  
HETATM   28  C   UNL     1     -11.007   5.312  71.985  1.00  0.00    -0.196 A  
HETATM   29  C   UNL     1     -10.786   4.130  72.853  1.00  0.00    -0.147 C  
HETATM   30  C   UNL     1     -10.366   5.352  70.733  1.00  0.00    -0.322 A  
HETATM   31  O   UNL     1     -10.824   4.403  74.175  1.00  0.00    -0.260 OA 
HETATM   32  O   UNL     1     -10.550   3.020  72.407  1.00  0.00    -0.075 OA 
ENDBRANCH  22  24
ENDBRANCH  17  20
ENDBRANCH  13  14
ENDBRANCH   3  13
BRANCH   7  33
HETATM   33  C   UNL     1     -11.455  12.900  63.419  1.00  0.00    -0.338 C  
HETATM   34  O   UNL     1     -11.913  14.223  63.699  1.00  0.00    -0.786 OA 
HETATM   35  H   UNL     1     -12.503  14.462  62.993  1.00  0.00     0.000 HD 
HETATM   36  C   UNL     1     -12.648  11.959  63.349  1.00  0.00    -0.555 C  
ENDBRANCH   7  33
TORSDOF 5
ENDMDL
MODEL      220
REMARK 921   NORMALIZED FREE ENERGY PREDICTED BY IDOCK:   -4.05 KCAL/MOL
REMARK 922        TOTAL FREE ENERGY PREDICTED BY IDOCK:   -6.92 KCAL/MOL
REMARK 923 INTER-LIGAND FREE ENERGY PREDICTED BY IDOCK:   -5.60 KCAL/MOL
REMARK 924 INTRA-LIGAND FREE ENERGY PREDICTED BY IDOCK:   -1.32 KCAL/MOL
REMARK 927      BINDING AFFINITY PREDICTED BY RF-SCORE:    0.00 PKD
ROOT
HETATM    1  C   UNL     1     -10.752  13.115  68.752  1.00  0.00    -0.225 C  
HETATM    2  C   UNL     1     -11.033  11.891  69.627  1.00  0.00    -0.012 C  
HETATM    3  C   UNL     1     -10.843  10.742  68.657  1.00  0.00    -0.220 C  
HETATM    4  C   UNL     1     -12.398  11.997  70.293  1.00  0.00    -0.275 C  
HETATM    5  O   UNL     1     -11.444  13.356  65.533  1.00  0.00    -0.300 OA 
HETATM    6  C   UNL     1     -10.467  11.196  67.444  1.00  0.00    -0.220 C  
HETATM    7  C   UNL     1     -11.841  13.940  67.994  1.00  0.00    -0.411 C  
HETATM    8  N   UNL     1     -10.343  12.581  67.422  1.00  0.00    -0.215 N  
HETATM    9  C   UNL     1     -10.107  10.376  66.247  1.00  0.00    -0.231 C  
HETATM   10  O   UNL     1      -9.753   9.208  66.295  1.00  0.00    -0.231 OA 
HETATM   11  O   UNL     1     -10.209  11.023  65.065  1.00  0.00    -0.264 OA 
HETATM   12  C   UNL     1     -11.211  13.369  66.722  1.00  0.00    -0.310 C  
ENDROOT
BRANCH   3  13
HETATM   13  S   UNL     1     -10.928   9.127  69.253  1.00  0.00     0.019 SA 
BRANCH  13  14
HETATM   14  C   UNL     1      -9.438   8.931  70.304  1.00  0.00    -0.187 C  
HETATM   15  C   UNL     1      -8.210   9.699  69.828  1.00  0.00    -0.161 C  
HETATM   16  N   UNL     1      -7.690   8.880  68.747  1.00  0.00    -0.095 NA 
HETATM   17  C   UNL     1      -7.850   7.462  69.143  1.00  0.00    -0.116 C  
HETATM   18  C   UNL     1      -8.967   7.473  70.195  1.00  0.00    -0.147 C  
HETATM   19  H   UNL     1      -6.729   9.116  68.497  1.00  0.00     0.000 HD 
BRANCH  17  20
HETATM   20  C   UNL     1      -8.050   6.605  67.861  1.00  0.00    -0.113 C  
HETATM   21  O   UNL     1      -8.726   5.576  67.909  1.00  0.00    -0.108 OA 
HETATM   22  N   UNL     1      -7.525   7.143  66.693  1.00  0.00    -0.086 N  
HETATM   23  H   UNL     1      -7.066   8.050  66.774  1.00  0.00     0.000 HD 
BRANCH  22  24
HETATM   24  C   UNL     1      -7.561   6.563  65.400  1.00  0.00    -0.089 A  
HETATM   25  C   UNL     1      -7.395   7.289  64.216  1.00  0.00    -0.086 A  
HETATM   26  C   UNL     1      -7.427   6.655  62.969  1.00  0.00    -0.081 A  
HETATM   27  C   UNL     1      -7.639   5.284  62.883  1.00  0.00    -0.065 A  
HETATM   28  C   UNL     1      -7.840   4.547  64.055  1.00  0.00    -0.086 A  
HETATM   29  C   UNL     1      -8.075   3.083  64.019  1.00  0.00    -0.082 C  
HETATM   30  C   UNL     1      -7.779   5.184  65.308  1.00  0.00    -0.087 A  
HETATM   31  O   UNL     1      -8.762   2.663  62.935  1.00  0.00    -0.084 OA 
HETATM   32  O   UNL     1      -7.713   2.336  64.911  1.00  0.00    -0.070 OA 
ENDBRANCH  22  24
ENDBRANCH  17  20
ENDBRANCH  13  14
ENDBRANCH   3  13
BRANCH   7  33
HETATM   33  C   UNL     1     -11.781  15.435  68.238  1.00  0.00    -0.297 C  
HETATM   34  O   UNL     1     -10.633  15.919  67.539  1.00  0.00    -0.302 OA 
HETATM   35  H   UNL     1     -10.596  16.856  67.692  1.00  0.00     0.000 HD 
HETATM   36  C   UNL     1     -11.637  15.750  69.719  1.00  0.00    -0.359 C  
ENDBRANCH   7  33
TORSDOF 5
ENDMDL
MODEL      221
REMARK 921   NORMALIZED FREE ENERGY PREDICTED BY IDOCK:   -4.04 KCAL/MOL
REMARK 922        TOTAL FREE ENERGY PREDICTED BY IDOCK:   -6.91 KCAL/MOL
REMARK 923 INTER-LIGAND FREE ENERGY PREDICTED BY IDOCK:   -5.86 KCAL/MOL
REMARK 924 INTRA-LIGAND FREE ENERGY PREDICTED BY IDOCK:   -1.05 KCAL/MOL
REMARK 927      BINDING AFFINITY PREDICTED BY RF-SCORE:    0.00 PKD
ROOT
HETATM    1  C   UNL     1      -8.234   5.618  65.310  1.00  0.00    -0.134 C  
HETATM    2  C   UNL     1      -8.381   6.268  66.688  1.00  0.00    -0.112 C  
HETATM    3  C   UNL     1      -8.231   7.743  66.374  1.00  0.00    -0.116 C  
HETATM    4  C   UNL     1      -7.384   5.681  67.678  1.00  0.00    -0.077 C  
HETATM    5  O   UNL     1      -6.324   6.745  62.865  1.00  0.00    -0.041 OA 
HETATM    6  C   UNL     1      -8.078   7.938  65.049  1.00  0.00    -0.144 C  
HETATM    7  C   UNL     1      -6.897   5.072  64.717  1.00  0.00    -0.049 C  
HETATM    8  N   UNL     1      -8.114   6.743  64.340  1.00  0.00    -0.099 N  
HETATM    9  C   UNL     1      -7.979   9.249  64.336  1.00  0.00    -0.133 C  
HETATM   10  O   UNL     1      -8.381  10.309  64.789  1.00  0.00    -0.164 OA 
HETATM   11  O   UNL     1      -7.390   9.191  63.122  1.00  0.00    -0.095 OA 
HETATM   12  C   UNL     1      -7.003   6.235  63.729  1.00  0.00    -0.043 C  
ENDROOT
BRANCH   3  13
HETATM   13  S   UNL     1      -8.468   8.891  67.638  1.00  0.00    -0.121 SA 
BRANCH  13  14
HETATM   14  C   UNL     1      -6.837   9.030  68.465  1.00  0.00    -0.064 C  
HETATM   15  C   UNL     1      -6.892   9.469  69.924  1.00  0.00    -0.067 C  
HETATM   16  N   UNL     1      -7.097  10.905  69.843  1.00  0.00    -0.318 NA 
HETATM   17  C   UNL     1      -6.286  11.409  68.711  1.00  0.00    -0.053 C  
HETATM   18  C   UNL     1      -6.068  10.187  67.811  1.00  0.00    -0.056 C  
HETATM   19  H   UNL     1      -6.895  11.386  70.721  1.00  0.00     0.000 HD 
BRANCH  17  20
HETATM   20  C   UNL     1      -6.993  12.656  68.108  1.00  0.00    -0.096 C  
HETATM   21  O   UNL     1      -6.407  13.740  68.078  1.00  0.00    -0.109 OA 
HETATM   22  N   UNL     1      -8.232  12.420  67.527  1.00  0.00    -0.162 N  
HETATM   23  H   UNL     1      -8.565  11.457  67.537  1.00  0.00     0.000 HD 
BRANCH  22  24
HETATM   24  C   UNL     1      -9.082  13.379  66.921  1.00  0.00    -0.231 A  
HETATM   25  C   UNL     1      -8.764  14.736  66.800  1.00  0.00    -0.255 A  
HETATM   26  C   UNL     1      -9.641  15.632  66.178  1.00  0.00    -0.362 A  
HETATM   27  C   UNL     1     -10.859  15.188  65.678  1.00  0.00    -0.367 A  
HETATM   28  C   UNL     1     -11.209  13.841  65.819  1.00  0.00    -0.300 A  
HETATM   29  C   UNL     1     -12.499  13.318  65.307  1.00  0.00    -0.489 C  
HETATM   30  C   UNL     1     -10.312  12.939  66.419  1.00  0.00    -0.277 A  
HETATM   31  O   UNL     1     -13.518  14.201  65.378  1.00  0.00    -0.648 OA 
HETATM   32  O   UNL     1     -12.630  12.177  64.897  1.00  0.00    -0.500 OA 
ENDBRANCH  22  24
ENDBRANCH  17  20
ENDBRANCH  13  14
ENDBRANCH   3  13
BRANCH   7  33
HETATM   33  C   UNL     1      -6.973   3.652  64.193  1.00  0.00    -0.046 C  
HETATM   34  O   UNL     1      -7.407   3.738  62.836  1.00  0.00    -0.047 OA 
HETATM   35  H   UNL     1      -7.455   2.847  62.508  1.00  0.00     0.000 HD 
HETATM   36  C   UNL     1      -7.969   2.821  64.988  1.00  0.00    -0.082 C  
ENDBRANCH   7  33
TORSDOF 5
ENDMDL
MODEL      222
REMARK 921   NORMALIZED FREE ENERGY PREDICTED BY IDOCK:   -4.04 KCAL/MOL
REMARK 922        TOTAL FREE ENERGY PREDICTED BY IDOCK:   -6.90 KCAL/MOL
REMARK 923 INTER-LIGAND FREE ENERGY PREDICTED BY IDOCK:   -6.00 KCAL/MOL
REMARK 924 INTRA-LIGAND FREE ENERGY PREDICTED BY IDOCK:   -0.90 KCAL/MOL
REMARK 927      BINDING AFFINITY PREDICTED BY RF-SCORE:    0.00 PKD
ROOT
HETATM    1  C   UNL     1      -8.912   5.050  69.415  1.00  0.00    -0.092 C  
HETATM    2  C   UNL     1     -10.076   6.029  69.238  1.00  0.00    -0.235 C  
HETATM    3  C   UNL     1     -10.899   5.792  70.489  1.00  0.00    -0.278 C  
HETATM    4  C   UNL     1     -10.784   5.802  67.909  1.00  0.00    -0.295 C  
HETATM    5  O   UNL     1      -9.104   2.110  70.904  1.00  0.00    -0.074 OA 
HETATM    6  C   UNL     1     -10.306   4.881  71.287  1.00  0.00    -0.148 C  
HETATM    7  C   UNL     1      -8.868   3.601  68.835  1.00  0.00    -0.158 C  
HETATM    8  N   UNL     1      -9.106   4.425  70.754  1.00  0.00    -0.116 N  
HETATM    9  C   UNL     1     -10.761   4.437  72.641  1.00  0.00    -0.128 C  
HETATM   10  O   UNL     1     -11.508   5.081  73.360  1.00  0.00    -0.323 OA 
HETATM   11  O   UNL     1     -10.288   3.232  73.031  1.00  0.00    -0.148 OA 
HETATM   12  C   UNL     1      -8.964   3.146  70.293  1.00  0.00    -0.097 C  
ENDROOT
BRANCH   3  13
HETATM   13  S   UNL     1     -12.266   6.798  70.789  1.00  0.00    -0.177 SA 
BRANCH  13  14
HETATM   14  C   UNL     1     -11.738   7.930  72.132  1.00  0.00    -0.333 C  
HETATM   15  C   UNL     1     -12.142   9.387  71.939  1.00  0.00    -0.357 C  
HETATM   16  N   UNL     1     -11.170   9.890  70.985  1.00  0.00    -0.363 NA 
HETATM   17  C   UNL     1      -9.860   9.286  71.319  1.00  0.00    -0.248 C  
HETATM   18  C   UNL     1     -10.205   8.016  72.107  1.00  0.00    -0.308 C  
HETATM   19  H   UNL     1     -11.139  10.909  70.949  1.00  0.00     0.000 HD 
BRANCH  17  20
HETATM   20  C   UNL     1      -9.029   9.142  70.012  1.00  0.00    -0.187 C  
HETATM   21  O   UNL     1      -7.967   8.516  70.025  1.00  0.00    -0.101 OA 
HETATM   22  N   UNL     1      -9.621   9.655  68.866  1.00  0.00    -0.157 N  
HETATM   23  H   UNL     1     -10.546  10.069  68.976  1.00  0.00     0.000 HD 
BRANCH  22  24
HETATM   24  C   UNL     1      -9.074   9.663  67.558  1.00  0.00    -0.130 A  
HETATM   25  C   UNL     1      -9.690   9.067  66.452  1.00  0.00    -0.337 A  
HETATM   26  C   UNL     1      -9.105   9.120  65.182  1.00  0.00    -0.234 A  
HETATM   27  C   UNL     1      -7.885   9.761  64.998  1.00  0.00    -0.128 A  
HETATM   28  C   UNL     1      -7.238  10.334  66.099  1.00  0.00    -0.121 A  
HETATM   29  C   UNL     1      -5.933  11.024  65.957  1.00  0.00    -0.109 C  
HETATM   30  C   UNL     1      -7.844  10.302  67.368  1.00  0.00    -0.102 A  
HETATM   31  O   UNL     1      -5.128  10.491  65.014  1.00  0.00    -0.098 OA 
HETATM   32  O   UNL     1      -5.606  11.965  66.660  1.00  0.00    -0.261 OA 
ENDBRANCH  22  24
ENDBRANCH  17  20
ENDBRANCH  13  14
ENDBRANCH   3  13
BRANCH   7  33
HETATM   33  C   UNL     1      -7.616   3.277  68.044  1.00  0.00    -0.060 C  
HETATM   34  O   UNL     1      -7.886   2.075  67.323  1.00  0.00    -0.064 OA 
HETATM   35  H   UNL     1      -7.100   1.872  66.827  1.00  0.00     0.000 HD 
HETATM   36  C   UNL     1      -6.423   3.055  68.962  1.00  0.00    -0.029 C  
ENDBRANCH   7  33
TORSDOF 5
ENDMDL
MODEL      223
REMARK 921   NORMALIZED FREE ENERGY PREDICTED BY IDOCK:   -4.04 KCAL/MOL
REMARK 922        TOTAL FREE ENERGY PREDICTED BY IDOCK:   -6.90 KCAL/MOL
REMARK 923 INTER-LIGAND FREE ENERGY PREDICTED BY IDOCK:   -6.18 KCAL/MOL
REMARK 924 INTRA-LIGAND FREE ENERGY PREDICTED BY IDOCK:   -0.72 KCAL/MOL
REMARK 927      BINDING AFFINITY PREDICTED BY RF-SCORE:    0.00 PKD
ROOT
HETATM    1  C   UNL     1      -8.599  15.304  66.846  1.00  0.00    -0.257 C  
HETATM    2  C   UNL     1      -7.940  13.936  67.042  1.00  0.00     0.043 C  
HETATM    3  C   UNL     1      -9.130  12.999  67.081  1.00  0.00    -0.225 C  
HETATM    4  C   UNL     1      -7.036  13.935  68.267  1.00  0.00    -0.108 C  
HETATM    5  O   UNL     1     -11.539  16.192  68.056  1.00  0.00    -0.236 OA 
HETATM    6  C   UNL     1     -10.280  13.677  66.891  1.00  0.00    -0.261 C  
HETATM    7  C   UNL     1      -8.981  16.285  68.000  1.00  0.00    -0.187 C  
HETATM    8  N   UNL     1     -10.058  15.035  66.697  1.00  0.00    -0.255 N  
HETATM    9  C   UNL     1     -11.657  13.103  66.783  1.00  0.00    -0.366 C  
HETATM   10  O   UNL     1     -11.897  11.942  66.490  1.00  0.00    -0.579 OA 
HETATM   11  O   UNL     1     -12.656  13.974  67.047  1.00  0.00    -0.215 OA 
HETATM   12  C   UNL     1     -10.430  15.965  67.626  1.00  0.00    -0.289 C  
ENDROOT
BRANCH   3  13
HETATM   13  S   UNL     1      -8.850  11.300  67.151  1.00  0.00    -0.157 SA 
BRANCH  13  14
HETATM   14  C   UNL     1      -9.270  10.820  68.871  1.00  0.00    -0.173 C  
HETATM   15  C   UNL     1      -8.141  10.147  69.644  1.00  0.00    -0.168 C  
HETATM   16  N   UNL     1      -8.148   8.783  69.145  1.00  0.00    -0.116 NA 
HETATM   17  C   UNL     1      -9.561   8.384  68.953  1.00  0.00    -0.153 C  
HETATM   18  C   UNL     1     -10.325   9.706  68.810  1.00  0.00    -0.233 C  
HETATM   19  H   UNL     1      -7.631   8.138  69.744  1.00  0.00     0.000 HD 
BRANCH  17  20
HETATM   20  C   UNL     1      -9.635   7.356  67.788  1.00  0.00    -0.140 C  
HETATM   21  O   UNL     1     -10.578   6.565  67.727  1.00  0.00    -0.196 OA 
HETATM   22  N   UNL     1      -8.658   7.487  66.811  1.00  0.00    -0.122 N  
HETATM   23  H   UNL     1      -7.986   8.244  66.935  1.00  0.00     0.000 HD 
BRANCH  22  24
HETATM   24  C   UNL     1      -8.495   6.676  65.659  1.00  0.00    -0.144 A  
HETATM   25  C   UNL     1      -8.067   7.162  64.419  1.00  0.00    -0.056 A  
HETATM   26  C   UNL     1      -7.913   6.308  63.322  1.00  0.00    -0.098 A  
HETATM   27  C   UNL     1      -8.197   4.952  63.442  1.00  0.00    -0.110 A  
HETATM   28  C   UNL     1      -8.658   4.454  64.666  1.00  0.00    -0.134 A  
HETATM   29  C   UNL     1      -8.980   3.018  64.845  1.00  0.00    -0.132 C  
HETATM   30  C   UNL     1      -8.784   5.312  65.774  1.00  0.00    -0.143 A  
HETATM   31  O   UNL     1      -9.483   2.424  63.742  1.00  0.00    -0.107 OA 
HETATM   32  O   UNL     1      -8.838   2.439  65.909  1.00  0.00    -0.122 OA 
ENDBRANCH  22  24
ENDBRANCH  17  20
ENDBRANCH  13  14
ENDBRANCH   3  13
BRANCH   7  33
HETATM   33  C   UNL     1      -8.469  17.700  67.818  1.00  0.00    -0.227 C  
HETATM   34  O   UNL     1      -7.080  17.679  68.144  1.00  0.00    -0.203 OA 
HETATM   35  H   UNL     1      -6.760  18.567  68.030  1.00  0.00     0.000 HD 
HETATM   36  C   UNL     1      -9.188  18.671  68.742  1.00  0.00    -0.318 C  
ENDBRANCH   7  33
TORSDOF 5
ENDMDL
MODEL      224
REMARK 921   NORMALIZED FREE ENERGY PREDICTED BY IDOCK:   -4.00 KCAL/MOL
REMARK 922        TOTAL FREE ENERGY PREDICTED BY IDOCK:   -6.86 KCAL/MOL
REMARK 923 INTER-LIGAND FREE ENERGY PREDICTED BY IDOCK:   -5.55 KCAL/MOL
REMARK 924 INTRA-LIGAND FREE ENERGY PREDICTED BY IDOCK:   -1.31 KCAL/MOL
REMARK 927      BINDING AFFINITY PREDICTED BY RF-SCORE:    0.00 PKD
ROOT
HETATM    1  C   UNL     1      -9.255   4.614  65.259  1.00  0.00    -0.156 C  
HETATM    2  C   UNL     1      -9.878   5.405  66.413  1.00  0.00    -0.196 C  
HETATM    3  C   UNL     1      -9.300   6.791  66.211  1.00  0.00    -0.100 C  
HETATM    4  C   UNL     1      -9.590   4.739  67.751  1.00  0.00    -0.194 C  
HETATM    5  O   UNL     1      -6.251   5.136  63.994  1.00  0.00    -0.021 OA 
HETATM    6  C   UNL     1      -8.521   6.830  65.111  1.00  0.00    -0.028 C  
HETATM    7  C   UNL     1      -7.940   3.777  65.358  1.00  0.00    -0.093 C  
HETATM    8  N   UNL     1      -8.475   5.602  64.462  1.00  0.00    -0.112 N  
HETATM    9  C   UNL     1      -7.839   8.029  64.531  1.00  0.00    -0.138 C  
HETATM   10  O   UNL     1      -8.175   9.182  64.749  1.00  0.00    -0.131 OA 
HETATM   11  O   UNL     1      -6.785   7.750  63.733  1.00  0.00    -0.060 OA 
HETATM   12  C   UNL     1      -7.339   4.843  64.438  1.00  0.00    -0.059 C  
ENDROOT
BRANCH   3  13
HETATM   13  S   UNL     1      -9.846   8.076  67.222  1.00  0.00    -0.220 SA 
BRANCH  13  14
HETATM   14  C   UNL     1      -8.509   8.311  68.455  1.00  0.00    -0.129 C  
HETATM   15  C   UNL     1      -8.982   8.722  69.845  1.00  0.00    -0.152 C  
HETATM   16  N   UNL     1      -9.256  10.142  69.709  1.00  0.00    -0.364 NA 
HETATM   17  C   UNL     1      -8.209  10.717  68.834  1.00  0.00    -0.149 C  
HETATM   18  C   UNL     1      -7.675   9.527  68.027  1.00  0.00    -0.087 C  
HETATM   19  H   UNL     1      -9.329  10.620  70.607  1.00  0.00     0.000 HD 
BRANCH  17  20
HETATM   20  C   UNL     1      -8.813  11.924  68.060  1.00  0.00    -0.177 C  
HETATM   21  O   UNL     1      -9.198  11.778  66.899  1.00  0.00    -0.178 OA 
HETATM   22  N   UNL     1      -8.981  13.086  68.801  1.00  0.00    -0.384 N  
HETATM   23  H   UNL     1      -8.705  13.047  69.781  1.00  0.00     0.000 HD 
BRANCH  22  24
HETATM   24  C   UNL     1      -9.496  14.322  68.335  1.00  0.00    -0.213 A  
HETATM   25  C   UNL     1     -10.860  14.631  68.288  1.00  0.00    -0.249 A  
HETATM   26  C   UNL     1     -11.305  15.875  67.830  1.00  0.00    -0.252 A  
HETATM   27  C   UNL     1     -10.393  16.831  67.397  1.00  0.00    -0.302 A  
HETATM   28  C   UNL     1      -9.027  16.529  67.406  1.00  0.00    -0.207 A  
HETATM   29  C   UNL     1      -8.014  17.511  66.950  1.00  0.00    -0.226 C  
HETATM   30  C   UNL     1      -8.583  15.287  67.894  1.00  0.00    -0.153 A  
HETATM   31  O   UNL     1      -8.434  18.309  65.944  1.00  0.00    -0.499 OA 
HETATM   32  O   UNL     1      -6.890  17.563  67.418  1.00  0.00    -0.157 OA 
ENDBRANCH  22  24
ENDBRANCH  17  20
ENDBRANCH  13  14
ENDBRANCH   3  13
BRANCH   7  33
HETATM   33  C   UNL     1      -8.060   2.353  64.853  1.00  0.00    -0.082 C  
HETATM   34  O   UNL     1      -7.557   2.348  63.517  1.00  0.00    -0.056 OA 
HETATM   35  H   UNL     1      -7.632   1.455  63.201  1.00  0.00     0.000 HD 
HETATM   36  C   UNL     1      -9.508   1.888  64.847  1.00  0.00    -0.025 C  
ENDBRANCH   7  33
TORSDOF 5
ENDMDL
MODEL      225
REMARK 921   NORMALIZED FREE ENERGY PREDICTED BY IDOCK:   -4.00 KCAL/MOL
REMARK 922        TOTAL FREE ENERGY PREDICTED BY IDOCK:   -6.85 KCAL/MOL
REMARK 923 INTER-LIGAND FREE ENERGY PREDICTED BY IDOCK:   -6.61 KCAL/MOL
REMARK 924 INTRA-LIGAND FREE ENERGY PREDICTED BY IDOCK:   -0.24 KCAL/MOL
REMARK 927      BINDING AFFINITY PREDICTED BY RF-SCORE:    0.00 PKD
ROOT
HETATM    1  C   UNL     1     -11.285  13.054  70.066  1.00  0.00     0.273 C  
HETATM    2  C   UNL     1     -11.169  11.650  69.468  1.00  0.00    -0.282 C  
HETATM    3  C   UNL     1     -10.723  11.933  68.047  1.00  0.00    -0.209 C  
HETATM    4  C   UNL     1     -12.472  10.878  69.627  1.00  0.00    -0.198 C  
HETATM    5  O   UNL     1     -12.189  15.763  68.411  1.00  0.00    -0.043 OA 
HETATM    6  C   UNL     1     -10.553  13.256  67.854  1.00  0.00    -0.238 C  
HETATM    7  C   UNL     1     -12.598  13.898  70.117  1.00  0.00    -0.285 C  
HETATM    8  N   UNL     1     -10.817  13.989  69.005  1.00  0.00    -0.254 N  
HETATM    9  C   UNL     1     -10.045  13.929  66.617  1.00  0.00    -0.273 C  
HETATM   10  O   UNL     1      -9.382  13.373  65.757  1.00  0.00    -0.025 OA 
HETATM   11  O   UNL     1     -10.386  15.231  66.500  1.00  0.00    -0.271 OA 
HETATM   12  C   UNL     1     -11.905  14.809  69.102  1.00  0.00    -0.305 C  
ENDROOT
BRANCH   3  13
HETATM   13  S   UNL     1     -10.326  10.607  67.020  1.00  0.00    -0.242 SA 
BRANCH  13  14
HETATM   14  C   UNL     1      -9.103   9.622  67.967  1.00  0.00    -0.125 C  
HETATM   15  C   UNL     1      -8.998   9.978  69.445  1.00  0.00    -0.194 C  
HETATM   16  N   UNL     1      -8.193  11.187  69.452  1.00  0.00    -0.380 NA 
HETATM   17  C   UNL     1      -7.145  11.031  68.418  1.00  0.00    -0.074 C  
HETATM   18  C   UNL     1      -7.701   9.979  67.451  1.00  0.00    -0.095 C  
HETATM   19  H   UNL     1      -7.812  11.406  70.373  1.00  0.00     0.000 HD 
BRANCH  17  20
HETATM   20  C   UNL     1      -6.786  12.437  67.856  1.00  0.00    -0.100 C  
HETATM   21  O   UNL     1      -6.477  12.563  66.670  1.00  0.00     0.044 OA 
HETATM   22  N   UNL     1      -6.954  13.495  68.738  1.00  0.00    -0.099 N  
HETATM   23  H   UNL     1      -7.305  13.264  69.667  1.00  0.00     0.000 HD 
BRANCH  22  24
HETATM   24  C   UNL     1      -6.690  14.864  68.482  1.00  0.00    -0.092 A  
HETATM   25  C   UNL     1      -5.437  15.358  68.100  1.00  0.00    -0.130 A  
HETATM   26  C   UNL     1      -5.242  16.720  67.848  1.00  0.00    -0.128 A  
HETATM   27  C   UNL     1      -6.296  17.617  67.986  1.00  0.00    -0.166 A  
HETATM   28  C   UNL     1      -7.547  17.147  68.398  1.00  0.00    -0.231 A  
HETATM   29  C   UNL     1      -8.702  18.062  68.565  1.00  0.00    -0.295 C  
HETATM   30  C   UNL     1      -7.745  15.772  68.623  1.00  0.00    -0.153 A  
HETATM   31  O   UNL     1      -8.367  19.298  68.994  1.00  0.00    -0.338 OA 
HETATM   32  O   UNL     1      -9.853  17.712  68.369  1.00  0.00    -0.298 OA 
ENDBRANCH  22  24
ENDBRANCH  17  20
ENDBRANCH  13  14
ENDBRANCH   3  13
BRANCH   7  33
HETATM   33  C   UNL     1     -12.939  14.449  71.487  1.00  0.00    -0.336 C  
HETATM   34  O   UNL     1     -11.713  14.893  72.068  1.00  0.00    -0.365 OA 
HETATM   35  H   UNL     1     -11.927  15.239  72.927  1.00  0.00     0.000 HD 
HETATM   36  C   UNL     1     -13.559  13.382  72.376  1.00  0.00    -0.708 C  
ENDBRANCH   7  33
TORSDOF 5
ENDMDL
MODEL      226
REMARK 921   NORMALIZED FREE ENERGY PREDICTED BY IDOCK:   -4.00 KCAL/MOL
REMARK 922        TOTAL FREE ENERGY PREDICTED BY IDOCK:   -6.85 KCAL/MOL
REMARK 923 INTER-LIGAND FREE ENERGY PREDICTED BY IDOCK:   -5.80 KCAL/MOL
REMARK 924 INTRA-LIGAND FREE ENERGY PREDICTED BY IDOCK:   -1.05 KCAL/MOL
REMARK 927      BINDING AFFINITY PREDICTED BY RF-SCORE:    0.00 PKD
ROOT
HETATM    1  C   UNL     1      -8.060   6.397  69.348  1.00  0.00    -0.118 C  
HETATM    2  C   UNL     1      -8.486   7.596  70.199  1.00  0.00    -0.138 C  
HETATM    3  C   UNL     1      -8.609   8.702  69.170  1.00  0.00    -0.129 C  
HETATM    4  C   UNL     1      -7.503   7.835  71.337  1.00  0.00    -0.076 C  
HETATM    5  O   UNL     1      -6.168   6.551  66.647  1.00  0.00    -0.037 OA 
HETATM    6  C   UNL     1      -8.356   8.235  67.931  1.00  0.00    -0.128 C  
HETATM    7  C   UNL     1      -6.583   5.954  69.103  1.00  0.00    -0.051 C  
HETATM    8  N   UNL     1      -8.069   6.875  67.936  1.00  0.00    -0.114 N  
HETATM    9  C   UNL     1      -8.453   8.992  66.645  1.00  0.00    -0.122 C  
HETATM   10  O   UNL     1      -9.110  10.010  66.495  1.00  0.00    -0.145 OA 
HETATM   11  O   UNL     1      -7.735   8.471  65.625  1.00  0.00    -0.090 OA 
HETATM   12  C   UNL     1      -6.818   6.403  67.658  1.00  0.00    -0.076 C  
ENDROOT
BRANCH   3  13
HETATM   13  S   UNL     1      -9.212  10.238  69.668  1.00  0.00    -0.052 SA 
BRANCH  13  14
HETATM   14  C   UNL     1     -11.034  10.035  69.731  1.00  0.00    -0.276 C  
HETATM   15  C   UNL     1     -11.734  10.094  68.378  1.00  0.00     0.309 C  
HETATM   16  N   UNL     1     -11.792  11.515  68.083  1.00  0.00    -0.573 NA 
HETATM   17  C   UNL     1     -12.078  12.224  69.351  1.00  0.00    -0.176 C  
HETATM   18  C   UNL     1     -11.625  11.255  70.451  1.00  0.00    -0.319 C  
HETATM   19  H   UNL     1     -12.459  11.741  67.343  1.00  0.00     0.000 HD 
BRANCH  17  20
HETATM   20  C   UNL     1     -11.426  13.634  69.292  1.00  0.00    -0.291 C  
HETATM   21  O   UNL     1     -12.012  14.603  69.779  1.00  0.00    -0.293 OA 
HETATM   22  N   UNL     1     -10.138  13.678  68.776  1.00  0.00    -0.388 N  
HETATM   23  H   UNL     1      -9.730  12.788  68.490  1.00  0.00     0.000 HD 
BRANCH  22  24
HETATM   24  C   UNL     1      -9.331  14.830  68.603  1.00  0.00    -0.198 A  
HETATM   25  C   UNL     1      -8.134  15.054  69.293  1.00  0.00    -0.178 A  
HETATM   26  C   UNL     1      -7.374  16.207  69.068  1.00  0.00    -0.203 A  
HETATM   27  C   UNL     1      -7.805  17.165  68.158  1.00  0.00    -0.206 A  
HETATM   28  C   UNL     1      -9.015  16.975  67.483  1.00  0.00    -0.220 A  
HETATM   29  C   UNL     1      -9.522  17.969  66.506  1.00  0.00    -0.301 C  
HETATM   30  C   UNL     1      -9.762  15.801  67.692  1.00  0.00    -0.222 A  
HETATM   31  O   UNL     1      -9.214  19.247  66.812  1.00  0.00    -0.297 OA 
HETATM   32  O   UNL     1     -10.192  17.656  65.537  1.00  0.00    -0.600 OA 
ENDBRANCH  22  24
ENDBRANCH  17  20
ENDBRANCH  13  14
ENDBRANCH   3  13
BRANCH   7  33
HETATM   33  C   UNL     1      -6.308   4.490  69.383  1.00  0.00    -0.028 C  
HETATM   34  O   UNL     1      -7.555   3.808  69.256  1.00  0.00    -0.053 OA 
HETATM   35  H   UNL     1      -7.383   2.890  69.432  1.00  0.00     0.000 HD 
HETATM   36  C   UNL     1      -5.766   4.288  70.789  1.00  0.00    -0.013 C  
ENDBRANCH   7  33
TORSDOF 5
ENDMDL
MODEL      227
REMARK 921   NORMALIZED FREE ENERGY PREDICTED BY IDOCK:   -3.95 KCAL/MOL
REMARK 922        TOTAL FREE ENERGY PREDICTED BY IDOCK:   -6.79 KCAL/MOL
REMARK 923 INTER-LIGAND FREE ENERGY PREDICTED BY IDOCK:   -6.14 KCAL/MOL
REMARK 924 INTRA-LIGAND FREE ENERGY PREDICTED BY IDOCK:   -0.65 KCAL/MOL
REMARK 927      BINDING AFFINITY PREDICTED BY RF-SCORE:    0.00 PKD
ROOT
HETATM    1  C   UNL     1      -9.949  13.801  67.260  1.00  0.00    -0.239 C  
HETATM    2  C   UNL     1      -9.999  12.280  67.431  1.00  0.00    -0.205 C  
HETATM    3  C   UNL     1      -8.692  11.986  68.140  1.00  0.00    -0.177 C  
HETATM    4  C   UNL     1     -10.216  11.587  66.094  1.00  0.00    -0.272 C  
HETATM    5  O   UNL     1      -7.207  15.575  66.775  1.00  0.00    -0.165 OA 
HETATM    6  C   UNL     1      -8.016  13.125  68.391  1.00  0.00    -0.130 C  
HETATM    7  C   UNL     1      -9.415  14.540  65.992  1.00  0.00    -0.262 C  
HETATM    8  N   UNL     1      -8.704  14.248  67.949  1.00  0.00    -0.169 N  
HETATM    9  C   UNL     1      -6.728  13.262  69.141  1.00  0.00    -0.092 C  
HETATM   10  O   UNL     1      -6.301  12.434  69.929  1.00  0.00    -0.124 OA 
HETATM   11  O   UNL     1      -6.036  14.392  68.875  1.00  0.00    -0.083 OA 
HETATM   12  C   UNL     1      -8.263  14.992  66.892  1.00  0.00    -0.171 C  
ENDROOT
BRANCH   3  13
HETATM   13  S   UNL     1      -8.377  10.376  68.669  1.00  0.00    -0.135 SA 
BRANCH  13  14
HETATM   14  C   UNL     1      -9.757   9.971  69.807  1.00  0.00    -0.226 C  
HETATM   15  C   UNL     1      -9.356   9.180  71.047  1.00  0.00    -0.263 C  
HETATM   16  N   UNL     1      -9.217   7.820  70.556  1.00  0.00    -0.161 NA 
HETATM   17  C   UNL     1     -10.295   7.589  69.568  1.00  0.00    -0.216 C  
HETATM   18  C   UNL     1     -10.695   8.990  69.089  1.00  0.00    -0.176 C  
HETATM   19  H   UNL     1      -9.209   7.126  71.304  1.00  0.00     0.000 HD 
BRANCH  17  20
HETATM   20  C   UNL     1      -9.793   6.562  68.513  1.00  0.00    -0.138 C  
HETATM   21  O   UNL     1      -9.194   6.954  67.509  1.00  0.00    -0.123 OA 
HETATM   22  N   UNL     1      -9.967   5.226  68.848  1.00  0.00    -0.168 N  
HETATM   23  H   UNL     1     -10.395   5.034  69.752  1.00  0.00     0.000 HD 
BRANCH  22  24
HETATM   24  C   UNL     1      -9.610   4.100  68.063  1.00  0.00    -0.142 A  
HETATM   25  C   UNL     1      -9.146   2.893  68.597  1.00  0.00    -0.213 A  
HETATM   26  C   UNL     1      -8.822   1.813  67.769  1.00  0.00    -0.149 A  
HETATM   27  C   UNL     1      -8.944   1.925  66.389  1.00  0.00    -0.099 A  
HETATM   28  C   UNL     1      -9.376   3.135  65.835  1.00  0.00    -0.104 A  
HETATM   29  C   UNL     1      -9.518   3.308  64.369  1.00  0.00    -0.145 C  
HETATM   30  C   UNL     1      -9.727   4.209  66.672  1.00  0.00    -0.233 A  
HETATM   31  O   UNL     1      -8.613   2.617  63.642  1.00  0.00    -0.085 OA 
HETATM   32  O   UNL     1     -10.355   4.041  63.871  1.00  0.00    -0.192 OA 
ENDBRANCH  22  24
ENDBRANCH  17  20
ENDBRANCH  13  14
ENDBRANCH   3  13
BRANCH   7  33
HETATM   33  C   UNL     1     -10.359  15.582  65.427  1.00  0.00    -0.394 C  
HETATM   34  O   UNL     1     -10.636  16.502  66.483  1.00  0.00    -0.292 OA 
HETATM   35  H   UNL     1     -11.228  17.155  66.128  1.00  0.00     0.000 HD 
HETATM   36  C   UNL     1     -11.661  14.953  64.955  1.00  0.00    -0.395 C  
ENDBRANCH   7  33
TORSDOF 5
ENDMDL
MODEL      228
REMARK 921   NORMALIZED FREE ENERGY PREDICTED BY IDOCK:   -3.94 KCAL/MOL
REMARK 922        TOTAL FREE ENERGY PREDICTED BY IDOCK:   -6.78 KCAL/MOL
REMARK 923 INTER-LIGAND FREE ENERGY PREDICTED BY IDOCK:   -5.60 KCAL/MOL
REMARK 924 INTRA-LIGAND FREE ENERGY PREDICTED BY IDOCK:   -1.18 KCAL/MOL
REMARK 927      BINDING AFFINITY PREDICTED BY RF-SCORE:    0.00 PKD
ROOT
HETATM    1  C   UNL     1     -11.914  12.869  69.291  1.00  0.00    -0.260 C  
HETATM    2  C   UNL     1     -10.840  11.863  68.867  1.00  0.00    -0.261 C  
HETATM    3  C   UNL     1     -11.087  10.701  69.808  1.00  0.00    -0.295 C  
HETATM    4  C   UNL     1      -9.454  12.491  68.914  1.00  0.00     0.242 C  
HETATM    5  O   UNL     1     -13.046  13.264  72.367  1.00  0.00    -0.403 OA 
HETATM    6  C   UNL     1     -12.145  10.948  70.607  1.00  0.00    -0.371 C  
HETATM    7  C   UNL     1     -11.701  14.021  70.323  1.00  0.00    -0.308 C  
HETATM    8  N   UNL     1     -12.722  12.184  70.339  1.00  0.00     0.007 N  
HETATM    9  C   UNL     1     -12.752  10.020  71.611  1.00  0.00    -0.435 C  
HETATM   10  O   UNL     1     -12.616   8.807  71.595  1.00  0.00    -0.316 OA 
HETATM   11  O   UNL     1     -13.478  10.627  72.577  1.00  0.00    -0.086 OA 
HETATM   12  C   UNL     1     -12.644  13.221  71.225  1.00  0.00    -0.308 C  
ENDROOT
BRANCH   3  13
HETATM   13  S   UNL     1     -10.178   9.252  69.597  1.00  0.00    -0.220 SA 
BRANCH  13  14
HETATM   14  C   UNL     1      -9.826   9.169  67.799  1.00  0.00    -0.174 C  
HETATM   15  C   UNL     1     -10.563   8.064  67.051  1.00  0.00    -0.294 C  
HETATM   16  N   UNL     1      -9.801   6.868  67.367  1.00  0.00    -0.136 NA 
HETATM   17  C   UNL     1      -8.368   7.241  67.376  1.00  0.00    -0.119 C  
HETATM   18  C   UNL     1      -8.359   8.756  67.620  1.00  0.00    -0.114 C  
HETATM   19  H   UNL     1     -10.004   6.090  66.739  1.00  0.00     0.000 HD 
BRANCH  17  20
HETATM   20  C   UNL     1      -7.620   6.325  68.387  1.00  0.00    -0.096 C  
HETATM   21  O   UNL     1      -6.579   6.716  68.917  1.00  0.00    -0.047 OA 
HETATM   22  N   UNL     1      -8.265   5.138  68.709  1.00  0.00    -0.085 N  
HETATM   23  H   UNL     1      -9.169   4.975  68.268  1.00  0.00     0.000 HD 
BRANCH  22  24
HETATM   24  C   UNL     1      -7.797   4.130  69.589  1.00  0.00    -0.052 A  
HETATM   25  C   UNL     1      -7.011   3.045  69.183  1.00  0.00    -0.041 A  
HETATM   26  C   UNL     1      -6.568   2.089  70.103  1.00  0.00    -0.029 A  
HETATM   27  C   UNL     1      -6.915   2.192  71.445  1.00  0.00    -0.031 A  
HETATM   28  C   UNL     1      -7.727   3.252  71.864  1.00  0.00    -0.054 A  
HETATM   29  C   UNL     1      -8.130   3.405  73.283  1.00  0.00    -0.074 C  
HETATM   30  C   UNL     1      -8.147   4.226  70.941  1.00  0.00    -0.071 A  
HETATM   31  O   UNL     1      -8.306   2.236  73.935  1.00  0.00    -0.061 OA 
HETATM   32  O   UNL     1      -8.322   4.493  73.799  1.00  0.00    -0.103 OA 
ENDBRANCH  22  24
ENDBRANCH  17  20
ENDBRANCH  13  14
ENDBRANCH   3  13
BRANCH   7  33
HETATM   33  C   UNL     1     -12.132  15.390  69.837  1.00  0.00    -0.355 C  
HETATM   34  O   UNL     1     -13.551  15.448  69.979  1.00  0.00    -0.352 OA 
HETATM   35  H   UNL     1     -13.821  16.306  69.674  1.00  0.00     0.000 HD 
HETATM   36  C   UNL     1     -11.764  15.601  68.377  1.00  0.00    -0.301 C  
ENDBRANCH   7  33
TORSDOF 5
ENDMDL
MODEL      229
REMARK 921   NORMALIZED FREE ENERGY PREDICTED BY IDOCK:   -3.94 KCAL/MOL
REMARK 922        TOTAL FREE ENERGY PREDICTED BY IDOCK:   -6.77 KCAL/MOL
REMARK 923 INTER-LIGAND FREE ENERGY PREDICTED BY IDOCK:   -5.90 KCAL/MOL
REMARK 924 INTRA-LIGAND FREE ENERGY PREDICTED BY IDOCK:   -0.87 KCAL/MOL
REMARK 927      BINDING AFFINITY PREDICTED BY RF-SCORE:    0.00 PKD
ROOT
HETATM    1  C   UNL     1     -12.299  12.813  69.307  1.00  0.00     0.113 C  
HETATM    2  C   UNL     1     -11.192  12.096  68.530  1.00  0.00    -0.307 C  
HETATM    3  C   UNL     1     -11.075  10.776  69.267  1.00  0.00    -0.256 C  
HETATM    4  C   UNL     1      -9.932  12.948  68.462  1.00  0.00    -0.168 C  
HETATM    5  O   UNL     1     -12.855  12.514  72.547  1.00  0.00    -0.089 OA 
HETATM    6  C   UNL     1     -11.981  10.701  70.262  1.00  0.00    -0.339 C  
HETATM    7  C   UNL     1     -12.062  13.810  70.486  1.00  0.00    -0.416 C  
HETATM    8  N   UNL     1     -12.776  11.839  70.329  1.00  0.00    -0.013 N  
HETATM    9  C   UNL     1     -12.236   9.534  71.163  1.00  0.00    -0.338 C  
HETATM   10  O   UNL     1     -11.926   8.383  70.899  1.00  0.00    -0.270 OA 
HETATM   11  O   UNL     1     -12.841   9.842  72.331  1.00  0.00    -0.318 OA 
HETATM   12  C   UNL     1     -12.682  12.723  71.367  1.00  0.00    -0.255 C  
ENDROOT
BRANCH   3  13
HETATM   13  S   UNL     1     -10.019   9.566  68.642  1.00  0.00    -0.173 SA 
BRANCH  13  14
HETATM   14  C   UNL     1      -8.583   9.552  69.784  1.00  0.00    -0.192 C  
HETATM   15  C   UNL     1      -7.220   9.592  69.102  1.00  0.00    -0.067 C  
HETATM   16  N   UNL     1      -7.019   8.224  68.657  1.00  0.00    -0.066 NA 
HETATM   17  C   UNL     1      -7.548   7.328  69.710  1.00  0.00    -0.098 C  
HETATM   18  C   UNL     1      -8.550   8.189  70.490  1.00  0.00    -0.130 C  
HETATM   19  H   UNL     1      -6.047   8.024  68.416  1.00  0.00     0.000 HD 
BRANCH  17  20
HETATM   20  C   UNL     1      -8.059   6.020  69.042  1.00  0.00    -0.107 C  
HETATM   21  O   UNL     1      -8.859   5.297  69.639  1.00  0.00    -0.105 OA 
HETATM   22  N   UNL     1      -7.645   5.815  67.733  1.00  0.00    -0.085 N  
HETATM   23  H   UNL     1      -7.055   6.538  67.322  1.00  0.00     0.000 HD 
BRANCH  22  24
HETATM   24  C   UNL     1      -7.958   4.705  66.907  1.00  0.00    -0.102 A  
HETATM   25  C   UNL     1      -7.251   3.498  66.925  1.00  0.00    -0.063 A  
HETATM   26  C   UNL     1      -7.617   2.433  66.094  1.00  0.00    -0.068 A  
HETATM   27  C   UNL     1      -8.691   2.562  65.220  1.00  0.00    -0.116 A  
HETATM   28  C   UNL     1      -9.389   3.773  65.166  1.00  0.00    -0.157 A  
HETATM   29  C   UNL     1     -10.538   3.964  64.248  1.00  0.00    -0.223 C  
HETATM   30  C   UNL     1      -9.035   4.831  66.023  1.00  0.00    -0.126 A  
HETATM   31  O   UNL     1     -10.427   3.296  63.080  1.00  0.00    -0.161 OA 
HETATM   32  O   UNL     1     -11.479   4.692  64.514  1.00  0.00     0.100 OA 
ENDBRANCH  22  24
ENDBRANCH  17  20
ENDBRANCH  13  14
ENDBRANCH   3  13
BRANCH   7  33
HETATM   33  C   UNL     1     -12.779  15.138  70.342  1.00  0.00    -0.333 C  
HETATM   34  O   UNL     1     -11.769  16.144  70.275  1.00  0.00    -0.370 OA 
HETATM   35  H   UNL     1     -12.218  16.976  70.185  1.00  0.00     0.000 HD 
HETATM   36  C   UNL     1     -13.683  15.411  71.534  1.00  0.00    -0.601 C  
ENDBRANCH   7  33
TORSDOF 5
ENDMDL
MODEL      230
REMARK 921   NORMALIZED FREE ENERGY PREDICTED BY IDOCK:   -3.94 KCAL/MOL
REMARK 922        TOTAL FREE ENERGY PREDICTED BY IDOCK:   -6.77 KCAL/MOL
REMARK 923 INTER-LIGAND FREE ENERGY PREDICTED BY IDOCK:   -5.50 KCAL/MOL
REMARK 924 INTRA-LIGAND FREE ENERGY PREDICTED BY IDOCK:   -1.27 KCAL/MOL
REMARK 927      BINDING AFFINITY PREDICTED BY RF-SCORE:    0.00 PKD
ROOT
HETATM    1  C   UNL     1     -10.696  14.000  69.460  1.00  0.00     0.027 C  
HETATM    2  C   UNL     1     -10.582  12.634  68.778  1.00  0.00    -0.214 C  
HETATM    3  C   UNL     1      -9.305  12.774  67.974  1.00  0.00    -0.213 C  
HETATM    4  C   UNL     1     -11.845  12.309  67.992  1.00  0.00    -0.368 C  
HETATM    5  O   UNL     1      -9.698  16.868  68.165  1.00  0.00    -0.241 OA 
HETATM    6  C   UNL     1      -8.737  13.979  68.183  1.00  0.00    -0.180 C  
HETATM    7  C   UNL     1     -11.507  15.212  68.903  1.00  0.00    -0.337 C  
HETATM    8  N   UNL     1      -9.465  14.749  69.081  1.00  0.00    -0.158 N  
HETATM    9  C   UNL     1      -7.432  14.467  67.637  1.00  0.00    -0.175 C  
HETATM   10  O   UNL     1      -6.540  13.737  67.235  1.00  0.00    -0.259 OA 
HETATM   11  O   UNL     1      -7.299  15.811  67.604  1.00  0.00    -0.135 OA 
HETATM   12  C   UNL     1     -10.142  15.868  68.686  1.00  0.00    -0.216 C  
ENDROOT
BRANCH   3  13
HETATM   13  S   UNL     1      -8.697  11.398  67.133  1.00  0.00    -0.160 SA 
BRANCH  13  14
HETATM   14  C   UNL     1      -9.004  11.751  65.360  1.00  0.00     0.158 C  
HETATM   15  C   UNL     1     -10.371  11.313  64.846  1.00  0.00    -0.304 C  
HETATM   16  N   UNL     1     -10.222   9.882  64.648  1.00  0.00    -0.306 NA 
HETATM   17  C   UNL     1      -8.864   9.644  64.108  1.00  0.00    -0.226 C  
HETATM   18  C   UNL     1      -8.053  10.877  64.529  1.00  0.00     0.254 C  
HETATM   19  H   UNL     1     -10.957   9.483  64.063  1.00  0.00     0.000 HD 
BRANCH  17  20
HETATM   20  C   UNL     1      -8.378   8.244  64.578  1.00  0.00    -0.087 C  
HETATM   21  O   UNL     1      -7.322   7.781  64.143  1.00  0.00    -0.078 OA 
HETATM   22  N   UNL     1      -9.142   7.648  65.573  1.00  0.00    -0.387 N  
HETATM   23  H   UNL     1      -9.943   8.178  65.913  1.00  0.00     0.000 HD 
BRANCH  22  24
HETATM   24  C   UNL     1      -8.924   6.378  66.164  1.00  0.00    -0.150 A  
HETATM   25  C   UNL     1      -9.096   5.164  65.489  1.00  0.00    -0.157 A  
HETATM   26  C   UNL     1      -8.852   3.942  66.125  1.00  0.00    -0.124 A  
HETATM   27  C   UNL     1      -8.443   3.911  67.453  1.00  0.00    -0.103 A  
HETATM   28  C   UNL     1      -8.297   5.113  68.154  1.00  0.00    -0.097 A  
HETATM   29  C   UNL     1      -7.868   5.136  69.574  1.00  0.00    -0.076 C  
HETATM   30  C   UNL     1      -8.517   6.341  67.503  1.00  0.00    -0.108 A  
HETATM   31  O   UNL     1      -8.305   4.082  70.297  1.00  0.00    -0.060 OA 
HETATM   32  O   UNL     1      -7.213   6.047  70.049  1.00  0.00    -0.069 OA 
ENDBRANCH  22  24
ENDBRANCH  17  20
ENDBRANCH  13  14
ENDBRANCH   3  13
BRANCH   7  33
HETATM   33  C   UNL     1     -12.473  15.834  69.893  1.00  0.00    -0.085 C  
HETATM   34  O   UNL     1     -11.702  16.691  70.734  1.00  0.00    -0.478 OA 
HETATM   35  H   UNL     1     -12.307  17.080  71.355  1.00  0.00     0.000 HD 
HETATM   36  C   UNL     1     -13.153  14.773  70.744  1.00  0.00    -0.389 C  
ENDBRANCH   7  33
TORSDOF 5
ENDMDL
MODEL      231
REMARK 921   NORMALIZED FREE ENERGY PREDICTED BY IDOCK:   -3.91 KCAL/MOL
REMARK 922        TOTAL FREE ENERGY PREDICTED BY IDOCK:   -6.74 KCAL/MOL
REMARK 923 INTER-LIGAND FREE ENERGY PREDICTED BY IDOCK:   -5.74 KCAL/MOL
REMARK 924 INTRA-LIGAND FREE ENERGY PREDICTED BY IDOCK:   -1.00 KCAL/MOL
REMARK 927      BINDING AFFINITY PREDICTED BY RF-SCORE:    0.00 PKD
ROOT
HETATM    1  C   UNL     1      -7.555   5.338  66.557  1.00  0.00    -0.088 C  
HETATM    2  C   UNL     1      -7.655   6.739  67.166  1.00  0.00    -0.099 C  
HETATM    3  C   UNL     1      -7.936   6.445  68.625  1.00  0.00    -0.106 C  
HETATM    4  C   UNL     1      -8.690   7.581  66.432  1.00  0.00    -0.158 C  
HETATM    5  O   UNL     1      -9.271   2.700  67.555  1.00  0.00    -0.170 OA 
HETATM    6  C   UNL     1      -7.948   5.116  68.853  1.00  0.00    -0.085 C  
HETATM    7  C   UNL     1      -8.738   4.569  65.887  1.00  0.00    -0.119 C  
HETATM    8  N   UNL     1      -7.686   4.388  67.698  1.00  0.00    -0.084 N  
HETATM    9  C   UNL     1      -8.111   4.428  70.171  1.00  0.00    -0.059 C  
HETATM   10  O   UNL     1      -7.894   4.954  71.251  1.00  0.00    -0.087 OA 
HETATM   11  O   UNL     1      -8.537   3.148  70.094  1.00  0.00    -0.054 OA 
HETATM   12  C   UNL     1      -8.647   3.630  67.092  1.00  0.00    -0.108 C  
ENDROOT
BRANCH   3  13
HETATM   13  S   UNL     1      -7.990   7.756  69.743  1.00  0.00    -0.117 SA 
BRANCH  13  14
HETATM   14  C   UNL     1      -9.608   7.591  70.591  1.00  0.00    -0.171 C  
HETATM   15  C   UNL     1     -10.703   6.928  69.762  1.00  0.00    -0.244 C  
HETATM   16  N   UNL     1     -11.152   7.988  68.876  1.00  0.00    -0.407 NA 
HETATM   17  C   UNL     1     -11.156   9.248  69.652  1.00  0.00    -0.116 C  
HETATM   18  C   UNL     1     -10.178   9.000  70.808  1.00  0.00    -0.305 C  
HETATM   19  H   UNL     1     -12.053   7.787  68.441  1.00  0.00     0.000 HD 
BRANCH  17  20
HETATM   20  C   UNL     1     -10.870  10.432  68.684  1.00  0.00    -0.232 C  
HETATM   21  O   UNL     1     -11.541  10.562  67.658  1.00  0.00    -0.447 OA 
HETATM   22  N   UNL     1      -9.922  11.347  69.120  1.00  0.00    -0.416 N  
HETATM   23  H   UNL     1      -9.504  11.172  70.033  1.00  0.00     0.000 HD 
BRANCH  22  24
HETATM   24  C   UNL     1      -9.473  12.500  68.427  1.00  0.00    -0.167 A  
HETATM   25  C   UNL     1      -8.429  12.492  67.496  1.00  0.00    -0.177 A  
HETATM   26  C   UNL     1      -8.041  13.662  66.834  1.00  0.00     0.113 A  
HETATM   27  C   UNL     1      -8.683  14.866  67.102  1.00  0.00    -0.240 A  
HETATM   28  C   UNL     1      -9.708  14.899  68.054  1.00  0.00    -0.212 A  
HETATM   29  C   UNL     1     -10.421  16.158  68.381  1.00  0.00    -0.274 C  
HETATM   30  C   UNL     1     -10.113  13.715  68.696  1.00  0.00    -0.182 A  
HETATM   31  O   UNL     1      -9.648  17.263  68.309  1.00  0.00    -0.267 OA 
HETATM   32  O   UNL     1     -11.591  16.182  68.722  1.00  0.00    -0.368 OA 
ENDBRANCH  22  24
ENDBRANCH  17  20
ENDBRANCH  13  14
ENDBRANCH   3  13
BRANCH   7  33
HETATM   33  C   UNL     1      -8.433   4.024  64.506  1.00  0.00    -0.104 C  
HETATM   34  O   UNL     1      -7.196   3.319  64.606  1.00  0.00    -0.059 OA 
HETATM   35  H   UNL     1      -7.005   2.978  63.740  1.00  0.00     0.000 HD 
HETATM   36  C   UNL     1      -8.291   5.144  63.487  1.00  0.00    -0.128 C  
ENDBRANCH   7  33
TORSDOF 5
ENDMDL
MODEL      232
REMARK 921   NORMALIZED FREE ENERGY PREDICTED BY IDOCK:   -3.91 KCAL/MOL
REMARK 922        TOTAL FREE ENERGY PREDICTED BY IDOCK:   -6.74 KCAL/MOL
REMARK 923 INTER-LIGAND FREE ENERGY PREDICTED BY IDOCK:   -5.22 KCAL/MOL
REMARK 924 INTRA-LIGAND FREE ENERGY PREDICTED BY IDOCK:   -1.52 KCAL/MOL
REMARK 927      BINDING AFFINITY PREDICTED BY RF-SCORE:    0.00 PKD
ROOT
HETATM    1  C   UNL     1      -8.631   5.728  67.202  1.00  0.00    -0.109 C  
HETATM    2  C   UNL     1      -8.587   6.636  68.435  1.00  0.00    -0.124 C  
HETATM    3  C   UNL     1      -8.544   8.021  67.822  1.00  0.00    -0.128 C  
HETATM    4  C   UNL     1      -7.427   6.262  69.347  1.00  0.00    -0.093 C  
HETATM    5  O   UNL     1      -7.166   6.365  64.313  1.00  0.00    -0.057 OA 
HETATM    6  C   UNL     1      -8.605   7.952  66.477  1.00  0.00    -0.142 C  
HETATM    7  C   UNL     1      -7.382   5.085  66.521  1.00  0.00    -0.086 C  
HETATM    8  N   UNL     1      -8.706   6.641  66.027  1.00  0.00    -0.148 N  
HETATM    9  C   UNL     1      -8.668   9.098  65.517  1.00  0.00    -0.181 C  
HETATM   10  O   UNL     1      -9.034  10.224  65.815  1.00  0.00    -0.151 OA 
HETATM   11  O   UNL     1      -8.271   8.806  64.259  1.00  0.00    -0.154 OA 
HETATM   12  C   UNL     1      -7.684   6.030  65.356  1.00  0.00    -0.091 C  
ENDROOT
BRANCH   3  13
HETATM   13  S   UNL     1      -8.625   9.393  68.861  1.00  0.00    -0.134 SA 
BRANCH  13  14
HETATM   14  C   UNL     1     -10.389   9.516  69.349  1.00  0.00    -0.214 C  
HETATM   15  C   UNL     1     -11.383   9.398  68.199  1.00  0.00     0.408 C  
HETATM   16  N   UNL     1     -11.349  10.711  67.579  1.00  0.00    -0.447 NA 
HETATM   17  C   UNL     1     -11.239  11.714  68.663  1.00  0.00    -0.250 C  
HETATM   18  C   UNL     1     -10.647  10.944  69.850  1.00  0.00    -0.042 C  
HETATM   19  H   UNL     1     -12.144  10.880  66.962  1.00  0.00     0.000 HD 
BRANCH  17  20
HETATM   20  C   UNL     1     -10.465  12.950  68.122  1.00  0.00    -0.237 C  
HETATM   21  O   UNL     1      -9.879  12.883  67.039  1.00  0.00    -0.224 OA 
HETATM   22  N   UNL     1     -10.589  14.110  68.874  1.00  0.00    -0.247 N  
HETATM   23  H   UNL     1     -11.179  14.056  69.703  1.00  0.00     0.000 HD 
BRANCH  22  24
HETATM   24  C   UNL     1      -9.980  15.363  68.608  1.00  0.00    -0.210 A  
HETATM   25  C   UNL     1     -10.665  16.468  68.090  1.00  0.00    -0.343 A  
HETATM   26  C   UNL     1     -10.010  17.683  67.862  1.00  0.00    -0.323 A  
HETATM   27  C   UNL     1      -8.653  17.811  68.137  1.00  0.00    -0.262 A  
HETATM   28  C   UNL     1      -7.945  16.708  68.625  1.00  0.00    -0.236 A  
HETATM   29  C   UNL     1      -6.496  16.791  68.930  1.00  0.00    -0.178 C  
HETATM   30  C   UNL     1      -8.613  15.496  68.879  1.00  0.00    -0.209 A  
HETATM   31  O   UNL     1      -5.808  17.617  68.113  1.00  0.00    -0.151 OA 
HETATM   32  O   UNL     1      -5.971  16.138  69.816  1.00  0.00    -0.159 OA 
ENDBRANCH  22  24
ENDBRANCH  17  20
ENDBRANCH  13  14
ENDBRANCH   3  13
BRANCH   7  33
HETATM   33  C   UNL     1      -7.485   3.589  66.301  1.00  0.00    -0.077 C  
HETATM   34  O   UNL     1      -7.224   3.360  64.916  1.00  0.00    -0.063 OA 
HETATM   35  H   UNL     1      -7.289   2.422  64.778  1.00  0.00     0.000 HD 
HETATM   36  C   UNL     1      -8.874   3.073  66.643  1.00  0.00    -0.155 C  
ENDBRANCH   7  33
TORSDOF 5
ENDMDL
MODEL      233
REMARK 921   NORMALIZED FREE ENERGY PREDICTED BY IDOCK:   -3.88 KCAL/MOL
REMARK 922        TOTAL FREE ENERGY PREDICTED BY IDOCK:   -6.70 KCAL/MOL
REMARK 923 INTER-LIGAND FREE ENERGY PREDICTED BY IDOCK:   -5.90 KCAL/MOL
REMARK 924 INTRA-LIGAND FREE ENERGY PREDICTED BY IDOCK:   -0.80 KCAL/MOL
REMARK 927      BINDING AFFINITY PREDICTED BY RF-SCORE:    0.00 PKD
ROOT
HETATM    1  C   UNL     1      -8.161   6.281  68.193  1.00  0.00    -0.115 C  
HETATM    2  C   UNL     1      -9.238   7.322  68.511  1.00  0.00    -0.138 C  
HETATM    3  C   UNL     1      -9.073   7.521  70.005  1.00  0.00    -0.148 C  
HETATM    4  C   UNL     1     -10.607   6.855  68.037  1.00  0.00    -0.273 C  
HETATM    5  O   UNL     1      -7.183   3.870  70.225  1.00  0.00    -0.041 OA 
HETATM    6  C   UNL     1      -8.052   6.777  70.477  1.00  0.00    -0.116 C  
HETATM    7  C   UNL     1      -8.398   4.738  68.144  1.00  0.00    -0.098 C  
HETATM    8  N   UNL     1      -7.428   6.050  69.470  1.00  0.00    -0.085 N  
HETATM    9  C   UNL     1      -7.524   6.757  71.876  1.00  0.00    -0.093 C  
HETATM   10  O   UNL     1      -7.692   7.654  72.687  1.00  0.00    -0.087 OA 
HETATM   11  O   UNL     1      -6.834   5.642  72.205  1.00  0.00    -0.068 OA 
HETATM   12  C   UNL     1      -7.525   4.689  69.400  1.00  0.00    -0.052 C  
ENDROOT
BRANCH   3  13
HETATM   13  S   UNL     1     -10.008   8.737  70.790  1.00  0.00    -0.231 SA 
BRANCH  13  14
HETATM   14  C   UNL     1     -11.344   7.823  71.655  1.00  0.00    -0.253 C  
HETATM   15  C   UNL     1     -12.574   7.527  70.804  1.00  0.00     0.005 C  
HETATM   16  N   UNL     1     -13.294   8.788  70.791  1.00  0.00    -0.314 NA 
HETATM   17  C   UNL     1     -13.172   9.387  72.140  1.00  0.00    -0.460 C  
HETATM   18  C   UNL     1     -11.920   8.740  72.744  1.00  0.00     0.026 C  
HETATM   19  H   UNL     1     -14.264   8.689  70.487  1.00  0.00     0.000 HD 
BRANCH  17  20
HETATM   20  C   UNL     1     -13.213  10.936  72.004  1.00  0.00    -0.351 C  
HETATM   21  O   UNL     1     -13.880  11.605  72.795  1.00  0.00     0.479 OA 
HETATM   22  N   UNL     1     -12.376  11.474  71.035  1.00  0.00    -0.361 N  
HETATM   23  H   UNL     1     -11.805  10.815  70.507  1.00  0.00     0.000 HD 
BRANCH  22  24
HETATM   24  C   UNL     1     -12.233  12.845  70.704  1.00  0.00    -0.302 A  
HETATM   25  C   UNL     1     -12.002  13.312  69.405  1.00  0.00    -0.356 A  
HETATM   26  C   UNL     1     -11.883  14.681  69.140  1.00  0.00    -0.347 A  
HETATM   27  C   UNL     1     -11.981  15.607  70.172  1.00  0.00    -0.387 A  
HETATM   28  C   UNL     1     -12.179  15.156  71.481  1.00  0.00    -0.404 A  
HETATM   29  C   UNL     1     -12.285  16.103  72.618  1.00  0.00    -0.532 C  
HETATM   30  C   UNL     1     -12.326  13.782  71.740  1.00  0.00    -0.154 A  
HETATM   31  O   UNL     1     -11.522  17.210  72.486  1.00  0.00     0.118 OA 
HETATM   32  O   UNL     1     -12.970  15.877  73.601  1.00  0.00    -0.532 OA 
ENDBRANCH  22  24
ENDBRANCH  17  20
ENDBRANCH  13  14
ENDBRANCH   3  13
BRANCH   7  33
HETATM   33  C   UNL     1      -7.904   4.065  66.879  1.00  0.00    -0.096 C  
HETATM   34  O   UNL     1      -6.668   3.432  67.206  1.00  0.00    -0.044 OA 
HETATM   35  H   UNL     1      -6.358   3.011  66.413  1.00  0.00     0.000 HD 
HETATM   36  C   UNL     1      -7.672   5.077  65.767  1.00  0.00    -0.091 C  
ENDBRANCH   7  33
TORSDOF 5
ENDMDL
MODEL      234
REMARK 921   NORMALIZED FREE ENERGY PREDICTED BY IDOCK:   -3.87 KCAL/MOL
REMARK 922        TOTAL FREE ENERGY PREDICTED BY IDOCK:   -6.69 KCAL/MOL
REMARK 923 INTER-LIGAND FREE ENERGY PREDICTED BY IDOCK:   -4.88 KCAL/MOL
REMARK 924 INTRA-LIGAND FREE ENERGY PREDICTED BY IDOCK:   -1.81 KCAL/MOL
REMARK 927      BINDING AFFINITY PREDICTED BY RF-SCORE:    0.00 PKD
ROOT
HETATM    1  C   UNL     1     -10.558  12.185  67.202  1.00  0.00    -0.226 C  
HETATM    2  C   UNL     1      -9.065  11.949  66.959  1.00  0.00    -0.191 C  
HETATM    3  C   UNL     1      -8.899  10.488  67.326  1.00  0.00    -0.136 C  
HETATM    4  C   UNL     1      -8.220  12.945  67.741  1.00  0.00    -0.174 C  
HETATM    5  O   UNL     1     -12.366  10.707  69.536  1.00  0.00    -0.263 OA 
HETATM    6  C   UNL     1     -10.083   9.943  67.672  1.00  0.00    -0.197 C  
HETATM    7  C   UNL     1     -11.171  12.736  68.529  1.00  0.00    -0.314 C  
HETATM    8  N   UNL     1     -11.124  10.860  67.583  1.00  0.00    -0.295 N  
HETATM    9  C   UNL     1     -10.349   8.513  68.020  1.00  0.00    -0.217 C  
HETATM   10  O   UNL     1      -9.630   7.581  67.695  1.00  0.00    -0.138 OA 
HETATM   11  O   UNL     1     -11.467   8.306  68.751  1.00  0.00     0.585 OA 
HETATM   12  C   UNL     1     -11.762  11.334  68.694  1.00  0.00    -0.324 C  
ENDROOT
BRANCH   3  13
HETATM   13  S   UNL     1      -7.370   9.734  67.069  1.00  0.00    -0.091 SA 
BRANCH  13  14
HETATM   14  C   UNL     1      -7.233   9.546  65.250  1.00  0.00    -0.104 C  
HETATM   15  C   UNL     1      -8.512   9.096  64.553  1.00  0.00    -0.180 C  
HETATM   16  N   UNL     1      -8.557   7.666  64.807  1.00  0.00    -0.376 NA 
HETATM   17  C   UNL     1      -7.171   7.152  64.714  1.00  0.00    -0.072 C  
HETATM   18  C   UNL     1      -6.281   8.377  64.962  1.00  0.00    -0.052 C  
HETATM   19  H   UNL     1      -9.205   7.173  64.192  1.00  0.00     0.000 HD 
BRANCH  17  20
HETATM   20  C   UNL     1      -7.028   5.929  65.663  1.00  0.00    -0.068 C  
HETATM   21  O   UNL     1      -5.931   5.657  66.154  1.00  0.00    -0.021 OA 
HETATM   22  N   UNL     1      -8.212   5.278  65.984  1.00  0.00    -0.113 N  
HETATM   23  H   UNL     1      -9.067   5.660  65.582  1.00  0.00     0.000 HD 
BRANCH  22  24
HETATM   24  C   UNL     1      -8.355   4.137  66.814  1.00  0.00    -0.101 A  
HETATM   25  C   UNL     1      -8.644   2.855  66.333  1.00  0.00    -0.116 A  
HETATM   26  C   UNL     1      -8.760   1.766  67.202  1.00  0.00    -0.125 A  
HETATM   27  C   UNL     1      -8.603   1.941  68.573  1.00  0.00    -0.095 A  
HETATM   28  C   UNL     1      -8.346   3.221  69.075  1.00  0.00    -0.083 A  
HETATM   29  C   UNL     1      -8.175   3.463  70.528  1.00  0.00    -0.052 C  
HETATM   30  C   UNL     1      -8.202   4.309  68.194  1.00  0.00    -0.093 A  
HETATM   31  O   UNL     1      -8.930   2.664  71.312  1.00  0.00    -0.076 OA 
HETATM   32  O   UNL     1      -7.446   4.335  70.969  1.00  0.00    -0.046 OA 
ENDBRANCH  22  24
ENDBRANCH  17  20
ENDBRANCH  13  14
ENDBRANCH   3  13
BRANCH   7  33
HETATM   33  C   UNL     1     -12.108  13.913  68.349  1.00  0.00    -0.291 C  
HETATM   34  O   UNL     1     -12.483  13.932  66.972  1.00  0.00    -0.483 OA 
HETATM   35  H   UNL     1     -13.071  14.671  66.859  1.00  0.00     0.000 HD 
HETATM   36  C   UNL     1     -11.425  15.225  68.703  1.00  0.00    -0.350 C  
ENDBRANCH   7  33
TORSDOF 5
ENDMDL
MODEL      235
REMARK 921   NORMALIZED FREE ENERGY PREDICTED BY IDOCK:   -3.81 KCAL/MOL
REMARK 922        TOTAL FREE ENERGY PREDICTED BY IDOCK:   -6.61 KCAL/MOL
REMARK 923 INTER-LIGAND FREE ENERGY PREDICTED BY IDOCK:   -5.37 KCAL/MOL
REMARK 924 INTRA-LIGAND FREE ENERGY PREDICTED BY IDOCK:   -1.24 KCAL/MOL
REMARK 927      BINDING AFFINITY PREDICTED BY RF-SCORE:    0.00 PKD
ROOT
HETATM    1  C   UNL     1      -9.681  13.687  66.108  1.00  0.00    -0.255 C  
HETATM    2  C   UNL     1      -8.398  13.383  66.885  1.00  0.00    -0.013 C  
HETATM    3  C   UNL     1      -8.770  12.135  67.660  1.00  0.00    -0.172 C  
HETATM    4  C   UNL     1      -7.959  14.587  67.708  1.00  0.00    -0.168 C  
HETATM    5  O   UNL     1     -12.746  13.093  67.182  1.00  0.00     0.050 OA 
HETATM    6  C   UNL     1     -10.024  11.741  67.359  1.00  0.00    -0.184 C  
HETATM    7  C   UNL     1     -10.807  14.658  66.587  1.00  0.00    -0.312 C  
HETATM    8  N   UNL     1     -10.619  12.571  66.417  1.00  0.00    -0.244 N  
HETATM    9  C   UNL     1     -10.726  10.515  67.852  1.00  0.00    -0.260 C  
HETATM   10  O   UNL     1     -10.158   9.529  68.294  1.00  0.00    -0.169 OA 
HETATM   11  O   UNL     1     -12.075  10.570  67.787  1.00  0.00     0.037 OA 
HETATM   12  C   UNL     1     -11.659  13.396  66.740  1.00  0.00    -0.365 C  
ENDROOT
BRANCH   3  13
HETATM   13  S   UNL     1      -7.556  11.340  68.589  1.00  0.00    -0.135 SA 
BRANCH  13  14
HETATM   14  C   UNL     1      -6.368  10.684  67.356  1.00  0.00    -0.058 C  
HETATM   15  C   UNL     1      -6.936  10.493  65.955  1.00  0.00    -0.131 C  
HETATM   16  N   UNL     1      -7.686   9.253  66.054  1.00  0.00    -0.095 NA 
HETATM   17  C   UNL     1      -6.915   8.332  66.918  1.00  0.00    -0.070 C  
HETATM   18  C   UNL     1      -6.011   9.245  67.757  1.00  0.00    -0.053 C  
HETATM   19  H   UNL     1      -7.909   8.850  65.143  1.00  0.00     0.000 HD 
BRANCH  17  20
HETATM   20  C   UNL     1      -7.909   7.392  67.659  1.00  0.00    -0.113 C  
HETATM   21  O   UNL     1      -8.547   6.550  67.024  1.00  0.00    -0.112 OA 
HETATM   22  N   UNL     1      -7.920   7.504  69.043  1.00  0.00    -0.120 N  
HETATM   23  H   UNL     1      -7.275   8.179  69.452  1.00  0.00     0.000 HD 
BRANCH  22  24
HETATM   24  C   UNL     1      -8.736   6.777  69.946  1.00  0.00    -0.141 A  
HETATM   25  C   UNL     1      -9.550   7.374  70.914  1.00  0.00    -0.166 A  
HETATM   26  C   UNL     1     -10.344   6.601  71.769  1.00  0.00    -0.218 A  
HETATM   27  C   UNL     1     -10.327   5.214  71.679  1.00  0.00    -0.274 A  
HETATM   28  C   UNL     1      -9.494   4.598  70.739  1.00  0.00    -0.235 A  
HETATM   29  C   UNL     1      -9.435   3.122  70.606  1.00  0.00    -0.163 C  
HETATM   30  C   UNL     1      -8.719   5.380  69.863  1.00  0.00    -0.128 A  
HETATM   31  O   UNL     1      -9.602   2.457  71.770  1.00  0.00    -0.115 OA 
HETATM   32  O   UNL     1      -9.216   2.565  69.544  1.00  0.00    -0.110 OA 
ENDBRANCH  22  24
ENDBRANCH  17  20
ENDBRANCH  13  14
ENDBRANCH   3  13
BRANCH   7  33
HETATM   33  C   UNL     1     -11.216  15.702  65.568  1.00  0.00    -0.140 C  
HETATM   34  O   UNL     1     -10.701  15.270  64.308  1.00  0.00    -0.520 OA 
HETATM   35  H   UNL     1     -10.956  15.925  63.669  1.00  0.00     0.000 HD 
HETATM   36  C   UNL     1     -10.633  17.065  65.907  1.00  0.00    -0.221 C  
ENDBRANCH   7  33
TORSDOF 5
ENDMDL
MODEL      236
REMARK 921   NORMALIZED FREE ENERGY PREDICTED BY IDOCK:   -3.80 KCAL/MOL
REMARK 922        TOTAL FREE ENERGY PREDICTED BY IDOCK:   -6.60 KCAL/MOL
REMARK 923 INTER-LIGAND FREE ENERGY PREDICTED BY IDOCK:   -5.25 KCAL/MOL
REMARK 924 INTRA-LIGAND FREE ENERGY PREDICTED BY IDOCK:   -1.34 KCAL/MOL
REMARK 927      BINDING AFFINITY PREDICTED BY RF-SCORE:    0.00 PKD
ROOT
HETATM    1  C   UNL     1      -9.898  11.743  69.040  1.00  0.00     0.100 C  
HETATM    2  C   UNL     1     -10.872  10.943  69.908  1.00  0.00    -0.205 C  
HETATM    3  C   UNL     1     -10.341   9.529  69.781  1.00  0.00    -0.230 C  
HETATM    4  C   UNL     1     -12.312  11.169  69.467  1.00  0.00    -0.262 C  
HETATM    5  O   UNL     1      -8.419  10.624  66.309  1.00  0.00    -0.144 OA 
HETATM    6  C   UNL     1      -9.228   9.502  69.021  1.00  0.00    -0.155 C  
HETATM    7  C   UNL     1     -10.123  12.091  67.534  1.00  0.00    -0.205 C  
HETATM    8  N   UNL     1      -8.867  10.770  68.580  1.00  0.00    -0.146 N  
HETATM    9  C   UNL     1      -8.367   8.315  68.726  1.00  0.00    -0.124 C  
HETATM   10  O   UNL     1      -8.336   7.302  69.407  1.00  0.00    -0.130 OA 
HETATM   11  O   UNL     1      -7.605   8.430  67.615  1.00  0.00    -0.095 OA 
HETATM   12  C   UNL     1      -8.964  11.128  67.266  1.00  0.00    -0.147 C  
ENDROOT
BRANCH   3  13
HETATM   13  S   UNL     1     -11.064   8.281  70.725  1.00  0.00    -0.259 SA 
BRANCH  13  14
HETATM   14  C   UNL     1     -10.440   8.552  72.428  1.00  0.00    -0.297 C  
HETATM   15  C   UNL     1      -8.926   8.684  72.544  1.00  0.00    -0.093 C  
HETATM   16  N   UNL     1      -8.455   7.311  72.473  1.00  0.00    -0.107 NA 
HETATM   17  C   UNL     1      -9.414   6.470  73.225  1.00  0.00    -0.143 C  
HETATM   18  C   UNL     1     -10.716   7.281  73.244  1.00  0.00    -0.428 C  
HETATM   19  H   UNL     1      -7.494   7.204  72.797  1.00  0.00     0.000 HD 
BRANCH  17  20
HETATM   20  C   UNL     1      -9.435   5.050  72.592  1.00  0.00    -0.140 C  
HETATM   21  O   UNL     1      -9.790   4.081  73.266  1.00  0.00    -0.123 OA 
HETATM   22  N   UNL     1      -9.149   4.995  71.235  1.00  0.00    -0.140 N  
HETATM   23  H   UNL     1      -8.960   5.883  70.771  1.00  0.00     0.000 HD 
BRANCH  22  24
HETATM   24  C   UNL     1      -9.092   3.833  70.425  1.00  0.00    -0.125 A  
HETATM   25  C   UNL     1      -9.601   2.588  70.812  1.00  0.00    -0.175 A  
HETATM   26  C   UNL     1      -9.526   1.480  69.961  1.00  0.00    -0.145 A  
HETATM   27  C   UNL     1      -8.927   1.593  68.712  1.00  0.00    -0.151 A  
HETATM   28  C   UNL     1      -8.383   2.822  68.321  1.00  0.00    -0.088 A  
HETATM   29  C   UNL     1      -7.730   2.994  67.001  1.00  0.00    -0.075 C  
HETATM   30  C   UNL     1      -8.486   3.940  69.168  1.00  0.00    -0.102 A  
HETATM   31  O   UNL     1      -7.079   1.896  66.561  1.00  0.00    -0.046 OA 
HETATM   32  O   UNL     1      -7.748   4.049  66.390  1.00  0.00    -0.088 OA 
ENDBRANCH  22  24
ENDBRANCH  17  20
ENDBRANCH  13  14
ENDBRANCH   3  13
BRANCH   7  33
HETATM   33  C   UNL     1      -9.955  13.559  67.194  1.00  0.00    -0.246 C  
HETATM   34  O   UNL     1     -11.085  14.239  67.740  1.00  0.00    -0.265 OA 
HETATM   35  H   UNL     1     -10.979  15.159  67.527  1.00  0.00     0.000 HD 
HETATM   36  C   UNL     1      -9.915  13.778  65.690  1.00  0.00    -0.275 C  
ENDBRANCH   7  33
TORSDOF 5
ENDMDL
MODEL      237
REMARK 921   NORMALIZED FREE ENERGY PREDICTED BY IDOCK:   -3.75 KCAL/MOL
REMARK 922        TOTAL FREE ENERGY PREDICTED BY IDOCK:   -6.52 KCAL/MOL
REMARK 923 INTER-LIGAND FREE ENERGY PREDICTED BY IDOCK:   -5.70 KCAL/MOL
REMARK 924 INTRA-LIGAND FREE ENERGY PREDICTED BY IDOCK:   -0.82 KCAL/MOL
REMARK 927      BINDING AFFINITY PREDICTED BY RF-SCORE:    0.00 PKD
ROOT
HETATM    1  C   UNL     1      -9.533  16.207  67.618  1.00  0.00    -0.220 C  
HETATM    2  C   UNL     1      -9.202  15.065  68.582  1.00  0.00    -0.198 C  
HETATM    3  C   UNL     1      -7.837  15.462  69.106  1.00  0.00    -0.212 C  
HETATM    4  C   UNL     1      -9.293  13.715  67.882  1.00  0.00    -0.206 C  
HETATM    5  O   UNL     1      -7.332  17.869  65.805  1.00  0.00    -0.500 OA 
HETATM    6  C   UNL     1      -7.452  16.647  68.591  1.00  0.00    -0.211 C  
HETATM    7  C   UNL     1      -9.246  16.192  66.083  1.00  0.00    -0.382 C  
HETATM    8  N   UNL     1      -8.412  17.181  67.739  1.00  0.00    -0.204 N  
HETATM    9  C   UNL     1      -6.210  17.412  68.921  1.00  0.00    -0.198 C  
HETATM   10  O   UNL     1      -5.563  17.263  69.945  1.00  0.00    -0.204 OA 
HETATM   11  O   UNL     1      -5.827  18.303  67.980  1.00  0.00    -0.163 OA 
HETATM   12  C   UNL     1      -8.207  17.271  66.392  1.00  0.00    -0.282 C  
ENDROOT
BRANCH   3  13
HETATM   13  S   UNL     1      -7.117  14.514  70.353  1.00  0.00     0.562 SA 
BRANCH  13  14
HETATM   14  C   UNL     1      -5.550  13.890  69.631  1.00  0.00    -0.092 C  
HETATM   15  C   UNL     1      -5.533  13.808  68.109  1.00  0.00    -0.116 C  
HETATM   16  N   UNL     1      -6.277  12.593  67.822  1.00  0.00    -0.114 NA 
HETATM   17  C   UNL     1      -5.911  11.592  68.849  1.00  0.00    -0.047 C  
HETATM   18  C   UNL     1      -5.393  12.417  70.034  1.00  0.00    -0.103 C  
HETATM   19  H   UNL     1      -6.134  12.255  66.870  1.00  0.00     0.000 HD 
BRANCH  17  20
HETATM   20  C   UNL     1      -7.125  10.647  69.080  1.00  0.00    -0.086 C  
HETATM   21  O   UNL     1      -8.068  10.654  68.287  1.00  0.00    -0.109 OA 
HETATM   22  N   UNL     1      -6.998   9.757  70.138  1.00  0.00    -0.101 N  
HETATM   23  H   UNL     1      -6.124   9.792  70.662  1.00  0.00     0.000 HD 
BRANCH  22  24
HETATM   24  C   UNL     1      -7.957   8.804  70.565  1.00  0.00    -0.113 A  
HETATM   25  C   UNL     1      -7.676   7.446  70.754  1.00  0.00    -0.088 A  
HETATM   26  C   UNL     1      -8.663   6.557  71.191  1.00  0.00    -0.138 A  
HETATM   27  C   UNL     1      -9.956   7.008  71.434  1.00  0.00    -0.190 A  
HETATM   28  C   UNL     1     -10.264   8.356  71.219  1.00  0.00    -0.269 A  
HETATM   29  C   UNL     1     -11.628   8.886  71.459  1.00  0.00    -0.318 C  
HETATM   30  C   UNL     1      -9.261   9.251  70.807  1.00  0.00    -0.316 A  
HETATM   31  O   UNL     1     -12.616   8.006  71.188  1.00  0.00    -0.268 OA 
HETATM   32  O   UNL     1     -11.834  10.029  71.829  1.00  0.00    -0.323 OA 
ENDBRANCH  22  24
ENDBRANCH  17  20
ENDBRANCH  13  14
ENDBRANCH   3  13
BRANCH   7  33
HETATM   33  C   UNL     1     -10.438  16.545  65.216  1.00  0.00    -0.213 C  
HETATM   34  O   UNL     1     -10.796  17.889  65.537  1.00  0.00    -0.480 OA 
HETATM   35  H   UNL     1     -11.544  18.110  64.994  1.00  0.00     0.000 HD 
HETATM   36  C   UNL     1     -11.619  15.629  65.498  1.00  0.00     0.197 C  
ENDBRANCH   7  33
TORSDOF 5
ENDMDL
MODEL      238
REMARK 921   NORMALIZED FREE ENERGY PREDICTED BY IDOCK:   -3.69 KCAL/MOL
REMARK 922        TOTAL FREE ENERGY PREDICTED BY IDOCK:   -6.45 KCAL/MOL
REMARK 923 INTER-LIGAND FREE ENERGY PREDICTED BY IDOCK:   -4.81 KCAL/MOL
REMARK 924 INTRA-LIGAND FREE ENERGY PREDICTED BY IDOCK:   -1.64 KCAL/MOL
REMARK 927      BINDING AFFINITY PREDICTED BY RF-SCORE:    0.00 PKD
ROOT
HETATM    1  C   UNL     1     -10.695  12.117  69.422  1.00  0.00     0.108 C  
HETATM    2  C   UNL     1     -10.656  10.654  69.872  1.00  0.00    -0.203 C  
HETATM    3  C   UNL     1     -10.108   9.948  68.648  1.00  0.00    -0.175 C  
HETATM    4  C   UNL     1     -12.022  10.197  70.364  1.00  0.00    -0.353 C  
HETATM    5  O   UNL     1     -11.288  13.148  66.342  1.00  0.00    -0.296 OA 
HETATM    6  C   UNL     1      -9.824  10.832  67.671  1.00  0.00    -0.171 C  
HETATM    7  C   UNL     1     -11.938  12.827  68.798  1.00  0.00    -0.278 C  
HETATM    8  N   UNL     1     -10.095  12.140  68.057  1.00  0.00    -0.198 N  
HETATM    9  C   UNL     1      -9.196  10.540  66.345  1.00  0.00    -0.166 C  
HETATM   10  O   UNL     1      -8.530   9.546  66.105  1.00  0.00    -0.117 OA 
HETATM   11  O   UNL     1      -9.426  11.470  65.392  1.00  0.00    -0.224 OA 
HETATM   12  C   UNL     1     -11.120  12.855  67.505  1.00  0.00    -0.269 C  
ENDROOT
BRANCH   3  13
HETATM   13  S   UNL     1      -9.758   8.263  68.747  1.00  0.00    -0.160 SA 
BRANCH  13  14
HETATM   14  C   UNL     1      -8.210   8.156  69.725  1.00  0.00    -0.122 C  
HETATM   15  C   UNL     1      -7.029   8.925  69.144  1.00  0.00    -0.059 C  
HETATM   16  N   UNL     1      -6.546   8.062  68.080  1.00  0.00    -0.055 NA 
HETATM   17  C   UNL     1      -6.650   6.664  68.557  1.00  0.00    -0.051 C  
HETATM   18  C   UNL     1      -7.709   6.706  69.666  1.00  0.00    -0.107 C  
HETATM   19  H   UNL     1      -5.606   8.305  67.766  1.00  0.00     0.000 HD 
BRANCH  17  20
HETATM   20  C   UNL     1      -6.896   5.736  67.334  1.00  0.00    -0.064 C  
HETATM   21  O   UNL     1      -6.267   5.916  66.289  1.00  0.00    -0.034 OA 
HETATM   22  N   UNL     1      -7.755   4.668  67.555  1.00  0.00    -0.089 N  
HETATM   23  H   UNL     1      -8.140   4.579  68.495  1.00  0.00     0.000 HD 
BRANCH  22  24
HETATM   24  C   UNL     1      -8.153   3.688  66.611  1.00  0.00    -0.096 A  
HETATM   25  C   UNL     1      -7.618   2.396  66.556  1.00  0.00    -0.071 A  
HETATM   26  C   UNL     1      -8.063   1.469  65.608  1.00  0.00    -0.075 A  
HETATM   27  C   UNL     1      -9.042   1.822  64.686  1.00  0.00    -0.128 A  
HETATM   28  C   UNL     1      -9.565   3.120  64.705  1.00  0.00    -0.148 A  
HETATM   29  C   UNL     1     -10.608   3.549  63.741  1.00  0.00    -0.275 C  
HETATM   30  C   UNL     1      -9.135   4.040  65.678  1.00  0.00    -0.142 A  
HETATM   31  O   UNL     1     -10.501   2.974  62.523  1.00  0.00    -0.123 OA 
HETATM   32  O   UNL     1     -11.458   4.377  64.017  1.00  0.00     0.134 OA 
ENDBRANCH  22  24
ENDBRANCH  17  20
ENDBRANCH  13  14
ENDBRANCH   3  13
BRANCH   7  33
HETATM   33  C   UNL     1     -12.314  14.137  69.460  1.00  0.00    -0.231 C  
HETATM   34  O   UNL     1     -11.747  15.177  68.663  1.00  0.00    -0.335 OA 
HETATM   35  H   UNL     1     -11.982  15.999  69.078  1.00  0.00     0.000 HD 
HETATM   36  C   UNL     1     -11.754  14.225  70.872  1.00  0.00    -0.242 C  
ENDBRANCH   7  33
TORSDOF 5
ENDMDL
MODEL      239
REMARK 921   NORMALIZED FREE ENERGY PREDICTED BY IDOCK:   -3.67 KCAL/MOL
REMARK 922        TOTAL FREE ENERGY PREDICTED BY IDOCK:   -6.43 KCAL/MOL
REMARK 923 INTER-LIGAND FREE ENERGY PREDICTED BY IDOCK:   -5.25 KCAL/MOL
REMARK 924 INTRA-LIGAND FREE ENERGY PREDICTED BY IDOCK:   -1.17 KCAL/MOL
REMARK 927      BINDING AFFINITY PREDICTED BY RF-SCORE:    0.00 PKD
ROOT
HETATM    1  C   UNL     1     -11.204  12.043  67.289  1.00  0.00    -0.311 C  
HETATM    2  C   UNL     1     -10.137  11.514  66.327  1.00  0.00    -0.261 C  
HETATM    3  C   UNL     1      -9.841  10.137  66.888  1.00  0.00    -0.195 C  
HETATM    4  C   UNL     1      -8.960  12.475  66.233  1.00  0.00    -0.009 C  
HETATM    5  O   UNL     1     -11.378  11.346  70.511  1.00  0.00    -0.090 OA 
HETATM    6  C   UNL     1     -10.625   9.876  67.953  1.00  0.00    -0.254 C  
HETATM    7  C   UNL     1     -10.915  12.923  68.546  1.00  0.00    -0.288 C  
HETATM    8  N   UNL     1     -11.492  10.926  68.232  1.00  0.00    -0.311 N  
HETATM    9  C   UNL     1     -10.691   8.600  68.732  1.00  0.00    -0.064 C  
HETATM   10  O   UNL     1     -10.327   7.516  68.306  1.00  0.00    -0.188 OA 
HETATM   11  O   UNL     1     -11.187   8.725  69.983  1.00  0.00    -0.215 OA 
HETATM   12  C   UNL     1     -11.352  11.696  69.352  1.00  0.00    -0.278 C  
ENDROOT
BRANCH   3  13
HETATM   13  S   UNL     1      -8.772   9.099  66.023  1.00  0.00    -0.163 SA 
BRANCH  13  14
HETATM   14  C   UNL     1      -7.095   9.766  66.348  1.00  0.00    -0.094 C  
HETATM   15  C   UNL     1      -5.950   8.820  66.005  1.00  0.00    -0.051 C  
HETATM   16  N   UNL     1      -5.919   7.898  67.127  1.00  0.00    -0.047 NA 
HETATM   17  C   UNL     1      -6.195   8.677  68.355  1.00  0.00    -0.054 C  
HETATM   18  C   UNL     1      -6.933   9.930  67.866  1.00  0.00    -0.081 C  
HETATM   19  H   UNL     1      -5.049   7.367  67.181  1.00  0.00     0.000 HD 
BRANCH  17  20
HETATM   20  C   UNL     1      -6.907   7.753  69.383  1.00  0.00    -0.044 C  
HETATM   21  O   UNL     1      -7.001   6.544  69.161  1.00  0.00    -0.069 OA 
HETATM   22  N   UNL     1      -7.300   8.364  70.566  1.00  0.00    -0.054 N  
HETATM   23  H   UNL     1      -7.082   9.355  70.663  1.00  0.00     0.000 HD 
BRANCH  22  24
HETATM   24  C   UNL     1      -7.974   7.753  71.654  1.00  0.00    -0.097 A  
HETATM   25  C   UNL     1      -8.080   8.327  72.926  1.00  0.00    -0.211 A  
HETATM   26  C   UNL     1      -8.771   7.680  73.956  1.00  0.00    -0.303 A  
HETATM   27  C   UNL     1      -9.358   6.439  73.736  1.00  0.00    -0.153 A  
HETATM   28  C   UNL     1      -9.235   5.835  72.480  1.00  0.00    -0.146 A  
HETATM   29  C   UNL     1      -9.838   4.510  72.195  1.00  0.00    -0.177 C  
HETATM   30  C   UNL     1      -8.563   6.502  71.439  1.00  0.00    -0.126 A  
HETATM   31  O   UNL     1      -9.849   3.671  73.253  1.00  0.00    -0.111 OA 
HETATM   32  O   UNL     1     -10.249   4.198  71.091  1.00  0.00    -0.122 OA 
ENDBRANCH  22  24
ENDBRANCH  17  20
ENDBRANCH  13  14
ENDBRANCH   3  13
BRANCH   7  33
HETATM   33  C   UNL     1     -11.741  14.191  68.632  1.00  0.00    -0.350 C  
HETATM   34  O   UNL     1     -12.861  13.896  69.467  1.00  0.00    -0.249 OA 
HETATM   35  H   UNL     1     -13.378  14.691  69.520  1.00  0.00     0.000 HD 
HETATM   36  C   UNL     1     -12.237  14.622  67.260  1.00  0.00    -0.088 C  
ENDBRANCH   7  33
TORSDOF 5
ENDMDL
MODEL      240
REMARK 921   NORMALIZED FREE ENERGY PREDICTED BY IDOCK:   -3.61 KCAL/MOL
REMARK 922        TOTAL FREE ENERGY PREDICTED BY IDOCK:   -6.35 KCAL/MOL
REMARK 923 INTER-LIGAND FREE ENERGY PREDICTED BY IDOCK:   -5.82 KCAL/MOL
REMARK 924 INTRA-LIGAND FREE ENERGY PREDICTED BY IDOCK:   -0.53 KCAL/MOL
REMARK 927      BINDING AFFINITY PREDICTED BY RF-SCORE:    0.00 PKD
ROOT
HETATM    1  C   UNL     1      -9.244  14.964  66.663  1.00  0.00    -0.276 C  
HETATM    2  C   UNL     1      -8.535  13.614  66.798  1.00  0.00     0.012 C  
HETATM    3  C   UNL     1      -9.522  12.805  67.616  1.00  0.00    -0.190 C  
HETATM    4  C   UNL     1      -7.143  13.784  67.390  1.00  0.00    -0.093 C  
HETATM    5  O   UNL     1     -11.220  16.315  68.937  1.00  0.00    -0.331 OA 
HETATM    6  C   UNL     1     -10.633  13.523  67.874  1.00  0.00    -0.248 C  
HETATM    7  C   UNL     1      -9.031  16.184  67.614  1.00  0.00    -0.194 C  
HETATM    8  N   UNL     1     -10.576  14.792  67.310  1.00  0.00    -0.269 N  
HETATM    9  C   UNL     1     -11.865  13.054  68.581  1.00  0.00    -0.318 C  
HETATM   10  O   UNL     1     -12.185  11.882  68.700  1.00  0.00    -0.358 OA 
HETATM   11  O   UNL     1     -12.626  14.039  69.108  1.00  0.00    -0.108 OA 
HETATM   12  C   UNL     1     -10.464  15.916  68.078  1.00  0.00    -0.274 C  
ENDROOT
BRANCH   3  13
HETATM   13  S   UNL     1      -9.194  11.137  67.902  1.00  0.00    -0.159 SA 
BRANCH  13  14
HETATM   14  C   UNL     1      -8.830  10.434  66.248  1.00  0.00    -0.152 C  
HETATM   15  C   UNL     1      -9.997   9.711  65.586  1.00  0.00    -0.251 C  
HETATM   16  N   UNL     1     -10.023   8.419  66.250  1.00  0.00    -0.448 NA 
HETATM   17  C   UNL     1      -8.620   7.998  66.463  1.00  0.00    -0.140 C  
HETATM   18  C   UNL     1      -7.810   9.300  66.426  1.00  0.00    -0.103 C  
HETATM   19  H   UNL     1     -10.574   7.724  65.746  1.00  0.00     0.000 HD 
BRANCH  17  20
HETATM   20  C   UNL     1      -8.551   7.120  67.745  1.00  0.00    -0.126 C  
HETATM   21  O   UNL     1      -9.559   6.960  68.435  1.00  0.00    -0.128 OA 
HETATM   22  N   UNL     1      -7.343   6.469  67.961  1.00  0.00    -0.087 N  
HETATM   23  H   UNL     1      -6.615   6.614  67.262  1.00  0.00     0.000 HD 
BRANCH  22  24
HETATM   24  C   UNL     1      -7.017   5.625  69.052  1.00  0.00    -0.063 A  
HETATM   25  C   UNL     1      -5.760   5.593  69.664  1.00  0.00    -0.012 A  
HETATM   26  C   UNL     1      -5.503   4.746  70.747  1.00  0.00    -0.008 A  
HETATM   27  C   UNL     1      -6.499   3.904  71.231  1.00  0.00    -0.019 A  
HETATM   28  C   UNL     1      -7.753   3.898  70.611  1.00  0.00    -0.047 A  
HETATM   29  C   UNL     1      -8.847   3.016  71.084  1.00  0.00    -0.083 C  
HETATM   30  C   UNL     1      -8.014   4.772  69.540  1.00  0.00    -0.066 A  
HETATM   31  O   UNL     1      -8.426   1.829  71.570  1.00  0.00    -0.050 OA 
HETATM   32  O   UNL     1     -10.023   3.325  71.002  1.00  0.00    -0.116 OA 
ENDBRANCH  22  24
ENDBRANCH  17  20
ENDBRANCH  13  14
ENDBRANCH   3  13
BRANCH   7  33
HETATM   33  C   UNL     1      -8.718  17.488  66.907  1.00  0.00    -0.251 C  
HETATM   34  O   UNL     1      -9.718  17.660  65.903  1.00  0.00    -0.521 OA 
HETATM   35  H   UNL     1      -9.522  18.477  65.459  1.00  0.00     0.000 HD 
HETATM   36  C   UNL     1      -7.348  17.446  66.249  1.00  0.00    -0.347 C  
ENDBRANCH   7  33
TORSDOF 5
ENDMDL
MODEL      241
REMARK 921   NORMALIZED FREE ENERGY PREDICTED BY IDOCK:   -3.58 KCAL/MOL
REMARK 922        TOTAL FREE ENERGY PREDICTED BY IDOCK:   -6.31 KCAL/MOL
REMARK 923 INTER-LIGAND FREE ENERGY PREDICTED BY IDOCK:   -5.27 KCAL/MOL
REMARK 924 INTRA-LIGAND FREE ENERGY PREDICTED BY IDOCK:   -1.04 KCAL/MOL
REMARK 927      BINDING AFFINITY PREDICTED BY RF-SCORE:    0.00 PKD
ROOT
HETATM    1  C   UNL     1     -11.198  13.195  70.086  1.00  0.00     0.383 C  
HETATM    2  C   UNL     1     -10.744  11.743  69.918  1.00  0.00     0.485 C  
HETATM    3  C   UNL     1      -9.792  11.830  68.742  1.00  0.00    -0.087 C  
HETATM    4  C   UNL     1     -11.938  10.812  69.756  1.00  0.00    -0.397 C  
HETATM    5  O   UNL     1     -11.577  15.370  67.632  1.00  0.00    -0.305 OA 
HETATM    6  C   UNL     1      -9.663  13.105  68.323  1.00  0.00    -0.223 C  
HETATM    7  C   UNL     1     -12.485  13.808  69.447  1.00  0.00    -0.062 C  
HETATM    8  N   UNL     1     -10.421  13.983  69.089  1.00  0.00    -0.147 N  
HETATM    9  C   UNL     1      -8.760  13.612  67.245  1.00  0.00    -0.218 C  
HETATM   10  O   UNL     1      -7.766  13.024  66.848  1.00  0.00    -0.001 OA 
HETATM   11  O   UNL     1      -9.126  14.798  66.710  1.00  0.00    -0.239 OA 
HETATM   12  C   UNL     1     -11.518  14.618  68.580  1.00  0.00    -0.300 C  
ENDROOT
BRANCH   3  13
HETATM   13  S   UNL     1      -8.916  10.421  68.275  1.00  0.00    -0.140 SA 
BRANCH  13  14
HETATM   14  C   UNL     1      -9.418  10.102  66.540  1.00  0.00    -0.169 C  
HETATM   15  C   UNL     1     -10.895   9.775  66.349  1.00  0.00     0.188 C  
HETATM   16  N   UNL     1     -10.993   8.382  66.748  1.00  0.00    -0.155 NA 
HETATM   17  C   UNL     1      -9.778   7.691  66.261  1.00  0.00    -0.056 C  
HETATM   18  C   UNL     1      -8.740   8.805  66.078  1.00  0.00    -0.193 C  
HETATM   19  H   UNL     1     -11.856   7.938  66.433  1.00  0.00     0.000 HD 
BRANCH  17  20
HETATM   20  C   UNL     1      -9.445   6.521  67.231  1.00  0.00    -0.125 C  
HETATM   21  O   UNL     1      -8.621   5.666  66.903  1.00  0.00    -0.111 OA 
HETATM   22  N   UNL     1     -10.042   6.594  68.483  1.00  0.00    -0.153 N  
HETATM   23  H   UNL     1     -10.634   7.405  68.660  1.00  0.00     0.000 HD 
BRANCH  22  24
HETATM   24  C   UNL     1      -9.914   5.657  69.540  1.00  0.00    -0.198 A  
HETATM   25  C   UNL     1      -9.538   4.322  69.357  1.00  0.00    -0.267 A  
HETATM   26  C   UNL     1      -9.416   3.450  70.443  1.00  0.00    -0.245 A  
HETATM   27  C   UNL     1      -9.682   3.894  71.733  1.00  0.00    -0.243 A  
HETATM   28  C   UNL     1     -10.091   5.217  71.932  1.00  0.00    -0.255 A  
HETATM   29  C   UNL     1     -10.391   5.739  73.288  1.00  0.00    -0.214 C  
HETATM   30  C   UNL     1     -10.185   6.098  70.840  1.00  0.00    -0.250 A  
HETATM   31  O   UNL     1     -10.929   4.825  74.123  1.00  0.00    -0.302 OA 
HETATM   32  O   UNL     1     -10.204   6.902  73.601  1.00  0.00    -0.269 OA 
ENDBRANCH  22  24
ENDBRANCH  17  20
ENDBRANCH  13  14
ENDBRANCH   3  13
BRANCH   7  33
HETATM   33  C   UNL     1     -13.386  14.538  70.423  1.00  0.00     0.153 C  
HETATM   34  O   UNL     1     -13.107  15.931  70.276  1.00  0.00    -0.700 OA 
HETATM   35  H   UNL     1     -13.673  16.388  70.888  1.00  0.00     0.000 HD 
HETATM   36  C   UNL     1     -13.105  14.119  71.858  1.00  0.00    -0.456 C  
ENDBRANCH   7  33
TORSDOF 5
ENDMDL
MODEL      242
REMARK 921   NORMALIZED FREE ENERGY PREDICTED BY IDOCK:   -3.55 KCAL/MOL
REMARK 922        TOTAL FREE ENERGY PREDICTED BY IDOCK:   -6.27 KCAL/MOL
REMARK 923 INTER-LIGAND FREE ENERGY PREDICTED BY IDOCK:   -6.23 KCAL/MOL
REMARK 924 INTRA-LIGAND FREE ENERGY PREDICTED BY IDOCK:   -0.04 KCAL/MOL
REMARK 927      BINDING AFFINITY PREDICTED BY RF-SCORE:    0.00 PKD
ROOT
HETATM    1  C   UNL     1      -7.851   9.017  70.174  1.00  0.00    -0.100 C  
HETATM    2  C   UNL     1      -6.737   9.822  69.501  1.00  0.00    -0.054 C  
HETATM    3  C   UNL     1      -7.483  10.573  68.416  1.00  0.00    -0.092 C  
HETATM    4  C   UNL     1      -5.606   8.913  69.041  1.00  0.00    -0.036 C  
HETATM    5  O   UNL     1     -10.504   7.785  68.643  1.00  0.00    -0.202 OA 
HETATM    6  C   UNL     1      -8.803  10.304  68.468  1.00  0.00    -0.127 C  
HETATM    7  C   UNL     1      -8.237   7.548  69.810  1.00  0.00    -0.128 C  
HETATM    8  N   UNL     1      -9.116   9.432  69.504  1.00  0.00    -0.154 N  
HETATM    9  C   UNL     1      -9.880  10.907  67.623  1.00  0.00    -0.171 C  
HETATM   10  O   UNL     1      -9.774  11.969  67.030  1.00  0.00    -0.192 OA 
HETATM   11  O   UNL     1     -11.013  10.175  67.542  1.00  0.00    -0.298 OA 
HETATM   12  C   UNL     1      -9.533   8.153  69.267  1.00  0.00    -0.159 C  
ENDROOT
BRANCH   3  13
HETATM   13  S   UNL     1      -6.630  11.735  67.472  1.00  0.00    -0.111 SA 
BRANCH  13  14
HETATM   14  C   UNL     1      -5.445  12.514  68.635  1.00  0.00    -0.054 C  
HETATM   15  C   UNL     1      -5.996  12.781  70.031  1.00  0.00    -0.142 C  
HETATM   16  N   UNL     1      -6.790  13.985  69.863  1.00  0.00    -0.356 NA 
HETATM   17  C   UNL     1      -6.066  14.871  68.923  1.00  0.00    -0.085 C  
HETATM   18  C   UNL     1      -5.145  13.933  68.132  1.00  0.00    -0.112 C  
HETATM   19  H   UNL     1      -7.012  14.442  70.748  1.00  0.00     0.000 HD 
BRANCH  17  20
HETATM   20  C   UNL     1      -7.104  15.724  68.140  1.00  0.00    -0.116 C  
HETATM   21  O   UNL     1      -7.019  16.953  68.146  1.00  0.00    -0.155 OA 
HETATM   22  N   UNL     1      -8.015  15.006  67.376  1.00  0.00    -0.179 N  
HETATM   23  H   UNL     1      -7.920  13.991  67.387  1.00  0.00     0.000 HD 
BRANCH  22  24
HETATM   24  C   UNL     1      -9.063  15.537  66.584  1.00  0.00    -0.279 A  
HETATM   25  C   UNL     1      -9.864  14.767  65.733  1.00  0.00    -0.373 A  
HETATM   26  C   UNL     1     -10.893  15.348  64.985  1.00  0.00    -0.462 A  
HETATM   27  C   UNL     1     -11.133  16.715  65.065  1.00  0.00    -0.121 A  
HETATM   28  C   UNL     1     -10.321  17.507  65.885  1.00  0.00    -0.265 A  
HETATM   29  C   UNL     1     -10.531  18.970  66.002  1.00  0.00    -0.458 C  
HETATM   30  C   UNL     1      -9.305  16.913  66.656  1.00  0.00    -0.278 A  
HETATM   31  O   UNL     1     -10.969  19.556  64.867  1.00  0.00    -0.251 OA 
HETATM   32  O   UNL     1     -10.290  19.591  67.023  1.00  0.00    -0.390 OA 
ENDBRANCH  22  24
ENDBRANCH  17  20
ENDBRANCH  13  14
ENDBRANCH   3  13
BRANCH   7  33
HETATM   33  C   UNL     1      -8.305   6.602  70.992  1.00  0.00    -0.125 C  
HETATM   34  O   UNL     1      -8.918   7.325  72.060  1.00  0.00    -0.129 OA 
HETATM   35  H   UNL     1      -8.960   6.732  72.802  1.00  0.00     0.000 HD 
HETATM   36  C   UNL     1      -6.918   6.151  71.422  1.00  0.00    -0.076 C  
ENDBRANCH   7  33
TORSDOF 5
ENDMDL
MODEL      243
REMARK 921   NORMALIZED FREE ENERGY PREDICTED BY IDOCK:   -3.44 KCAL/MOL
REMARK 922        TOTAL FREE ENERGY PREDICTED BY IDOCK:   -6.12 KCAL/MOL
REMARK 923 INTER-LIGAND FREE ENERGY PREDICTED BY IDOCK:   -4.74 KCAL/MOL
REMARK 924 INTRA-LIGAND FREE ENERGY PREDICTED BY IDOCK:   -1.38 KCAL/MOL
REMARK 927      BINDING AFFINITY PREDICTED BY RF-SCORE:    0.00 PKD
ROOT
HETATM    1  C   UNL     1      -9.449  13.065  68.355  1.00  0.00    -0.165 C  
HETATM    2  C   UNL     1     -10.649  12.118  68.449  1.00  0.00    -0.243 C  
HETATM    3  C   UNL     1      -9.988  10.762  68.587  1.00  0.00    -0.182 C  
HETATM    4  C   UNL     1     -11.582  12.299  67.260  1.00  0.00    -0.427 C  
HETATM    5  O   UNL     1      -6.550  12.333  66.955  1.00  0.00    -0.136 OA 
HETATM    6  C   UNL     1      -8.645  10.884  68.622  1.00  0.00    -0.153 C  
HETATM    7  C   UNL     1      -8.800  13.554  67.021  1.00  0.00    -0.219 C  
HETATM    8  N   UNL     1      -8.241  12.211  68.538  1.00  0.00    -0.138 N  
HETATM    9  C   UNL     1      -7.646   9.791  68.829  1.00  0.00    -0.076 C  
HETATM   10  O   UNL     1      -7.901   8.716  69.349  1.00  0.00    -0.092 OA 
HETATM   11  O   UNL     1      -6.401  10.069  68.381  1.00  0.00    -0.049 OA 
HETATM   12  C   UNL     1      -7.600  12.699  67.435  1.00  0.00    -0.150 C  
ENDROOT
BRANCH   3  13
HETATM   13  S   UNL     1     -10.977   9.379  68.867  1.00  0.00     0.027 SA 
BRANCH  13  14
HETATM   14  C   UNL     1     -11.881   9.748  70.420  1.00  0.00    -0.193 C  
HETATM   15  C   UNL     1     -10.996   9.961  71.643  1.00  0.00     0.296 C  
HETATM   16  N   UNL     1     -10.634   8.612  72.044  1.00  0.00    -0.333 NA 
HETATM   17  C   UNL     1     -11.824   7.754  71.850  1.00  0.00    -0.297 C  
HETATM   18  C   UNL     1     -12.679   8.497  70.815  1.00  0.00     0.238 C  
HETATM   19  H   UNL     1     -10.263   8.567  72.994  1.00  0.00     0.000 HD 
BRANCH  17  20
HETATM   20  C   UNL     1     -11.349   6.310  71.517  1.00  0.00    -0.296 C  
HETATM   21  O   UNL     1     -11.522   5.852  70.386  1.00  0.00    -0.255 OA 
HETATM   22  N   UNL     1     -10.643   5.666  72.524  1.00  0.00    -0.212 N  
HETATM   23  H   UNL     1     -10.489   6.192  73.383  1.00  0.00     0.000 HD 
BRANCH  22  24
HETATM   24  C   UNL     1     -10.113   4.351  72.481  1.00  0.00    -0.177 A  
HETATM   25  C   UNL     1     -10.782   3.225  72.973  1.00  0.00    -0.222 A  
HETATM   26  C   UNL     1     -10.211   1.951  72.890  1.00  0.00    -0.202 A  
HETATM   27  C   UNL     1      -8.953   1.781  72.323  1.00  0.00    -0.100 A  
HETATM   28  C   UNL     1      -8.255   2.900  71.855  1.00  0.00    -0.059 A  
HETATM   29  C   UNL     1      -6.908   2.774  71.247  1.00  0.00    -0.032 C  
HETATM   30  C   UNL     1      -8.845   4.175  71.916  1.00  0.00    -0.141 A  
HETATM   31  O   UNL     1      -6.153   1.790  71.781  1.00  0.00    -0.012 OA 
HETATM   32  O   UNL     1      -6.509   3.521  70.370  1.00  0.00    -0.030 OA 
ENDBRANCH  22  24
ENDBRANCH  17  20
ENDBRANCH  13  14
ENDBRANCH   3  13
BRANCH   7  33
HETATM   33  C   UNL     1      -8.632  15.057  66.917  1.00  0.00    -0.249 C  
HETATM   34  O   UNL     1      -7.235  15.303  66.756  1.00  0.00    -0.279 OA 
HETATM   35  H   UNL     1      -7.129  16.245  66.691  1.00  0.00     0.000 HD 
HETATM   36  C   UNL     1      -9.124  15.758  68.173  1.00  0.00    -0.185 C  
ENDBRANCH   7  33
TORSDOF 5
ENDMDL
MODEL      244
REMARK 921   NORMALIZED FREE ENERGY PREDICTED BY IDOCK:   -3.44 KCAL/MOL
REMARK 922        TOTAL FREE ENERGY PREDICTED BY IDOCK:   -6.12 KCAL/MOL
REMARK 923 INTER-LIGAND FREE ENERGY PREDICTED BY IDOCK:   -5.07 KCAL/MOL
REMARK 924 INTRA-LIGAND FREE ENERGY PREDICTED BY IDOCK:   -1.05 KCAL/MOL
REMARK 927      BINDING AFFINITY PREDICTED BY RF-SCORE:    0.00 PKD
ROOT
HETATM    1  C   UNL     1      -9.465   5.415  71.496  1.00  0.00    -0.149 C  
HETATM    2  C   UNL     1      -9.164   3.949  71.170  1.00  0.00    -0.201 C  
HETATM    3  C   UNL     1      -9.602   3.837  69.723  1.00  0.00    -0.183 C  
HETATM    4  C   UNL     1      -9.849   3.017  72.160  1.00  0.00    -0.239 C  
HETATM    5  O   UNL     1     -11.960   7.173  70.238  1.00  0.00    -0.198 OA 
HETATM    6  C   UNL     1     -10.033   5.028  69.260  1.00  0.00    -0.207 C  
HETATM    7  C   UNL     1     -10.787   5.931  72.146  1.00  0.00    -0.290 C  
HETATM    8  N   UNL     1      -9.944   6.025  70.223  1.00  0.00    -0.180 N  
HETATM    9  C   UNL     1     -10.472   5.347  67.866  1.00  0.00    -0.133 C  
HETATM   10  O   UNL     1     -10.165   4.692  66.882  1.00  0.00    -0.213 OA 
HETATM   11  O   UNL     1     -11.266   6.435  67.756  1.00  0.00    -0.323 OA 
HETATM   12  C   UNL     1     -11.057   6.582  70.788  1.00  0.00    -0.300 C  
ENDROOT
BRANCH   3  13
HETATM   13  S   UNL     1      -9.314   2.363  68.878  1.00  0.00    -0.111 SA 
BRANCH  13  14
HETATM   14  C   UNL     1      -7.515   2.054  69.063  1.00  0.00    -0.043 C  
HETATM   15  C   UNL     1      -6.715   3.228  69.616  1.00  0.00    -0.034 C  
HETATM   16  N   UNL     1      -6.558   4.107  68.470  1.00  0.00    -0.044 NA 
HETATM   17  C   UNL     1      -6.329   3.255  67.281  1.00  0.00    -0.036 C  
HETATM   18  C   UNL     1      -6.914   1.888  67.659  1.00  0.00    -0.039 C  
HETATM   19  H   UNL     1      -5.827   4.807  68.603  1.00  0.00     0.000 HD 
BRANCH  17  20
HETATM   20  C   UNL     1      -6.898   3.982  66.029  1.00  0.00    -0.057 C  
HETATM   21  O   UNL     1      -7.298   3.325  65.066  1.00  0.00    -0.068 OA 
HETATM   22  N   UNL     1      -7.018   5.361  66.140  1.00  0.00    -0.062 N  
HETATM   23  H   UNL     1      -6.735   5.774  67.028  1.00  0.00     0.000 HD 
BRANCH  22  24
HETATM   24  C   UNL     1      -7.494   6.254  65.148  1.00  0.00    -0.082 A  
HETATM   25  C   UNL     1      -7.258   6.094  63.778  1.00  0.00    -0.061 A  
HETATM   26  C   UNL     1      -7.766   7.004  62.845  1.00  0.00    -0.107 A  
HETATM   27  C   UNL     1      -8.510   8.101  63.267  1.00  0.00     0.088 A  
HETATM   28  C   UNL     1      -8.728   8.295  64.635  1.00  0.00     0.079 A  
HETATM   29  C   UNL     1      -9.510   9.450  65.138  1.00  0.00    -0.185 C  
HETATM   30  C   UNL     1      -8.239   7.362  65.567  1.00  0.00    -0.135 A  
HETATM   31  O   UNL     1      -9.372  10.572  64.399  1.00  0.00    -0.216 OA 
HETATM   32  O   UNL     1     -10.185   9.397  66.152  1.00  0.00    -0.279 OA 
ENDBRANCH  22  24
ENDBRANCH  17  20
ENDBRANCH  13  14
ENDBRANCH   3  13
BRANCH   7  33
HETATM   33  C   UNL     1     -10.588   6.817  73.360  1.00  0.00    -0.325 C  
HETATM   34  O   UNL     1     -11.785   7.581  73.511  1.00  0.00    -0.425 OA 
HETATM   35  H   UNL     1     -11.660   8.136  74.272  1.00  0.00     0.000 HD 
HETATM   36  C   UNL     1      -9.411   7.761  73.170  1.00  0.00    -0.315 C  
ENDBRANCH   7  33
TORSDOF 5
ENDMDL
MODEL      245
REMARK 921   NORMALIZED FREE ENERGY PREDICTED BY IDOCK:   -3.42 KCAL/MOL
REMARK 922        TOTAL FREE ENERGY PREDICTED BY IDOCK:   -6.10 KCAL/MOL
REMARK 923 INTER-LIGAND FREE ENERGY PREDICTED BY IDOCK:   -5.04 KCAL/MOL
REMARK 924 INTRA-LIGAND FREE ENERGY PREDICTED BY IDOCK:   -1.06 KCAL/MOL
REMARK 927      BINDING AFFINITY PREDICTED BY RF-SCORE:    0.00 PKD
ROOT
HETATM    1  C   UNL     1      -8.316  14.492  67.667  1.00  0.00    -0.180 C  
HETATM    2  C   UNL     1      -7.843  13.036  67.701  1.00  0.00    -0.166 C  
HETATM    3  C   UNL     1      -9.144  12.265  67.592  1.00  0.00    -0.184 C  
HETATM    4  C   UNL     1      -6.996  12.765  68.936  1.00  0.00    -0.084 C  
HETATM    5  O   UNL     1     -11.166  15.599  68.913  1.00  0.00    -0.268 OA 
HETATM    6  C   UNL     1     -10.190  13.106  67.464  1.00  0.00    -0.225 C  
HETATM    7  C   UNL     1      -8.616  15.363  68.928  1.00  0.00    -0.207 C  
HETATM    8  N   UNL     1      -9.790  14.437  67.451  1.00  0.00    -0.222 N  
HETATM    9  C   UNL     1     -11.623  12.735  67.251  1.00  0.00    -0.360 C  
HETATM   10  O   UNL     1     -11.996  11.661  66.806  1.00  0.00    -0.536 OA 
HETATM   11  O   UNL     1     -12.514  13.689  67.602  1.00  0.00    -0.140 OA 
HETATM   12  C   UNL     1     -10.078  15.284  68.483  1.00  0.00    -0.222 C  
ENDROOT
BRANCH   3  13
HETATM   13  S   UNL     1      -9.083  10.549  67.450  1.00  0.00    -0.138 SA 
BRANCH  13  14
HETATM   14  C   UNL     1      -7.725  10.218  66.263  1.00  0.00    -0.116 C  
HETATM   15  C   UNL     1      -8.176   9.938  64.833  1.00  0.00    -0.146 C  
HETATM   16  N   UNL     1      -8.621   8.556  64.878  1.00  0.00    -0.328 NA 
HETATM   17  C   UNL     1      -7.693   7.815  65.762  1.00  0.00    -0.099 C  
HETATM   18  C   UNL     1      -7.062   8.890  66.656  1.00  0.00    -0.084 C  
HETATM   19  H   UNL     1      -8.707   8.136  63.952  1.00  0.00     0.000 HD 
BRANCH  17  20
HETATM   20  C   UNL     1      -8.472   6.652  66.440  1.00  0.00    -0.125 C  
HETATM   21  O   UNL     1      -9.154   5.888  65.756  1.00  0.00    -0.154 OA 
HETATM   22  N   UNL     1      -8.242   6.491  67.800  1.00  0.00    -0.115 N  
HETATM   23  H   UNL     1      -7.581   7.136  68.231  1.00  0.00     0.000 HD 
BRANCH  22  24
HETATM   24  C   UNL     1      -8.830   5.522  68.651  1.00  0.00    -0.107 A  
HETATM   25  C   UNL     1     -10.079   5.677  69.263  1.00  0.00    -0.281 A  
HETATM   26  C   UNL     1     -10.612   4.677  70.083  1.00  0.00     0.342 A  
HETATM   27  C   UNL     1      -9.899   3.507  70.317  1.00  0.00    -0.043 A  
HETATM   28  C   UNL     1      -8.635   3.347  69.740  1.00  0.00    -0.110 A  
HETATM   29  C   UNL     1      -7.831   2.121  69.962  1.00  0.00    -0.042 C  
HETATM   30  C   UNL     1      -8.115   4.344  68.894  1.00  0.00    -0.072 A  
HETATM   31  O   UNL     1      -7.994   1.570  71.184  1.00  0.00    -0.039 OA 
HETATM   32  O   UNL     1      -7.063   1.677  69.127  1.00  0.00    -0.036 OA 
ENDBRANCH  22  24
ENDBRANCH  17  20
ENDBRANCH  13  14
ENDBRANCH   3  13
BRANCH   7  33
HETATM   33  C   UNL     1      -7.923  16.711  68.942  1.00  0.00    -0.236 C  
HETATM   34  O   UNL     1      -7.702  17.073  67.579  1.00  0.00    -0.164 OA 
HETATM   35  H   UNL     1      -7.267  17.918  67.588  1.00  0.00     0.000 HD 
HETATM   36  C   UNL     1      -6.587  16.640  69.666  1.00  0.00    -0.154 C  
ENDBRANCH   7  33
TORSDOF 5
ENDMDL
MODEL      246
REMARK 921   NORMALIZED FREE ENERGY PREDICTED BY IDOCK:   -3.37 KCAL/MOL
REMARK 922        TOTAL FREE ENERGY PREDICTED BY IDOCK:   -6.03 KCAL/MOL
REMARK 923 INTER-LIGAND FREE ENERGY PREDICTED BY IDOCK:   -5.83 KCAL/MOL
REMARK 924 INTRA-LIGAND FREE ENERGY PREDICTED BY IDOCK:   -0.20 KCAL/MOL
REMARK 927      BINDING AFFINITY PREDICTED BY RF-SCORE:    0.00 PKD
ROOT
HETATM    1  C   UNL     1     -10.804  14.342  69.742  1.00  0.00    -0.051 C  
HETATM    2  C   UNL     1     -10.562  13.154  68.807  1.00  0.00    -0.225 C  
HETATM    3  C   UNL     1      -9.592  13.725  67.793  1.00  0.00    -0.219 C  
HETATM    4  C   UNL     1     -11.876  12.614  68.259  1.00  0.00    -0.354 C  
HETATM    5  O   UNL     1     -10.831  17.514  68.825  1.00  0.00    -0.225 OA 
HETATM    6  C   UNL     1      -9.274  15.000  68.098  1.00  0.00    -0.183 C  
HETATM    7  C   UNL     1     -11.979  15.362  69.605  1.00  0.00    -0.366 C  
HETATM    8  N   UNL     1      -9.907  15.430  69.258  1.00  0.00    -0.246 N  
HETATM    9  C   UNL     1      -8.292  15.878  67.391  1.00  0.00    -0.171 C  
HETATM   10  O   UNL     1      -7.389  15.466  66.680  1.00  0.00    -0.064 OA 
HETATM   11  O   UNL     1      -8.476  17.203  67.583  1.00  0.00    -0.197 OA 
HETATM   12  C   UNL     1     -10.894  16.374  69.231  1.00  0.00    -0.327 C  
ENDROOT
BRANCH   3  13
HETATM   13  S   UNL     1      -8.922  12.677  66.600  1.00  0.00    -0.110 SA 
BRANCH  13  14
HETATM   14  C   UNL     1     -10.154  12.654  65.242  1.00  0.00    -0.253 C  
HETATM   15  C   UNL     1     -11.248  11.602  65.384  1.00  0.00    -0.199 C  
HETATM   16  N   UNL     1     -10.599  10.372  64.963  1.00  0.00    -0.082 NA 
HETATM   17  C   UNL     1      -9.716  10.701  63.821  1.00  0.00    -0.327 C  
HETATM   18  C   UNL     1      -9.441  12.204  63.959  1.00  0.00     0.140 C  
HETATM   19  H   UNL     1     -11.261   9.626  64.750  1.00  0.00     0.000 HD 
BRANCH  17  20
HETATM   20  C   UNL     1      -8.506   9.724  63.828  1.00  0.00    -0.184 C  
HETATM   21  O   UNL     1      -7.378  10.144  64.093  1.00  0.00    -0.135 OA 
HETATM   22  N   UNL     1      -8.817   8.385  63.636  1.00  0.00    -0.294 N  
HETATM   23  H   UNL     1      -9.804   8.157  63.518  1.00  0.00     0.000 HD 
BRANCH  22  24
HETATM   24  C   UNL     1      -7.906   7.300  63.588  1.00  0.00    -0.108 A  
HETATM   25  C   UNL     1      -6.521   7.438  63.737  1.00  0.00    -0.052 A  
HETATM   26  C   UNL     1      -5.674   6.326  63.693  1.00  0.00    -0.022 A  
HETATM   27  C   UNL     1      -6.196   5.054  63.485  1.00  0.00    -0.022 A  
HETATM   28  C   UNL     1      -7.574   4.900  63.301  1.00  0.00    -0.061 A  
HETATM   29  C   UNL     1      -8.181   3.566  63.070  1.00  0.00    -0.080 C  
HETATM   30  C   UNL     1      -8.425   6.018  63.374  1.00  0.00     0.142 A  
HETATM   31  O   UNL     1      -7.396   2.718  62.373  1.00  0.00    -0.038 OA 
HETATM   32  O   UNL     1      -9.305   3.281  63.445  1.00  0.00    -0.095 OA 
ENDBRANCH  22  24
ENDBRANCH  17  20
ENDBRANCH  13  14
ENDBRANCH   3  13
BRANCH   7  33
HETATM   33  C   UNL     1     -12.779  15.575  70.875  1.00  0.00    -0.468 C  
HETATM   34  O   UNL     1     -12.117  16.605  71.608  1.00  0.00    -0.531 OA 
HETATM   35  H   UNL     1     -12.618  16.739  72.404  1.00  0.00     0.000 HD 
HETATM   36  C   UNL     1     -12.829  14.311  71.718  1.00  0.00    -0.426 C  
ENDBRANCH   7  33
TORSDOF 5
ENDMDL
MODEL      247
REMARK 921   NORMALIZED FREE ENERGY PREDICTED BY IDOCK:   -3.34 KCAL/MOL
REMARK 922        TOTAL FREE ENERGY PREDICTED BY IDOCK:   -6.00 KCAL/MOL
REMARK 923 INTER-LIGAND FREE ENERGY PREDICTED BY IDOCK:   -5.48 KCAL/MOL
REMARK 924 INTRA-LIGAND FREE ENERGY PREDICTED BY IDOCK:   -0.52 KCAL/MOL
REMARK 927      BINDING AFFINITY PREDICTED BY RF-SCORE:    0.00 PKD
ROOT
HETATM    1  C   UNL     1      -8.544   5.231  66.789  1.00  0.00    -0.106 C  
HETATM    2  C   UNL     1      -8.036   6.459  67.549  1.00  0.00    -0.116 C  
HETATM    3  C   UNL     1      -7.746   7.441  66.431  1.00  0.00    -0.093 C  
HETATM    4  C   UNL     1      -6.866   6.096  68.453  1.00  0.00    -0.074 C  
HETATM    5  O   UNL     1      -7.526   4.288  63.793  1.00  0.00    -0.054 OA 
HETATM    6  C   UNL     1      -8.072   6.914  65.234  1.00  0.00    -0.134 C  
HETATM    7  C   UNL     1      -7.655   4.028  66.338  1.00  0.00    -0.089 C  
HETATM    8  N   UNL     1      -8.594   5.631  65.354  1.00  0.00    -0.150 N  
HETATM    9  C   UNL     1      -8.010   7.594  63.903  1.00  0.00    -0.091 C  
HETATM   10  O   UNL     1      -8.007   8.805  63.750  1.00  0.00    -0.141 OA 
HETATM   11  O   UNL     1      -7.944   6.759  62.842  1.00  0.00    -0.109 OA 
HETATM   12  C   UNL     1      -7.910   4.533  64.916  1.00  0.00    -0.086 C  
ENDROOT
BRANCH   3  13
HETATM   13  S   UNL     1      -7.271   9.047  66.838  1.00  0.00    -0.086 SA 
BRANCH  13  14
HETATM   14  C   UNL     1      -7.210   9.075  68.671  1.00  0.00    -0.072 C  
HETATM   15  C   UNL     1      -8.515   9.475  69.351  1.00  0.00    -0.146 C  
HETATM   16  N   UNL     1      -8.540  10.921  69.220  1.00  0.00    -0.371 NA 
HETATM   17  C   UNL     1      -7.158  11.413  69.416  1.00  0.00    -0.065 C  
HETATM   18  C   UNL     1      -6.265  10.206  69.099  1.00  0.00    -0.040 C  
HETATM   19  H   UNL     1      -9.212  11.365  69.848  1.00  0.00     0.000 HD 
BRANCH  17  20
HETATM   20  C   UNL     1      -6.967  12.713  68.583  1.00  0.00    -0.091 C  
HETATM   21  O   UNL     1      -5.986  12.833  67.848  1.00  0.00    -0.089 OA 
HETATM   22  N   UNL     1      -8.012  13.625  68.651  1.00  0.00    -0.252 N  
HETATM   23  H   UNL     1      -8.811  13.363  69.227  1.00  0.00     0.000 HD 
BRANCH  22  24
HETATM   24  C   UNL     1      -8.083  14.883  68.001  1.00  0.00    -0.136 A  
HETATM   25  C   UNL     1      -7.194  15.936  68.243  1.00  0.00    -0.118 A  
HETATM   26  C   UNL     1      -7.308  17.151  67.559  1.00  0.00    -0.180 A  
HETATM   27  C   UNL     1      -8.325  17.340  66.629  1.00  0.00    -0.291 A  
HETATM   28  C   UNL     1      -9.243  16.310  66.399  1.00  0.00    -0.332 A  
HETATM   29  C   UNL     1     -10.348  16.463  65.421  1.00  0.00    -0.262 C  
HETATM   30  C   UNL     1      -9.107  15.081  67.068  1.00  0.00    -0.249 A  
HETATM   31  O   UNL     1     -10.838  17.718  65.336  1.00  0.00    -0.550 OA 
HETATM   32  O   UNL     1     -10.797  15.526  64.784  1.00  0.00    -0.430 OA 
ENDBRANCH  22  24
ENDBRANCH  17  20
ENDBRANCH  13  14
ENDBRANCH   3  13
BRANCH   7  33
HETATM   33  C   UNL     1      -8.185   2.667  66.742  1.00  0.00    -0.084 C  
HETATM   34  O   UNL     1      -9.262   2.366  65.855  1.00  0.00    -0.260 OA 
HETATM   35  H   UNL     1      -9.594   1.513  66.109  1.00  0.00     0.000 HD 
HETATM   36  C   UNL     1      -8.699   2.675  68.173  1.00  0.00    -0.135 C  
ENDBRANCH   7  33
TORSDOF 5
ENDMDL
MODEL      248
REMARK 921   NORMALIZED FREE ENERGY PREDICTED BY IDOCK:   -3.33 KCAL/MOL
REMARK 922        TOTAL FREE ENERGY PREDICTED BY IDOCK:   -5.98 KCAL/MOL
REMARK 923 INTER-LIGAND FREE ENERGY PREDICTED BY IDOCK:   -4.87 KCAL/MOL
REMARK 924 INTRA-LIGAND FREE ENERGY PREDICTED BY IDOCK:   -1.11 KCAL/MOL
REMARK 927      BINDING AFFINITY PREDICTED BY RF-SCORE:    0.00 PKD
ROOT
HETATM    1  C   UNL     1      -7.999  14.289  67.439  1.00  0.00    -0.192 C  
HETATM    2  C   UNL     1      -7.698  12.858  66.988  1.00  0.00     0.025 C  
HETATM    3  C   UNL     1      -9.066  12.346  66.583  1.00  0.00    -0.204 C  
HETATM    4  C   UNL     1      -6.979  12.080  68.082  1.00  0.00    -0.079 C  
HETATM    5  O   UNL     1     -10.789  15.279  68.901  1.00  0.00    -0.229 OA 
HETATM    6  C   UNL     1      -9.998  13.310  66.718  1.00  0.00    -0.263 C  
HETATM    7  C   UNL     1      -8.290  14.719  68.912  1.00  0.00    -0.163 C  
HETATM    8  N   UNL     1      -9.450  14.504  67.173  1.00  0.00    -0.223 N  
HETATM    9  C   UNL     1     -11.444  13.224  66.347  1.00  0.00    -0.329 C  
HETATM   10  O   UNL     1     -11.903  12.419  65.552  1.00  0.00    -0.397 OA 
HETATM   11  O   UNL     1     -12.244  14.113  66.976  1.00  0.00    -0.432 OA 
HETATM   12  C   UNL     1      -9.715  14.986  68.423  1.00  0.00    -0.216 C  
ENDROOT
BRANCH   3  13
HETATM   13  S   UNL     1      -9.189  10.784  65.865  1.00  0.00    -0.198 SA 
BRANCH  13  14
HETATM   14  C   UNL     1      -8.558  10.995  64.156  1.00  0.00     0.158 C  
HETATM   15  C   UNL     1      -9.335  10.236  63.086  1.00  0.00    -0.312 C  
HETATM   16  N   UNL     1      -8.852   8.872  63.213  1.00  0.00    -0.430 NA 
HETATM   17  C   UNL     1      -7.399   8.936  63.491  1.00  0.00    -0.098 C  
HETATM   18  C   UNL     1      -7.173  10.337  64.075  1.00  0.00    -0.057 C  
HETATM   19  H   UNL     1      -9.076   8.294  62.402  1.00  0.00     0.000 HD 
BRANCH  17  20
HETATM   20  C   UNL     1      -7.000   7.703  64.350  1.00  0.00    -0.060 C  
HETATM   21  O   UNL     1      -6.219   6.865  63.897  1.00  0.00    -0.035 OA 
HETATM   22  N   UNL     1      -7.486   7.697  65.651  1.00  0.00    -0.076 N  
HETATM   23  H   UNL     1      -8.050   8.499  65.932  1.00  0.00     0.000 HD 
BRANCH  22  24
HETATM   24  C   UNL     1      -7.281   6.692  66.630  1.00  0.00    -0.073 A  
HETATM   25  C   UNL     1      -6.356   6.800  67.674  1.00  0.00    -0.044 A  
HETATM   26  C   UNL     1      -6.209   5.778  68.618  1.00  0.00    -0.029 A  
HETATM   27  C   UNL     1      -6.976   4.622  68.527  1.00  0.00    -0.052 A  
HETATM   28  C   UNL     1      -7.883   4.483  67.470  1.00  0.00    -0.089 A  
HETATM   29  C   UNL     1      -8.721   3.268  67.324  1.00  0.00    -0.120 C  
HETATM   30  C   UNL     1      -8.047   5.525  66.540  1.00  0.00    -0.105 A  
HETATM   31  O   UNL     1      -8.120   2.132  67.737  1.00  0.00    -0.062 OA 
HETATM   32  O   UNL     1      -9.838   3.294  66.836  1.00  0.00    -0.009 OA 
ENDBRANCH  22  24
ENDBRANCH  17  20
ENDBRANCH  13  14
ENDBRANCH   3  13
BRANCH   7  33
HETATM   33  C   UNL     1      -7.452  15.881  69.407  1.00  0.00    -0.213 C  
HETATM   34  O   UNL     1      -7.024  16.600  68.250  1.00  0.00    -0.147 OA 
HETATM   35  H   UNL     1      -6.499  17.329  68.560  1.00  0.00     0.000 HD 
HETATM   36  C   UNL     1      -6.233  15.397  70.176  1.00  0.00    -0.113 C  
ENDBRANCH   7  33
TORSDOF 5
ENDMDL
MODEL      249
REMARK 921   NORMALIZED FREE ENERGY PREDICTED BY IDOCK:   -3.21 KCAL/MOL
REMARK 922        TOTAL FREE ENERGY PREDICTED BY IDOCK:   -5.83 KCAL/MOL
REMARK 923 INTER-LIGAND FREE ENERGY PREDICTED BY IDOCK:   -5.23 KCAL/MOL
REMARK 924 INTRA-LIGAND FREE ENERGY PREDICTED BY IDOCK:   -0.59 KCAL/MOL
REMARK 927      BINDING AFFINITY PREDICTED BY RF-SCORE:    0.00 PKD
ROOT
HETATM    1  C   UNL     1      -8.923   6.589  66.701  1.00  0.00    -0.138 C  
HETATM    2  C   UNL     1      -8.384   7.821  67.431  1.00  0.00    -0.123 C  
HETATM    3  C   UNL     1      -8.040   8.756  66.289  1.00  0.00    -0.107 C  
HETATM    4  C   UNL     1      -7.244   7.447  68.368  1.00  0.00    -0.093 C  
HETATM    5  O   UNL     1      -7.888   5.515  63.755  1.00  0.00    -0.089 OA 
HETATM    6  C   UNL     1      -8.364   8.204  65.103  1.00  0.00    -0.143 C  
HETATM    7  C   UNL     1      -8.070   5.342  66.304  1.00  0.00    -0.109 C  
HETATM    8  N   UNL     1      -8.933   6.945  65.253  1.00  0.00     0.181 N  
HETATM    9  C   UNL     1      -8.254   8.838  63.753  1.00  0.00    -0.163 C  
HETATM   10  O   UNL     1      -8.205  10.043  63.562  1.00  0.00    -0.146 OA 
HETATM   11  O   UNL     1      -8.200   7.968  62.720  1.00  0.00    -0.167 OA 
HETATM   12  C   UNL     1      -8.283   5.809  64.862  1.00  0.00    -0.137 C  
ENDROOT
BRANCH   3  13
HETATM   13  S   UNL     1      -7.515  10.357  66.654  1.00  0.00    -0.120 SA 
BRANCH  13  14
HETATM   14  C   UNL     1      -7.766  10.538  68.462  1.00  0.00    -0.104 C  
HETATM   15  C   UNL     1      -9.093  11.171  68.866  1.00  0.00    -0.089 C  
HETATM   16  N   UNL     1      -8.880  12.590  68.642  1.00  0.00    -0.383 NA 
HETATM   17  C   UNL     1      -7.493  12.904  69.055  1.00  0.00     0.104 C  
HETATM   18  C   UNL     1      -6.750  11.565  68.984  1.00  0.00    -0.098 C  
HETATM   19  H   UNL     1      -9.575  13.175  69.108  1.00  0.00     0.000 HD 
BRANCH  17  20
HETATM   20  C   UNL     1      -6.971  14.088  68.191  1.00  0.00    -0.120 C  
HETATM   21  O   UNL     1      -6.102  13.891  67.340  1.00  0.00    -0.345 OA 
HETATM   22  N   UNL     1      -7.626  15.298  68.375  1.00  0.00    -0.112 N  
HETATM   23  H   UNL     1      -8.392  15.305  69.048  1.00  0.00     0.000 HD 
BRANCH  22  24
HETATM   24  C   UNL     1      -7.340  16.525  67.726  1.00  0.00    -0.138 A  
HETATM   25  C   UNL     1      -7.494  16.733  66.351  1.00  0.00    -0.302 A  
HETATM   26  C   UNL     1      -7.208  17.973  65.770  1.00  0.00    -0.204 A  
HETATM   27  C   UNL     1      -6.749  19.026  66.554  1.00  0.00    -0.211 A  
HETATM   28  C   UNL     1      -6.558  18.827  67.925  1.00  0.00    -0.223 A  
HETATM   29  C   UNL     1      -6.067  19.916  68.805  1.00  0.00    -0.266 C  
HETATM   30  C   UNL     1      -6.874  17.587  68.509  1.00  0.00    -0.214 A  
HETATM   31  O   UNL     1      -5.197  20.757  68.205  1.00  0.00    -0.230 OA 
HETATM   32  O   UNL     1      -6.391  20.014  69.975  1.00  0.00    -0.345 OA 
ENDBRANCH  22  24
ENDBRANCH  17  20
ENDBRANCH  13  14
ENDBRANCH   3  13
BRANCH   7  33
HETATM   33  C   UNL     1      -8.656   4.013  66.740  1.00  0.00    -0.106 C  
HETATM   34  O   UNL     1     -10.036   4.034  66.377  1.00  0.00    -0.386 OA 
HETATM   35  H   UNL     1     -10.403   3.202  66.651  1.00  0.00     0.000 HD 
HETATM   36  C   UNL     1      -8.534   3.822  68.244  1.00  0.00    -0.108 C  
ENDBRANCH   7  33
TORSDOF 5
ENDMDL
MODEL      250
REMARK 921   NORMALIZED FREE ENERGY PREDICTED BY IDOCK:   -2.98 KCAL/MOL
REMARK 922        TOTAL FREE ENERGY PREDICTED BY IDOCK:   -5.53 KCAL/MOL
REMARK 923 INTER-LIGAND FREE ENERGY PREDICTED BY IDOCK:   -5.47 KCAL/MOL
REMARK 924 INTRA-LIGAND FREE ENERGY PREDICTED BY IDOCK:   -0.06 KCAL/MOL
REMARK 927      BINDING AFFINITY PREDICTED BY RF-SCORE:    0.00 PKD
ROOT
HETATM    1  C   UNL     1     -11.873  13.094  70.830  1.00  0.00     0.108 C  
HETATM    2  C   UNL     1     -11.766  11.773  70.063  1.00  0.00    -0.386 C  
HETATM    3  C   UNL     1     -11.722  12.233  68.620  1.00  0.00    -0.328 C  
HETATM    4  C   UNL     1     -12.899  10.829  70.439  1.00  0.00    -0.285 C  
HETATM    5  O   UNL     1     -13.442  15.795  69.762  1.00  0.00     0.437 OA 
HETATM    6  C   UNL     1     -11.745  13.579  68.545  1.00  0.00    -0.357 C  
HETATM    7  C   UNL     1     -13.213  13.753  71.290  1.00  0.00    -0.331 C  
HETATM    8  N   UNL     1     -11.787  14.170  69.802  1.00  0.00    -0.302 N  
HETATM    9  C   UNL     1     -11.638  14.415  67.309  1.00  0.00    -0.379 C  
HETATM   10  O   UNL     1     -11.156  14.026  66.257  1.00  0.00    -0.301 OA 
HETATM   11  O   UNL     1     -12.131  15.668  67.427  1.00  0.00     0.274 OA 
HETATM   12  C   UNL     1     -12.896  14.830  70.250  1.00  0.00    -0.217 C  
ENDROOT
BRANCH   3  13
HETATM   13  S   UNL     1     -11.459  11.064  67.382  1.00  0.00    -0.006 SA 
BRANCH  13  14
HETATM   14  C   UNL     1      -9.852  10.284  67.798  1.00  0.00    -0.169 C  
HETATM   15  C   UNL     1      -9.312  10.627  69.182  1.00  0.00    -0.160 C  
HETATM   16  N   UNL     1      -8.747  11.954  69.011  1.00  0.00    -0.352 NA 
HETATM   17  C   UNL     1      -8.098  11.996  67.681  1.00  0.00    -0.155 C  
HETATM   18  C   UNL     1      -8.779  10.882  66.877  1.00  0.00    -0.144 C  
HETATM   19  H   UNL     1      -8.117  12.219  69.769  1.00  0.00     0.000 HD 
BRANCH  17  20
HETATM   20  C   UNL     1      -8.170  13.451  67.136  1.00  0.00    -0.110 C  
HETATM   21  O   UNL     1      -8.332  13.649  65.931  1.00  0.00     1.193 OA 
HETATM   22  N   UNL     1      -8.158  14.452  68.098  1.00  0.00    -0.128 N  
HETATM   23  H   UNL     1      -8.112  14.151  69.071  1.00  0.00     0.000 HD 
BRANCH  22  24
HETATM   24  C   UNL     1      -8.201  15.851  67.869  1.00  0.00    -0.145 A  
HETATM   25  C   UNL     1      -9.096  16.717  68.507  1.00  0.00    -0.241 A  
HETATM   26  C   UNL     1      -9.081  18.092  68.248  1.00  0.00    -0.309 A  
HETATM   27  C   UNL     1      -8.177  18.624  67.335  1.00  0.00    -0.267 A  
HETATM   28  C   UNL     1      -7.297  17.769  66.664  1.00  0.00    -0.262 A  
HETATM   29  C   UNL     1      -6.317  18.285  65.677  1.00  0.00    -0.265 C  
HETATM   30  C   UNL     1      -7.297  16.391  66.948  1.00  0.00    -0.269 A  
HETATM   31  O   UNL     1      -6.755  19.350  64.972  1.00  0.00    -0.412 OA 
HETATM   32  O   UNL     1      -5.230  17.765  65.495  1.00  0.00    -0.164 OA 
ENDBRANCH  22  24
ENDBRANCH  17  20
ENDBRANCH  13  14
ENDBRANCH   3  13
BRANCH   7  33
HETATM   33  C   UNL     1     -13.255  14.136  72.756  1.00  0.00    -0.509 C  
HETATM   34  O   UNL     1     -14.252  15.150  72.886  1.00  0.00    -0.396 OA 
HETATM   35  H   UNL     1     -14.278  15.390  73.805  1.00  0.00     0.000 HD 
HETATM   36  C   UNL     1     -11.917  14.683  73.225  1.00  0.00    -0.132 C  
ENDBRANCH   7  33
TORSDOF 5
ENDMDL
MODEL      251
REMARK 921   NORMALIZED FREE ENERGY PREDICTED BY IDOCK:   -2.91 KCAL/MOL
REMARK 922        TOTAL FREE ENERGY PREDICTED BY IDOCK:   -5.44 KCAL/MOL
REMARK 923 INTER-LIGAND FREE ENERGY PREDICTED BY IDOCK:   -4.30 KCAL/MOL
REMARK 924 INTRA-LIGAND FREE ENERGY PREDICTED BY IDOCK:   -1.14 KCAL/MOL
REMARK 927      BINDING AFFINITY PREDICTED BY RF-SCORE:    0.00 PKD
ROOT
HETATM    1  C   UNL     1     -11.493  14.848  68.858  1.00  0.00    -0.299 C  
HETATM    2  C   UNL     1     -11.730  15.196  67.386  1.00  0.00    -0.189 C  
HETATM    3  C   UNL     1     -10.503  14.620  66.709  1.00  0.00    -0.277 C  
HETATM    4  C   UNL     1     -11.964  16.690  67.208  1.00  0.00     1.431 C  
HETATM    5  O   UNL     1      -8.540  14.697  70.328  1.00  0.00     0.722 OA 
HETATM    6  C   UNL     1      -9.709  13.998  67.604  1.00  0.00    -0.228 C  
HETATM    7  C   UNL     1     -10.816  15.792  69.901  1.00  0.00    -0.330 C  
HETATM    8  N   UNL     1     -10.239  14.043  68.889  1.00  0.00    -0.197 N  
HETATM    9  C   UNL     1      -8.452  13.239  67.320  1.00  0.00    -0.201 C  
HETATM   10  O   UNL     1      -8.164  12.771  66.230  1.00  0.00     0.337 OA 
HETATM   11  O   UNL     1      -7.619  13.107  68.376  1.00  0.00    -0.121 OA 
HETATM   12  C   UNL     1      -9.662  14.787  69.879  1.00  0.00     0.311 C  
ENDROOT
BRANCH   3  13
HETATM   13  S   UNL     1     -10.406  14.659  64.989  1.00  0.00    -0.348 SA 
BRANCH  13  14
HETATM   14  C   UNL     1     -12.019  14.007  64.407  1.00  0.00    -0.454 C  
HETATM   15  C   UNL     1     -12.768  13.149  65.422  1.00  0.00    -0.360 C  
HETATM   16  N   UNL     1     -12.097  11.863  65.347  1.00  0.00    -0.332 NA 
HETATM   17  C   UNL     1     -11.766  11.613  63.925  1.00  0.00    -0.273 C  
HETATM   18  C   UNL     1     -11.748  13.004  63.277  1.00  0.00    -0.349 C  
HETATM   19  H   UNL     1     -12.638  11.107  65.767  1.00  0.00     0.000 HD 
BRANCH  17  20
HETATM   20  C   UNL     1     -10.476  10.748  63.858  1.00  0.00    -0.181 C  
HETATM   21  O   UNL     1      -9.947  10.517  62.769  1.00  0.00    -0.243 OA 
HETATM   22  N   UNL     1      -9.936  10.382  65.083  1.00  0.00    -0.306 N  
HETATM   23  H   UNL     1     -10.421  10.716  65.915  1.00  0.00     0.000 HD 
BRANCH  22  24
HETATM   24  C   UNL     1      -8.779   9.591  65.299  1.00  0.00    -0.166 A  
HETATM   25  C   UNL     1      -7.612   9.691  64.532  1.00  0.00    -0.127 A  
HETATM   26  C   UNL     1      -6.497   8.891  64.803  1.00  0.00    -0.066 A  
HETATM   27  C   UNL     1      -6.534   7.965  65.840  1.00  0.00    -0.042 A  
HETATM   28  C   UNL     1      -7.703   7.827  66.596  1.00  0.00    -0.098 A  
HETATM   29  C   UNL     1      -7.795   6.851  67.709  1.00  0.00    -0.113 C  
HETATM   30  C   UNL     1      -8.811   8.654  66.337  1.00  0.00    -0.167 A  
HETATM   31  O   UNL     1      -7.088   5.718  67.507  1.00  0.00    -0.071 OA 
HETATM   32  O   UNL     1      -8.482   7.043  68.697  1.00  0.00    -0.121 OA 
ENDBRANCH  22  24
ENDBRANCH  17  20
ENDBRANCH  13  14
ENDBRANCH   3  13
BRANCH   7  33
HETATM   33  C   UNL     1     -11.602  15.982  71.183  1.00  0.00    -0.443 C  
HETATM   34  O   UNL     1     -10.965  15.180  72.177  1.00  0.00    -0.449 OA 
HETATM   35  H   UNL     1     -11.458  15.298  72.981  1.00  0.00     0.000 HD 
HETATM   36  C   UNL     1     -13.044  15.528  71.020  1.00  0.00    -0.551 C  
ENDBRANCH   7  33
TORSDOF 5
ENDMDL
MODEL      252
REMARK 921   NORMALIZED FREE ENERGY PREDICTED BY IDOCK:   -2.87 KCAL/MOL
REMARK 922        TOTAL FREE ENERGY PREDICTED BY IDOCK:   -5.39 KCAL/MOL
REMARK 923 INTER-LIGAND FREE ENERGY PREDICTED BY IDOCK:   -4.63 KCAL/MOL
REMARK 924 INTRA-LIGAND FREE ENERGY PREDICTED BY IDOCK:   -0.76 KCAL/MOL
REMARK 927      BINDING AFFINITY PREDICTED BY RF-SCORE:    0.00 PKD
ROOT
HETATM    1  C   UNL     1     -10.521   9.401  68.375  1.00  0.00    -0.218 C  
HETATM    2  C   UNL     1      -9.826  10.451  69.246  1.00  0.00    -0.243 C  
HETATM    3  C   UNL     1      -9.488  11.537  68.244  1.00  0.00    -0.189 C  
HETATM    4  C   UNL     1      -8.656   9.843  70.007  1.00  0.00    -0.196 C  
HETATM    5  O   UNL     1      -9.802   8.765  65.216  1.00  0.00     0.224 OA 
HETATM    6  C   UNL     1      -9.944  11.217  67.017  1.00  0.00    -0.192 C  
HETATM    7  C   UNL     1      -9.810   8.180  67.710  1.00  0.00    -0.209 C  
HETATM    8  N   UNL     1     -10.608   9.995  67.011  1.00  0.00    -0.232 N  
HETATM    9  C   UNL     1      -9.880  12.059  65.783  1.00  0.00    -0.242 C  
HETATM   10  O   UNL     1      -9.742  13.272  65.786  1.00  0.00    -0.234 OA 
HETATM   11  O   UNL     1      -9.978  11.373  64.623  1.00  0.00    -0.242 OA 
HETATM   12  C   UNL     1     -10.087   8.897  66.386  1.00  0.00    -0.263 C  
ENDROOT
BRANCH   3  13
HETATM   13  S   UNL     1      -8.801  13.011  68.816  1.00  0.00     0.292 SA 
BRANCH  13  14
HETATM   14  C   UNL     1      -7.253  13.219  67.855  1.00  0.00    -0.137 C  
HETATM   15  C   UNL     1      -6.716  11.941  67.219  1.00  0.00    -0.138 C  
HETATM   16  N   UNL     1      -6.069  11.253  68.322  1.00  0.00    -0.046 NA 
HETATM   17  C   UNL     1      -5.395  12.276  69.154  1.00  0.00    -0.063 C  
HETATM   18  C   UNL     1      -6.129  13.585  68.835  1.00  0.00    -0.089 C  
HETATM   19  H   UNL     1      -5.437  10.514  68.013  1.00  0.00     0.000 HD 
BRANCH  17  20
HETATM   20  C   UNL     1      -5.369  11.783  70.628  1.00  0.00    -0.145 C  
HETATM   21  O   UNL     1      -5.411  12.599  71.551  1.00  0.00    -0.373 OA 
HETATM   22  N   UNL     1      -5.412  10.405  70.799  1.00  0.00    -0.077 N  
HETATM   23  H   UNL     1      -5.467   9.841  69.952  1.00  0.00     0.000 HD 
BRANCH  22  24
HETATM   24  C   UNL     1      -5.388   9.702  72.030  1.00  0.00    -0.057 A  
HETATM   25  C   UNL     1      -5.155  10.307  73.269  1.00  0.00     0.128 A  
HETATM   26  C   UNL     1      -5.157   9.560  74.452  1.00  0.00    -0.137 A  
HETATM   27  C   UNL     1      -5.380   8.188  74.414  1.00  0.00    -0.077 A  
HETATM   28  C   UNL     1      -5.583   7.560  73.181  1.00  0.00    -0.044 A  
HETATM   29  C   UNL     1      -5.820   6.099  73.085  1.00  0.00    -0.041 C  
HETATM   30  C   UNL     1      -5.607   8.320  71.998  1.00  0.00    -0.039 A  
HETATM   31  O   UNL     1      -5.162   5.372  74.015  1.00  0.00    -0.021 OA 
HETATM   32  O   UNL     1      -6.516   5.600  72.218  1.00  0.00    -0.050 OA 
ENDBRANCH  22  24
ENDBRANCH  17  20
ENDBRANCH  13  14
ENDBRANCH   3  13
BRANCH   7  33
HETATM   33  C   UNL     1     -10.474   6.843  67.975  1.00  0.00    -0.211 C  
HETATM   34  O   UNL     1     -11.532   6.715  67.026  1.00  0.00    -0.763 OA 
HETATM   35  H   UNL     1     -11.948   5.877  67.192  1.00  0.00     0.000 HD 
HETATM   36  C   UNL     1     -11.050   6.780  69.381  1.00  0.00    -0.310 C  
ENDBRANCH   7  33
TORSDOF 5
ENDMDL
MODEL      253
REMARK 921   NORMALIZED FREE ENERGY PREDICTED BY IDOCK:   -2.85 KCAL/MOL
REMARK 922        TOTAL FREE ENERGY PREDICTED BY IDOCK:   -5.37 KCAL/MOL
REMARK 923 INTER-LIGAND FREE ENERGY PREDICTED BY IDOCK:   -4.29 KCAL/MOL
REMARK 924 INTRA-LIGAND FREE ENERGY PREDICTED BY IDOCK:   -1.08 KCAL/MOL
REMARK 927      BINDING AFFINITY PREDICTED BY RF-SCORE:    0.00 PKD
ROOT
HETATM    1  C   UNL     1      -8.596   7.899  64.962  1.00  0.00     0.015 C  
HETATM    2  C   UNL     1      -8.170   7.559  66.393  1.00  0.00    -0.122 C  
HETATM    3  C   UNL     1      -8.533   8.820  67.152  1.00  0.00    -0.110 C  
HETATM    4  C   UNL     1      -6.709   7.134  66.442  1.00  0.00    -0.053 C  
HETATM    5  O   UNL     1      -8.480  10.905  63.602  1.00  0.00    -0.063 OA 
HETATM    6  C   UNL     1      -9.114   9.721  66.335  1.00  0.00    -0.155 C  
HETATM    7  C   UNL     1      -7.655   8.495  63.868  1.00  0.00    -0.129 C  
HETATM    8  N   UNL     1      -9.234   9.244  65.035  1.00  0.00    -0.217 N  
HETATM    9  C   UNL     1      -9.683  11.050  66.718  1.00  0.00    -0.193 C  
HETATM   10  O   UNL     1     -10.027  11.349  67.851  1.00  0.00    -0.171 OA 
HETATM   11  O   UNL     1      -9.788  11.936  65.703  1.00  0.00    -0.235 OA 
HETATM   12  C   UNL     1      -8.500   9.763  64.007  1.00  0.00    -0.182 C  
ENDROOT
BRANCH   3  13
HETATM   13  S   UNL     1      -8.351   8.840  68.866  1.00  0.00    -0.128 SA 
BRANCH  13  14
HETATM   14  C   UNL     1      -6.837   9.829  69.172  1.00  0.00    -0.054 C  
HETATM   15  C   UNL     1      -5.528   9.063  69.019  1.00  0.00    -0.037 C  
HETATM   16  N   UNL     1      -5.421   8.313  70.258  1.00  0.00    -0.022 NA 
HETATM   17  C   UNL     1      -5.910   9.184  71.351  1.00  0.00    -0.066 C  
HETATM   18  C   UNL     1      -6.812  10.214  70.658  1.00  0.00    -0.015 C  
HETATM   19  H   UNL     1      -4.480   7.956  70.426  1.00  0.00     0.000 HD 
BRANCH  17  20
HETATM   20  C   UNL     1      -6.527   8.290  72.464  1.00  0.00    -0.085 C  
HETATM   21  O   UNL     1      -6.651   8.730  73.608  1.00  0.00    -0.281 OA 
HETATM   22  N   UNL     1      -7.010   7.058  72.043  1.00  0.00    -0.064 N  
HETATM   23  H   UNL     1      -6.928   6.851  71.048  1.00  0.00     0.000 HD 
BRANCH  22  24
HETATM   24  C   UNL     1      -7.605   6.058  72.853  1.00  0.00    -0.102 A  
HETATM   25  C   UNL     1      -6.899   5.285  73.781  1.00  0.00    -0.080 A  
HETATM   26  C   UNL     1      -7.546   4.321  74.561  1.00  0.00    -0.080 A  
HETATM   27  C   UNL     1      -8.912   4.103  74.418  1.00  0.00    -0.105 A  
HETATM   28  C   UNL     1      -9.628   4.844  73.472  1.00  0.00    -0.142 A  
HETATM   29  C   UNL     1     -11.085   4.648  73.276  1.00  0.00    -0.321 C  
HETATM   30  C   UNL     1      -8.979   5.832  72.709  1.00  0.00    -0.127 A  
HETATM   31  O   UNL     1     -11.499   3.376  73.464  1.00  0.00    -0.204 OA 
HETATM   32  O   UNL     1     -11.832   5.550  72.937  1.00  0.00    -0.247 OA 
ENDBRANCH  22  24
ENDBRANCH  17  20
ENDBRANCH  13  14
ENDBRANCH   3  13
BRANCH   7  33
HETATM   33  C   UNL     1      -7.665   7.745  62.551  1.00  0.00    -0.124 C  
HETATM   34  O   UNL     1      -8.763   6.835  62.606  1.00  0.00    -0.340 OA 
HETATM   35  H   UNL     1      -8.769   6.365  61.780  1.00  0.00     0.000 HD 
HETATM   36  C   UNL     1      -6.375   6.965  62.348  1.00  0.00    -0.047 C  
ENDBRANCH   7  33
TORSDOF 5
ENDMDL
MODEL      254
REMARK 921   NORMALIZED FREE ENERGY PREDICTED BY IDOCK:   -2.84 KCAL/MOL
REMARK 922        TOTAL FREE ENERGY PREDICTED BY IDOCK:   -5.35 KCAL/MOL
REMARK 923 INTER-LIGAND FREE ENERGY PREDICTED BY IDOCK:   -4.15 KCAL/MOL
REMARK 924 INTRA-LIGAND FREE ENERGY PREDICTED BY IDOCK:   -1.21 KCAL/MOL
REMARK 927      BINDING AFFINITY PREDICTED BY RF-SCORE:    0.00 PKD
ROOT
HETATM    1  C   UNL     1      -9.506  17.334  67.598  1.00  0.00    -0.246 C  
HETATM    2  C   UNL     1      -9.940  15.884  67.373  1.00  0.00    -0.239 C  
HETATM    3  C   UNL     1      -8.620  15.177  67.141  1.00  0.00    -0.223 C  
HETATM    4  C   UNL     1     -10.967  15.788  66.252  1.00  0.00    -0.163 C  
HETATM    5  O   UNL     1      -6.921  18.796  66.156  1.00  0.00    -0.224 OA 
HETATM    6  C   UNL     1      -7.589  16.038  67.259  1.00  0.00    -0.194 C  
HETATM    7  C   UNL     1      -9.434  18.428  66.486  1.00  0.00    -0.317 C  
HETATM    8  N   UNL     1      -8.016  17.322  67.574  1.00  0.00    -0.180 N  
HETATM    9  C   UNL     1      -6.131  15.713  67.180  1.00  0.00     0.212 C  
HETATM   10  O   UNL     1      -5.664  14.600  67.360  1.00  0.00    -0.341 OA 
HETATM   11  O   UNL     1      -5.333  16.761  66.877  1.00  0.00    -0.209 OA 
HETATM   12  C   UNL     1      -7.918  18.352  66.682  1.00  0.00    -0.258 C  
ENDROOT
BRANCH   3  13
HETATM   13  S   UNL     1      -8.612  13.462  66.975  1.00  0.00    -0.106 SA 
BRANCH  13  14
HETATM   14  C   UNL     1      -9.218  12.827  68.586  1.00  0.00     0.041 C  
HETATM   15  C   UNL     1      -8.142  12.652  69.652  1.00  0.00     1.556 C  
HETATM   16  N   UNL     1      -7.491  11.407  69.282  1.00  0.00    -0.307 NA 
HETATM   17  C   UNL     1      -8.540  10.478  68.805  1.00  0.00    -0.146 C  
HETATM   18  C   UNL     1      -9.701  11.384  68.378  1.00  0.00    -0.203 C  
HETATM   19  H   UNL     1      -6.926  11.015  70.037  1.00  0.00     0.000 HD 
BRANCH  17  20
HETATM   20  C   UNL     1      -7.917   9.525  67.745  1.00  0.00    -0.099 C  
HETATM   21  O   UNL     1      -7.044   8.722  68.079  1.00  0.00    -0.077 OA 
HETATM   22  N   UNL     1      -8.492   9.576  66.483  1.00  0.00    -0.125 N  
HETATM   23  H   UNL     1      -9.272  10.222  66.361  1.00  0.00     0.000 HD 
BRANCH  22  24
HETATM   24  C   UNL     1      -8.107   8.825  65.343  1.00  0.00    -0.125 A  
HETATM   25  C   UNL     1      -7.463   9.374  64.229  1.00  0.00    -0.110 A  
HETATM   26  C   UNL     1      -7.096   8.576  63.140  1.00  0.00    -0.091 A  
HETATM   27  C   UNL     1      -7.379   7.215  63.140  1.00  0.00    -0.084 A  
HETATM   28  C   UNL     1      -8.051   6.654  64.231  1.00  0.00    -0.044 A  
HETATM   29  C   UNL     1      -8.381   5.209  64.279  1.00  0.00    -0.137 C  
HETATM   30  C   UNL     1      -8.393   7.455  65.336  1.00  0.00    -0.122 A  
HETATM   31  O   UNL     1      -8.662   4.669  63.074  1.00  0.00    -0.113 OA 
HETATM   32  O   UNL     1      -8.431   4.579  65.321  1.00  0.00    -0.118 OA 
ENDBRANCH  22  24
ENDBRANCH  17  20
ENDBRANCH  13  14
ENDBRANCH   3  13
BRANCH   7  33
HETATM   33  C   UNL     1     -10.155  19.718  66.824  1.00  0.00    -0.444 C  
HETATM   34  O   UNL     1      -9.249  20.783  66.535  1.00  0.00    -0.594 OA 
HETATM   35  H   UNL     1      -9.701  21.591  66.746  1.00  0.00     0.000 HD 
HETATM   36  C   UNL     1     -10.539  19.770  68.294  1.00  0.00    -0.318 C  
ENDBRANCH   7  33
TORSDOF 5
ENDMDL
MODEL      255
REMARK 921   NORMALIZED FREE ENERGY PREDICTED BY IDOCK:   -2.83 KCAL/MOL
REMARK 922        TOTAL FREE ENERGY PREDICTED BY IDOCK:   -5.34 KCAL/MOL
REMARK 923 INTER-LIGAND FREE ENERGY PREDICTED BY IDOCK:   -4.35 KCAL/MOL
REMARK 924 INTRA-LIGAND FREE ENERGY PREDICTED BY IDOCK:   -0.98 KCAL/MOL
REMARK 927      BINDING AFFINITY PREDICTED BY RF-SCORE:    0.00 PKD
ROOT
HETATM    1  C   UNL     1      -8.082  11.844  68.424  1.00  0.00    -0.155 C  
HETATM    2  C   UNL     1      -9.612  11.895  68.464  1.00  0.00    -0.160 C  
HETATM    3  C   UNL     1      -9.996  10.456  68.189  1.00  0.00    -0.149 C  
HETATM    4  C   UNL     1     -10.149  12.938  67.493  1.00  0.00    -0.214 C  
HETATM    5  O   UNL     1      -6.291   9.848  66.500  1.00  0.00    -0.067 OA 
HETATM    6  C   UNL     1      -8.899   9.682  68.062  1.00  0.00    -0.119 C  
HETATM    7  C   UNL     1      -7.211  12.144  67.163  1.00  0.00    -0.117 C  
HETATM    8  N   UNL     1      -7.727  10.410  68.233  1.00  0.00    -0.094 N  
HETATM    9  C   UNL     1      -8.859   8.200  67.866  1.00  0.00    -0.131 C  
HETATM   10  O   UNL     1      -9.774   7.444  68.153  1.00  0.00    -0.147 OA 
HETATM   11  O   UNL     1      -7.713   7.731  67.325  1.00  0.00    -0.108 OA 
HETATM   12  C   UNL     1      -6.873  10.651  67.194  1.00  0.00    -0.083 C  
ENDROOT
BRANCH   3  13
HETATM   13  S   UNL     1     -11.658  10.007  68.276  1.00  0.00     0.553 SA 
BRANCH  13  14
HETATM   14  C   UNL     1     -12.264  10.735  69.847  1.00  0.00    -0.313 C  
HETATM   15  C   UNL     1     -11.199  10.920  70.922  1.00  0.00     0.496 C  
HETATM   16  N   UNL     1     -11.033   9.588  71.475  1.00  0.00    -0.357 NA 
HETATM   17  C   UNL     1     -12.373   8.960  71.539  1.00  0.00    -0.324 C  
HETATM   18  C   UNL     1     -13.212   9.722  70.506  1.00  0.00     0.060 C  
HETATM   19  H   UNL     1     -10.552   9.588  72.375  1.00  0.00     0.000 HD 
BRANCH  17  20
HETATM   20  C   UNL     1     -12.212   7.422  71.372  1.00  0.00    -0.342 C  
HETATM   21  O   UNL     1     -13.158   6.746  70.963  1.00  0.00    -0.215 OA 
HETATM   22  N   UNL     1     -10.936   6.925  71.600  1.00  0.00    -0.230 N  
HETATM   23  H   UNL     1     -10.218   7.606  71.846  1.00  0.00     0.000 HD 
BRANCH  22  24
HETATM   24  C   UNL     1     -10.527   5.570  71.527  1.00  0.00    -0.235 A  
HETATM   25  C   UNL     1     -10.525   4.697  72.621  1.00  0.00    -0.258 A  
HETATM   26  C   UNL     1     -10.122   3.364  72.482  1.00  0.00    -0.232 A  
HETATM   27  C   UNL     1      -9.701   2.883  71.247  1.00  0.00    -0.205 A  
HETATM   28  C   UNL     1      -9.666   3.750  70.149  1.00  0.00    -0.217 A  
HETATM   29  C   UNL     1      -9.220   3.289  68.812  1.00  0.00    -0.165 C  
HETATM   30  C   UNL     1     -10.098   5.082  70.288  1.00  0.00    -0.339 A  
HETATM   31  O   UNL     1      -8.254   2.346  68.849  1.00  0.00    -0.051 OA 
HETATM   32  O   UNL     1      -9.662   3.753  67.775  1.00  0.00    -0.170 OA 
ENDBRANCH  22  24
ENDBRANCH  17  20
ENDBRANCH  13  14
ENDBRANCH   3  13
BRANCH   7  33
HETATM   33  C   UNL     1      -6.103  13.153  67.388  1.00  0.00    -0.018 C  
HETATM   34  O   UNL     1      -5.352  12.695  68.512  1.00  0.00    -0.055 OA 
HETATM   35  H   UNL     1      -4.657  13.328  68.653  1.00  0.00     0.000 HD 
HETATM   36  C   UNL     1      -6.664  14.534  67.689  1.00  0.00    -0.194 C  
ENDBRANCH   7  33
TORSDOF 5
ENDMDL
MODEL      256
REMARK 921   NORMALIZED FREE ENERGY PREDICTED BY IDOCK:   -2.80 KCAL/MOL
REMARK 922        TOTAL FREE ENERGY PREDICTED BY IDOCK:   -5.30 KCAL/MOL
REMARK 923 INTER-LIGAND FREE ENERGY PREDICTED BY IDOCK:   -5.06 KCAL/MOL
REMARK 924 INTRA-LIGAND FREE ENERGY PREDICTED BY IDOCK:   -0.24 KCAL/MOL
REMARK 927      BINDING AFFINITY PREDICTED BY RF-SCORE:    0.00 PKD
ROOT
HETATM    1  C   UNL     1      -8.879   7.131  69.537  1.00  0.00    -0.137 C  
HETATM    2  C   UNL     1      -9.155   7.679  68.135  1.00  0.00    -0.132 C  
HETATM    3  C   UNL     1      -8.829   6.493  67.248  1.00  0.00    -0.112 C  
HETATM    4  C   UNL     1      -8.363   8.954  67.880  1.00  0.00    -0.118 C  
HETATM    5  O   UNL     1      -6.552   4.914  70.294  1.00  0.00    -0.033 OA 
HETATM    6  C   UNL     1      -8.476   5.424  67.989  1.00  0.00    -0.097 C  
HETATM    7  C   UNL     1      -7.528   7.282  70.305  1.00  0.00    -0.084 C  
HETATM    8  N   UNL     1      -8.523   5.695  69.351  1.00  0.00    -0.106 N  
HETATM    9  C   UNL     1      -8.160   4.048  67.493  1.00  0.00    -0.091 C  
HETATM   10  O   UNL     1      -8.521   3.608  66.414  1.00  0.00    -0.103 OA 
HETATM   11  O   UNL     1      -7.415   3.299  68.336  1.00  0.00    -0.050 OA 
HETATM   12  C   UNL     1      -7.389   5.771  70.109  1.00  0.00    -0.073 C  
ENDROOT
BRANCH   3  13
HETATM   13  S   UNL     1      -9.133   6.612  65.556  1.00  0.00     0.308 SA 
BRANCH  13  14
HETATM   14  C   UNL     1      -7.484   6.866  64.794  1.00  0.00    -0.096 C  
HETATM   15  C   UNL     1      -6.553   7.791  65.570  1.00  0.00    -0.045 C  
HETATM   16  N   UNL     1      -7.034   9.121  65.237  1.00  0.00    -0.083 NA 
HETATM   17  C   UNL     1      -7.417   9.113  63.807  1.00  0.00    -0.106 C  
HETATM   18  C   UNL     1      -7.680   7.637  63.480  1.00  0.00    -0.130 C  
HETATM   19  H   UNL     1      -6.362   9.855  65.464  1.00  0.00     0.000 HD 
BRANCH  17  20
HETATM   20  C   UNL     1      -8.570  10.135  63.594  1.00  0.00    -0.197 C  
HETATM   21  O   UNL     1      -8.997  10.351  62.458  1.00  0.00    -0.210 OA 
HETATM   22  N   UNL     1      -9.125  10.662  64.752  1.00  0.00    -0.201 N  
HETATM   23  H   UNL     1      -8.739  10.331  65.636  1.00  0.00     0.000 HD 
BRANCH  22  24
HETATM   24  C   UNL     1     -10.172  11.615  64.835  1.00  0.00    -0.270 A  
HETATM   25  C   UNL     1     -10.930  12.036  63.736  1.00  0.00    -0.492 A  
HETATM   26  C   UNL     1     -11.960  12.971  63.885  1.00  0.00    -0.551 A  
HETATM   27  C   UNL     1     -12.244  13.510  65.134  1.00  0.00    -0.462 A  
HETATM   28  C   UNL     1     -11.476  13.125  66.238  1.00  0.00    -0.372 A  
HETATM   29  C   UNL     1     -11.734  13.674  67.591  1.00  0.00    -0.363 C  
HETATM   30  C   UNL     1     -10.459  12.165  66.089  1.00  0.00    -0.281 A  
HETATM   31  O   UNL     1     -12.165  14.954  67.593  1.00  0.00    -0.159 OA 
HETATM   32  O   UNL     1     -11.534  13.036  68.610  1.00  0.00    -0.262 OA 
ENDBRANCH  22  24
ENDBRANCH  17  20
ENDBRANCH  13  14
ENDBRANCH   3  13
BRANCH   7  33
HETATM   33  C   UNL     1      -7.660   7.832  71.712  1.00  0.00    -0.085 C  
HETATM   34  O   UNL     1      -9.041   7.738  72.060  1.00  0.00    -0.126 OA 
HETATM   35  H   UNL     1      -9.124   8.083  72.942  1.00  0.00     0.000 HD 
HETATM   36  C   UNL     1      -7.223   9.287  71.781  1.00  0.00     0.262 C  
ENDBRANCH   7  33
TORSDOF 5
ENDMDL
MODEL      257
REMARK 921   NORMALIZED FREE ENERGY PREDICTED BY IDOCK:   -2.60 KCAL/MOL
REMARK 922        TOTAL FREE ENERGY PREDICTED BY IDOCK:   -5.05 KCAL/MOL
REMARK 923 INTER-LIGAND FREE ENERGY PREDICTED BY IDOCK:   -4.53 KCAL/MOL
REMARK 924 INTRA-LIGAND FREE ENERGY PREDICTED BY IDOCK:   -0.52 KCAL/MOL
REMARK 927      BINDING AFFINITY PREDICTED BY RF-SCORE:    0.00 PKD
ROOT
HETATM    1  C   UNL     1     -11.985  13.538  68.193  1.00  0.00    -0.341 C  
HETATM    2  C   UNL     1     -11.919  13.542  66.664  1.00  0.00    -0.452 C  
HETATM    3  C   UNL     1     -10.426  13.568  66.400  1.00  0.00    -0.287 C  
HETATM    4  C   UNL     1     -12.730  14.693  66.084  1.00  0.00     0.231 C  
HETATM    5  O   UNL     1      -9.836  15.041  70.199  1.00  0.00    -0.023 OA 
HETATM    6  C   UNL     1      -9.734  13.532  67.556  1.00  0.00    -0.228 C  
HETATM    7  C   UNL     1     -12.131  14.812  69.085  1.00  0.00    -0.278 C  
HETATM    8  N   UNL     1     -10.573  13.466  68.663  1.00  0.00    -0.248 N  
HETATM    9  C   UNL     1      -8.249  13.463  67.716  1.00  0.00    -0.172 C  
HETATM   10  O   UNL     1      -7.483  13.069  66.851  1.00  0.00     0.049 OA 
HETATM   11  O   UNL     1      -7.787  13.888  68.913  1.00  0.00    -0.114 OA 
HETATM   12  C   UNL     1     -10.699  14.512  69.533  1.00  0.00    -0.146 C  
ENDROOT
BRANCH   3  13
HETATM   13  S   UNL     1      -9.867  13.440  64.775  1.00  0.00     0.161 SA 
BRANCH  13  14
HETATM   14  C   UNL     1     -10.780  12.014  64.069  1.00  0.00    -0.375 C  
HETATM   15  C   UNL     1     -11.642  11.247  65.065  1.00  0.00     0.274 C  
HETATM   16  N   UNL     1     -10.687  10.421  65.783  1.00  0.00    -0.024 NA 
HETATM   17  C   UNL     1      -9.684   9.944  64.803  1.00  0.00    -0.235 C  
HETATM   18  C   UNL     1      -9.753  10.952  63.649  1.00  0.00    -0.374 C  
HETATM   19  H   UNL     1     -11.128   9.661  66.300  1.00  0.00     0.000 HD 
BRANCH  17  20
HETATM   20  C   UNL     1      -8.325   9.750  65.535  1.00  0.00    -0.136 C  
HETATM   21  O   UNL     1      -7.319  10.335  65.129  1.00  0.00    -0.139 OA 
HETATM   22  N   UNL     1      -8.374   8.991  66.697  1.00  0.00    -0.117 N  
HETATM   23  H   UNL     1      -9.289   8.638  66.974  1.00  0.00     0.000 HD 
BRANCH  22  24
HETATM   24  C   UNL     1      -7.283   8.656  67.539  1.00  0.00    -0.081 A  
HETATM   25  C   UNL     1      -6.433   7.567  67.316  1.00  0.00    -0.061 A  
HETATM   26  C   UNL     1      -5.364   7.296  68.177  1.00  0.00    -0.024 A  
HETATM   27  C   UNL     1      -5.134   8.104  69.286  1.00  0.00    -0.026 A  
HETATM   28  C   UNL     1      -5.993   9.178  69.542  1.00  0.00    -0.033 A  
HETATM   29  C   UNL     1      -5.794  10.067  70.713  1.00  0.00    -0.091 C  
HETATM   30  C   UNL     1      -7.049   9.463  68.658  1.00  0.00    -0.070 A  
HETATM   31  O   UNL     1      -5.293   9.441  71.800  1.00  0.00    -0.061 OA 
HETATM   32  O   UNL     1      -6.095  11.248  70.702  1.00  0.00    -0.307 OA 
ENDBRANCH  22  24
ENDBRANCH  17  20
ENDBRANCH  13  14
ENDBRANCH   3  13
BRANCH   7  33
HETATM   33  C   UNL     1     -13.251  14.744  70.104  1.00  0.00     0.211 C  
HETATM   34  O   UNL     1     -13.481  16.080  70.551  1.00  0.00    -0.577 OA 
HETATM   35  H   UNL     1     -14.183  16.037  71.190  1.00  0.00     0.000 HD 
HETATM   36  C   UNL     1     -12.866  13.876  71.292  1.00  0.00    -0.435 C  
ENDBRANCH   7  33
TORSDOF 5
ENDMDL
MODEL      258
REMARK 921   NORMALIZED FREE ENERGY PREDICTED BY IDOCK:   -2.59 KCAL/MOL
REMARK 922        TOTAL FREE ENERGY PREDICTED BY IDOCK:   -5.02 KCAL/MOL
REMARK 923 INTER-LIGAND FREE ENERGY PREDICTED BY IDOCK:   -4.77 KCAL/MOL
REMARK 924 INTRA-LIGAND FREE ENERGY PREDICTED BY IDOCK:   -0.25 KCAL/MOL
REMARK 927      BINDING AFFINITY PREDICTED BY RF-SCORE:    0.00 PKD
ROOT
HETATM    1  C   UNL     1     -12.508  11.109  69.476  1.00  0.00    -0.074 C  
HETATM    2  C   UNL     1     -11.588   9.952  69.077  1.00  0.00     0.097 C  
HETATM    3  C   UNL     1     -11.877   8.918  70.147  1.00  0.00     0.238 C  
HETATM    4  C   UNL     1     -10.144  10.418  68.956  1.00  0.00    -0.227 C  
HETATM    5  O   UNL     1     -13.324  11.915  72.571  1.00  0.00    -0.249 OA 
HETATM    6  C   UNL     1     -12.830   9.358  70.993  1.00  0.00    -0.180 C  
HETATM    7  C   UNL     1     -12.085  12.320  70.367  1.00  0.00    -0.385 C  
HETATM    8  N   UNL     1     -13.292  10.622  70.646  1.00  0.00    -0.054 N  
HETATM    9  C   UNL     1     -13.445   8.603  72.129  1.00  0.00    -0.398 C  
HETATM   10  O   UNL     1     -13.441   7.386  72.226  1.00  0.00    -0.038 OA 
HETATM   11  O   UNL     1     -14.016   9.376  73.079  1.00  0.00    -0.271 OA 
HETATM   12  C   UNL     1     -13.028  11.721  71.413  1.00  0.00    -0.306 C  
ENDROOT
BRANCH   3  13
HETATM   13  S   UNL     1     -11.149   7.361  70.017  1.00  0.00    -0.176 SA 
BRANCH  13  14
HETATM   14  C   UNL     1      -9.927   7.293  71.382  1.00  0.00    -0.187 C  
HETATM   15  C   UNL     1      -9.495   8.650  71.926  1.00  0.00    -0.299 C  
HETATM   16  N   UNL     1      -8.535   9.125  70.944  1.00  0.00    -0.206 NA 
HETATM   17  C   UNL     1      -7.735   7.960  70.503  1.00  0.00    -0.086 C  
HETATM   18  C   UNL     1      -8.611   6.741  70.816  1.00  0.00    -0.141 C  
HETATM   19  H   UNL     1      -7.960   9.894  71.289  1.00  0.00     0.000 HD 
BRANCH  17  20
HETATM   20  C   UNL     1      -7.287   8.191  69.031  1.00  0.00    -0.083 C  
HETATM   21  O   UNL     1      -7.290   7.252  68.233  1.00  0.00    -0.094 OA 
HETATM   22  N   UNL     1      -7.015   9.509  68.688  1.00  0.00    -0.064 N  
HETATM   23  H   UNL     1      -7.139  10.207  69.420  1.00  0.00     0.000 HD 
BRANCH  22  24
HETATM   24  C   UNL     1      -6.581   9.985  67.425  1.00  0.00    -0.069 A  
HETATM   25  C   UNL     1      -5.590  10.958  67.257  1.00  0.00    -0.044 A  
HETATM   26  C   UNL     1      -5.196  11.377  65.982  1.00  0.00    -0.008 A  
HETATM   27  C   UNL     1      -5.796  10.839  64.849  1.00  0.00     0.024 A  
HETATM   28  C   UNL     1      -6.812   9.888  64.998  1.00  0.00    -0.126 A  
HETATM   29  C   UNL     1      -7.487   9.286  63.823  1.00  0.00    -0.106 C  
HETATM   30  C   UNL     1      -7.185   9.449  66.281  1.00  0.00    -0.092 A  
HETATM   31  O   UNL     1      -7.616  10.125  62.773  1.00  0.00    -0.133 OA 
HETATM   32  O   UNL     1      -7.922   8.147  63.825  1.00  0.00    -0.142 OA 
ENDBRANCH  22  24
ENDBRANCH  17  20
ENDBRANCH  13  14
ENDBRANCH   3  13
BRANCH   7  33
HETATM   33  C   UNL     1     -12.407  13.679  69.778  1.00  0.00    -0.228 C  
HETATM   34  O   UNL     1     -11.280  14.062  68.990  1.00  0.00    -0.254 OA 
HETATM   35  H   UNL     1     -11.482  14.914  68.621  1.00  0.00     0.000 HD 
HETATM   36  C   UNL     1     -12.634  14.715  70.868  1.00  0.00    -0.410 C  
ENDBRANCH   7  33
TORSDOF 5
ENDMDL
MODEL      259
REMARK 921   NORMALIZED FREE ENERGY PREDICTED BY IDOCK:   -2.56 KCAL/MOL
REMARK 922        TOTAL FREE ENERGY PREDICTED BY IDOCK:   -4.99 KCAL/MOL
REMARK 923 INTER-LIGAND FREE ENERGY PREDICTED BY IDOCK:   -4.34 KCAL/MOL
REMARK 924 INTRA-LIGAND FREE ENERGY PREDICTED BY IDOCK:   -0.64 KCAL/MOL
REMARK 927      BINDING AFFINITY PREDICTED BY RF-SCORE:    0.00 PKD
ROOT
HETATM    1  C   UNL     1      -7.931   6.692  64.958  1.00  0.00    -0.124 C  
HETATM    2  C   UNL     1      -7.706   6.861  66.463  1.00  0.00    -0.101 C  
HETATM    3  C   UNL     1      -8.115   8.302  66.697  1.00  0.00    -0.102 C  
HETATM    4  C   UNL     1      -6.280   6.491  66.847  1.00  0.00    -0.040 C  
HETATM    5  O   UNL     1      -7.531   9.059  62.693  1.00  0.00    -0.099 OA 
HETATM    6  C   UNL     1      -8.554   8.867  65.554  1.00  0.00    -0.168 C  
HETATM    7  C   UNL     1      -6.835   6.890  63.863  1.00  0.00    -0.054 C  
HETATM    8  N   UNL     1      -8.523   7.976  64.488  1.00  0.00    -0.032 N  
HETATM    9  C   UNL     1      -9.117  10.242  65.387  1.00  0.00    -0.185 C  
HETATM   10  O   UNL     1      -9.593  10.904  66.296  1.00  0.00    -0.188 OA 
HETATM   11  O   UNL     1      -9.058  10.730  64.129  1.00  0.00    -0.199 OA 
HETATM   12  C   UNL     1      -7.644   8.123  63.453  1.00  0.00    -0.132 C  
ENDROOT
BRANCH   3  13
HETATM   13  S   UNL     1      -8.155   8.903  68.312  1.00  0.00    -0.110 SA 
BRANCH  13  14
HETATM   14  C   UNL     1      -6.406   8.903  68.862  1.00  0.00    -0.044 C  
HETATM   15  C   UNL     1      -6.165   9.517  70.237  1.00  0.00    -0.061 C  
HETATM   16  N   UNL     1      -6.201  10.947  69.985  1.00  0.00    -0.118 NA 
HETATM   17  C   UNL     1      -5.531  11.190  68.687  1.00  0.00    -0.043 C  
HETATM   18  C   UNL     1      -5.618   9.850  67.945  1.00  0.00    -0.039 C  
HETATM   19  H   UNL     1      -5.799  11.495  70.747  1.00  0.00     0.000 HD 
BRANCH  17  20
HETATM   20  C   UNL     1      -6.168  12.445  68.024  1.00  0.00    -0.082 C  
HETATM   21  O   UNL     1      -5.572  13.030  67.118  1.00  0.00    -0.349 OA 
HETATM   22  N   UNL     1      -7.455  12.755  68.443  1.00  0.00    -0.118 N  
HETATM   23  H   UNL     1      -7.872  12.134  69.135  1.00  0.00     0.000 HD 
BRANCH  22  24
HETATM   24  C   UNL     1      -8.249  13.846  68.008  1.00  0.00    -0.161 A  
HETATM   25  C   UNL     1      -7.809  14.817  67.101  1.00  0.00    -0.180 A  
HETATM   26  C   UNL     1      -8.646  15.864  66.700  1.00  0.00    -0.320 A  
HETATM   27  C   UNL     1      -9.936  15.965  67.208  1.00  0.00    -0.240 A  
HETATM   28  C   UNL     1     -10.382  15.022  68.141  1.00  0.00    -0.239 A  
HETATM   29  C   UNL     1     -11.747  15.088  68.717  1.00  0.00    -0.334 C  
HETATM   30  C   UNL     1      -9.547  13.956  68.520  1.00  0.00    -0.185 A  
HETATM   31  O   UNL     1     -12.215  16.344  68.881  1.00  0.00     0.112 OA 
HETATM   32  O   UNL     1     -12.370  14.095  69.049  1.00  0.00    -0.294 OA 
ENDBRANCH  22  24
ENDBRANCH  17  20
ENDBRANCH  13  14
ENDBRANCH   3  13
BRANCH   7  33
HETATM   33  C   UNL     1      -6.704   5.738  62.887  1.00  0.00    -0.036 C  
HETATM   34  O   UNL     1      -7.856   4.914  63.068  1.00  0.00    -0.063 OA 
HETATM   35  H   UNL     1      -7.773   4.192  62.456  1.00  0.00     0.000 HD 
HETATM   36  C   UNL     1      -5.452   4.919  63.162  1.00  0.00    -0.013 C  
ENDBRANCH   7  33
TORSDOF 5
ENDMDL
MODEL      260
REMARK 921   NORMALIZED FREE ENERGY PREDICTED BY IDOCK:   -2.51 KCAL/MOL
REMARK 922        TOTAL FREE ENERGY PREDICTED BY IDOCK:   -4.93 KCAL/MOL
REMARK 923 INTER-LIGAND FREE ENERGY PREDICTED BY IDOCK:   -3.62 KCAL/MOL
REMARK 924 INTRA-LIGAND FREE ENERGY PREDICTED BY IDOCK:   -1.32 KCAL/MOL
REMARK 927      BINDING AFFINITY PREDICTED BY RF-SCORE:    0.00 PKD
ROOT
HETATM    1  C   UNL     1      -8.695  17.798  68.782  1.00  0.00    -0.198 C  
HETATM    2  C   UNL     1      -9.633  18.122  67.617  1.00  0.00    -0.278 C  
HETATM    3  C   UNL     1     -10.478  16.869  67.517  1.00  0.00    -0.328 C  
HETATM    4  C   UNL     1      -8.846  18.511  66.373  1.00  0.00    -0.267 C  
HETATM    5  O   UNL     1      -7.540  14.795  69.521  1.00  0.00    -0.158 OA 
HETATM    6  C   UNL     1     -10.141  15.985  68.478  1.00  0.00    -0.233 C  
HETATM    7  C   UNL     1      -7.267  17.182  68.635  1.00  0.00    -0.229 C  
HETATM    8  N   UNL     1      -9.130  16.470  69.299  1.00  0.00    -0.169 N  
HETATM    9  C   UNL     1     -10.793  14.669  68.761  1.00  0.00    -0.255 C  
HETATM   10  O   UNL     1     -11.926  14.375  68.414  1.00  0.00    -0.331 OA 
HETATM   11  O   UNL     1     -10.023  13.790  69.440  1.00  0.00     0.210 OA 
HETATM   12  C   UNL     1      -7.873  15.935  69.283  1.00  0.00    -0.226 C  
ENDROOT
BRANCH   3  13
HETATM   13  S   UNL     1     -11.792  16.838  66.402  1.00  0.00     2.321 SA 
BRANCH  13  14
HETATM   14  C   UNL     1     -11.029  16.460  64.778  1.00  0.00    -0.231 C  
HETATM   15  C   UNL     1     -11.995  15.939  63.720  1.00  0.00     0.729 C  
HETATM   16  N   UNL     1     -12.180  14.544  64.081  1.00  0.00    -0.813 NA 
HETATM   17  C   UNL     1     -10.871  14.023  64.536  1.00  0.00    -0.347 C  
HETATM   18  C   UNL     1     -10.081  15.267  64.963  1.00  0.00    -0.250 C  
HETATM   19  H   UNL     1     -12.588  13.989  63.328  1.00  0.00     0.000 HD 
BRANCH  17  20
HETATM   20  C   UNL     1     -11.118  12.906  65.590  1.00  0.00    -0.279 C  
HETATM   21  O   UNL     1     -12.265  12.513  65.812  1.00  0.00    -0.578 OA 
HETATM   22  N   UNL     1      -9.977  12.339  66.141  1.00  0.00    -0.238 N  
HETATM   23  H   UNL     1      -9.082  12.694  65.804  1.00  0.00     0.000 HD 
BRANCH  22  24
HETATM   24  C   UNL     1      -9.925  11.319  67.124  1.00  0.00    -0.192 A  
HETATM   25  C   UNL     1     -11.015  10.946  67.918  1.00  0.00    -0.325 A  
HETATM   26  C   UNL     1     -10.905   9.920  68.863  1.00  0.00    -0.239 A  
HETATM   27  C   UNL     1      -9.696   9.256  69.040  1.00  0.00    -0.162 A  
HETATM   28  C   UNL     1      -8.586   9.638  68.278  1.00  0.00    -0.119 A  
HETATM   29  C   UNL     1      -7.273   8.966  68.432  1.00  0.00    -0.078 C  
HETATM   30  C   UNL     1      -8.710  10.650  67.310  1.00  0.00    -0.129 A  
HETATM   31  O   UNL     1      -7.009   8.555  69.691  1.00  0.00    -0.046 OA 
HETATM   32  O   UNL     1      -6.488   8.834  67.509  1.00  0.00    -0.056 OA 
ENDBRANCH  22  24
ENDBRANCH  17  20
ENDBRANCH  13  14
ENDBRANCH   3  13
BRANCH   7  33
HETATM   33  C   UNL     1      -6.176  17.937  69.369  1.00  0.00    -0.248 C  
HETATM   34  O   UNL     1      -5.487  16.981  70.175  1.00  0.00    -0.198 OA 
HETATM   35  H   UNL     1      -4.804  17.454  70.635  1.00  0.00     0.000 HD 
HETATM   36  C   UNL     1      -6.757  19.022  70.262  1.00  0.00     0.325 C  
ENDBRANCH   7  33
TORSDOF 5
ENDMDL
MODEL      261
REMARK 921   NORMALIZED FREE ENERGY PREDICTED BY IDOCK:   -2.51 KCAL/MOL
REMARK 922        TOTAL FREE ENERGY PREDICTED BY IDOCK:   -4.92 KCAL/MOL
REMARK 923 INTER-LIGAND FREE ENERGY PREDICTED BY IDOCK:   -4.24 KCAL/MOL
REMARK 924 INTRA-LIGAND FREE ENERGY PREDICTED BY IDOCK:   -0.69 KCAL/MOL
REMARK 927      BINDING AFFINITY PREDICTED BY RF-SCORE:    0.00 PKD
ROOT
HETATM    1  C   UNL     1      -8.389   6.478  66.629  1.00  0.00    -0.113 C  
HETATM    2  C   UNL     1      -8.058   7.724  67.454  1.00  0.00    -0.123 C  
HETATM    3  C   UNL     1      -7.620   8.714  66.394  1.00  0.00    -0.091 C  
HETATM    4  C   UNL     1      -7.045   7.405  68.544  1.00  0.00    -0.084 C  
HETATM    5  O   UNL     1      -6.851   5.567  63.853  1.00  0.00    -0.043 OA 
HETATM    6  C   UNL     1      -7.721   8.175  65.163  1.00  0.00    -0.107 C  
HETATM    7  C   UNL     1      -7.396   5.307  66.342  1.00  0.00    -0.082 C  
HETATM    8  N   UNL     1      -8.211   6.875  65.203  1.00  0.00    -0.133 N  
HETATM    9  C   UNL     1      -7.460   8.855  63.856  1.00  0.00    -0.112 C  
HETATM   10  O   UNL     1      -7.474  10.065  63.697  1.00  0.00    -0.133 OA 
HETATM   11  O   UNL     1      -7.189   8.021  62.828  1.00  0.00    -0.088 OA 
HETATM   12  C   UNL     1      -7.426   5.800  64.893  1.00  0.00    -0.079 C  
ENDROOT
BRANCH   3  13
HETATM   13  S   UNL     1      -7.276  10.337  66.862  1.00  0.00    -0.096 SA 
BRANCH  13  14
HETATM   14  C   UNL     1      -7.951  10.494  68.561  1.00  0.00    -0.118 C  
HETATM   15  C   UNL     1      -9.461  10.315  68.671  1.00  0.00    -0.169 C  
HETATM   16  N   UNL     1      -9.992  11.590  68.224  1.00  0.00    -0.195 NA 
HETATM   17  C   UNL     1      -9.103  12.653  68.747  1.00  0.00     0.172 C  
HETATM   18  C   UNL     1      -7.766  11.949  69.014  1.00  0.00     0.066 C  
HETATM   19  H   UNL     1     -10.969  11.727  68.483  1.00  0.00     0.000 HD 
BRANCH  17  20
HETATM   20  C   UNL     1      -9.124  13.853  67.758  1.00  0.00    -0.191 C  
HETATM   21  O   UNL     1      -8.134  14.094  67.064  1.00  0.00    -0.147 OA 
HETATM   22  N   UNL     1     -10.338  14.517  67.647  1.00  0.00    -0.237 N  
HETATM   23  H   UNL     1     -11.108  14.159  68.211  1.00  0.00     0.000 HD 
BRANCH  22  24
HETATM   24  C   UNL     1     -10.619  15.642  66.831  1.00  0.00    -0.311 A  
HETATM   25  C   UNL     1     -11.110  15.553  65.524  1.00  0.00    -0.265 A  
HETATM   26  C   UNL     1     -11.381  16.702  64.773  1.00  0.00     0.021 A  
HETATM   27  C   UNL     1     -11.152  17.963  65.313  1.00  0.00     0.654 A  
HETATM   28  C   UNL     1     -10.630  18.071  66.606  1.00  0.00    -0.268 A  
HETATM   29  C   UNL     1     -10.363  19.392  67.226  1.00  0.00    -0.442 C  
HETATM   30  C   UNL     1     -10.386  16.914  67.367  1.00  0.00    -0.309 A  
HETATM   31  O   UNL     1      -9.967  20.341  66.350  1.00  0.00    -0.443 OA 
HETATM   32  O   UNL     1     -10.456  19.587  68.425  1.00  0.00    -0.395 OA 
ENDBRANCH  22  24
ENDBRANCH  17  20
ENDBRANCH  13  14
ENDBRANCH   3  13
BRANCH   7  33
HETATM   33  C   UNL     1      -7.938   3.928  66.661  1.00  0.00    -0.096 C  
HETATM   34  O   UNL     1      -8.146   3.270  65.412  1.00  0.00    -0.089 OA 
HETATM   35  H   UNL     1      -8.486   2.405  65.612  1.00  0.00     0.000 HD 
HETATM   36  C   UNL     1      -9.259   4.012  67.410  1.00  0.00    -0.190 C  
ENDBRANCH   7  33
TORSDOF 5
ENDMDL
MODEL      262
REMARK 921   NORMALIZED FREE ENERGY PREDICTED BY IDOCK:   -2.47 KCAL/MOL
REMARK 922        TOTAL FREE ENERGY PREDICTED BY IDOCK:   -4.88 KCAL/MOL
REMARK 923 INTER-LIGAND FREE ENERGY PREDICTED BY IDOCK:   -4.82 KCAL/MOL
REMARK 924 INTRA-LIGAND FREE ENERGY PREDICTED BY IDOCK:   -0.06 KCAL/MOL
REMARK 927      BINDING AFFINITY PREDICTED BY RF-SCORE:    0.00 PKD
ROOT
HETATM    1  C   UNL     1      -9.789   7.427  69.004  1.00  0.00    -0.168 C  
HETATM    2  C   UNL     1      -9.723   8.533  67.948  1.00  0.00    -0.193 C  
HETATM    3  C   UNL     1     -10.569   9.629  68.565  1.00  0.00    -0.220 C  
HETATM    4  C   UNL     1     -10.170   8.017  66.587  1.00  0.00    -0.315 C  
HETATM    5  O   UNL     1     -12.380   6.807  70.954  1.00  0.00    -0.381 OA 
HETATM    6  C   UNL     1     -11.012   9.263  69.785  1.00  0.00    -0.196 C  
HETATM    7  C   UNL     1     -10.817   6.251  69.003  1.00  0.00    -0.400 C  
HETATM    8  N   UNL     1     -10.562   7.998  70.144  1.00  0.00    -0.233 N  
HETATM    9  C   UNL     1     -11.806  10.094  70.742  1.00  0.00    -0.351 C  
HETATM   10  O   UNL     1     -11.855  11.313  70.716  1.00  0.00    -0.322 OA 
HETATM   11  O   UNL     1     -12.500   9.389  71.663  1.00  0.00    -0.330 OA 
HETATM   12  C   UNL     1     -11.411   6.932  70.239  1.00  0.00    -0.324 C  
ENDROOT
BRANCH   3  13
HETATM   13  S   UNL     1     -10.666  11.153  67.767  1.00  0.00    -0.241 SA 
BRANCH  13  14
HETATM   14  C   UNL     1     -11.378  10.783  66.118  1.00  0.00     0.466 C  
HETATM   15  C   UNL     1     -10.355  10.455  65.036  1.00  0.00    -0.179 C  
HETATM   16  N   UNL     1      -9.842  11.756  64.643  1.00  0.00    -0.338 NA 
HETATM   17  C   UNL     1     -10.979  12.704  64.644  1.00  0.00    -0.313 C  
HETATM   18  C   UNL     1     -12.019  12.068  65.575  1.00  0.00    -0.168 C  
HETATM   19  H   UNL     1      -9.344  11.734  63.753  1.00  0.00     0.000 HD 
BRANCH  17  20
HETATM   20  C   UNL     1     -10.445  14.123  64.991  1.00  0.00    -0.425 C  
HETATM   21  O   UNL     1      -9.294  14.439  64.683  1.00  0.00     0.762 OA 
HETATM   22  N   UNL     1     -11.375  14.995  65.542  1.00  0.00    -0.338 N  
HETATM   23  H   UNL     1     -12.322  14.636  65.662  1.00  0.00     0.000 HD 
BRANCH  22  24
HETATM   24  C   UNL     1     -11.145  16.331  65.955  1.00  0.00     0.094 A  
HETATM   25  C   UNL     1     -11.251  17.438  65.105  1.00  0.00     0.567 A  
HETATM   26  C   UNL     1     -11.024  18.736  65.576  1.00  0.00     0.234 A  
HETATM   27  C   UNL     1     -10.675  18.949  66.905  1.00  0.00    -0.447 A  
HETATM   28  C   UNL     1     -10.532  17.852  67.761  1.00  0.00    -0.409 A  
HETATM   29  C   UNL     1     -10.156  18.024  69.186  1.00  0.00    -0.196 C  
HETATM   30  C   UNL     1     -10.788  16.551  67.290  1.00  0.00    -0.173 A  
HETATM   31  O   UNL     1      -9.320  19.060  69.412  1.00  0.00    -0.085 OA 
HETATM   32  O   UNL     1     -10.539  17.270  70.063  1.00  0.00     0.018 OA 
ENDBRANCH  22  24
ENDBRANCH  17  20
ENDBRANCH  13  14
ENDBRANCH   3  13
BRANCH   7  33
HETATM   33  C   UNL     1     -10.199   4.875  69.148  1.00  0.00    -0.116 C  
HETATM   34  O   UNL     1     -10.430   4.460  70.494  1.00  0.00     0.003 OA 
HETATM   35  H   UNL     1     -10.042   3.597  70.585  1.00  0.00     0.000 HD 
HETATM   36  C   UNL     1      -8.702   4.909  68.882  1.00  0.00    -0.103 C  
ENDBRANCH   7  33
TORSDOF 5
ENDMDL
MODEL      263
REMARK 921   NORMALIZED FREE ENERGY PREDICTED BY IDOCK:   -2.46 KCAL/MOL
REMARK 922        TOTAL FREE ENERGY PREDICTED BY IDOCK:   -4.86 KCAL/MOL
REMARK 923 INTER-LIGAND FREE ENERGY PREDICTED BY IDOCK:   -4.66 KCAL/MOL
REMARK 924 INTRA-LIGAND FREE ENERGY PREDICTED BY IDOCK:   -0.20 KCAL/MOL
REMARK 927      BINDING AFFINITY PREDICTED BY RF-SCORE:    0.00 PKD
ROOT
HETATM    1  C   UNL     1     -11.008  13.766  67.047  1.00  0.00    -0.290 C  
HETATM    2  C   UNL     1     -10.372  12.467  67.550  1.00  0.00    -0.225 C  
HETATM    3  C   UNL     1      -9.156  12.967  68.305  1.00  0.00    -0.180 C  
HETATM    4  C   UNL     1     -10.108  11.506  66.400  1.00  0.00    -0.250 C  
HETATM    5  O   UNL     1      -9.352  16.486  66.176  1.00  0.00    -0.288 OA 
HETATM    6  C   UNL     1      -9.108  14.314  68.297  1.00  0.00    -0.188 C  
HETATM    7  C   UNL     1     -10.746  14.404  65.646  1.00  0.00    -0.326 C  
HETATM    8  N   UNL     1     -10.186  14.870  67.617  1.00  0.00    -0.235 N  
HETATM    9  C   UNL     1      -8.111  15.184  68.995  1.00  0.00    -0.191 C  
HETATM   10  O   UNL     1      -7.436  14.827  69.947  1.00  0.00    -0.111 OA 
HETATM   11  O   UNL     1      -7.992  16.430  68.485  1.00  0.00    -0.182 OA 
HETATM   12  C   UNL     1     -10.029  15.511  66.421  1.00  0.00    -0.283 C  
ENDROOT
BRANCH   3  13
HETATM   13  S   UNL     1      -8.194  11.833  69.176  1.00  0.00     0.430 SA 
BRANCH  13  14
HETATM   14  C   UNL     1      -6.651  11.669  68.198  1.00  0.00    -0.061 C  
HETATM   15  C   UNL     1      -6.858  11.360  66.720  1.00  0.00    -0.132 C  
HETATM   16  N   UNL     1      -7.149   9.937  66.703  1.00  0.00    -0.085 NA 
HETATM   17  C   UNL     1      -6.282   9.291  67.714  1.00  0.00    -0.054 C  
HETATM   18  C   UNL     1      -5.909  10.417  68.687  1.00  0.00    -0.040 C  
HETATM   19  H   UNL     1      -7.054   9.523  65.775  1.00  0.00     0.000 HD 
BRANCH  17  20
HETATM   20  C   UNL     1      -7.017   8.041  68.276  1.00  0.00    -0.073 C  
HETATM   21  O   UNL     1      -7.562   8.093  69.380  1.00  0.00    -0.096 OA 
HETATM   22  N   UNL     1      -7.101   6.957  67.412  1.00  0.00    -0.082 N  
HETATM   23  H   UNL     1      -6.686   7.075  66.489  1.00  0.00     0.000 HD 
BRANCH  22  24
HETATM   24  C   UNL     1      -7.703   5.702  67.681  1.00  0.00    -0.097 A  
HETATM   25  C   UNL     1      -7.919   4.718  66.710  1.00  0.00    -0.103 A  
HETATM   26  C   UNL     1      -8.507   3.492  67.041  1.00  0.00    -0.107 A  
HETATM   27  C   UNL     1      -8.903   3.234  68.349  1.00  0.00    -0.162 A  
HETATM   28  C   UNL     1      -8.725   4.218  69.326  1.00  0.00    -0.121 A  
HETATM   29  C   UNL     1      -9.134   3.995  70.734  1.00  0.00    -0.110 C  
HETATM   30  C   UNL     1      -8.108   5.438  68.995  1.00  0.00    -0.094 A  
HETATM   31  O   UNL     1     -10.231   3.220  70.872  1.00  0.00     0.171 OA 
HETATM   32  O   UNL     1      -8.551   4.501  71.677  1.00  0.00    -0.111 OA 
ENDBRANCH  22  24
ENDBRANCH  17  20
ENDBRANCH  13  14
ENDBRANCH   3  13
BRANCH   7  33
HETATM   33  C   UNL     1     -12.000  14.746  64.865  1.00  0.00    -0.358 C  
HETATM   34  O   UNL     1     -13.085  14.697  65.790  1.00  0.00    -0.264 OA 
HETATM   35  H   UNL     1     -13.871  14.912  65.301  1.00  0.00     0.000 HD 
HETATM   36  C   UNL     1     -12.247  13.745  63.747  1.00  0.00    -0.364 C  
ENDBRANCH   7  33
TORSDOF 5
ENDMDL
MODEL      264
REMARK 921   NORMALIZED FREE ENERGY PREDICTED BY IDOCK:   -2.34 KCAL/MOL
REMARK 922        TOTAL FREE ENERGY PREDICTED BY IDOCK:   -4.71 KCAL/MOL
REMARK 923 INTER-LIGAND FREE ENERGY PREDICTED BY IDOCK:   -4.52 KCAL/MOL
REMARK 924 INTRA-LIGAND FREE ENERGY PREDICTED BY IDOCK:   -0.19 KCAL/MOL
REMARK 927      BINDING AFFINITY PREDICTED BY RF-SCORE:    0.00 PKD
ROOT
HETATM    1  C   UNL     1      -7.823   8.975  70.224  1.00  0.00    -0.109 C  
HETATM    2  C   UNL     1      -6.681   9.779  69.599  1.00  0.00    -0.055 C  
HETATM    3  C   UNL     1      -7.385  10.556  68.504  1.00  0.00    -0.088 C  
HETATM    4  C   UNL     1      -5.546   8.864  69.158  1.00  0.00    -0.036 C  
HETATM    5  O   UNL     1     -10.442   7.799  68.594  1.00  0.00    -0.202 OA 
HETATM    6  C   UNL     1      -8.709  10.302  68.513  1.00  0.00    -0.130 C  
HETATM    7  C   UNL     1      -8.213   7.517  69.824  1.00  0.00    -0.128 C  
HETATM    8  N   UNL     1      -9.063   9.416  69.524  1.00  0.00    -0.154 N  
HETATM    9  C   UNL     1      -9.753  10.930  67.646  1.00  0.00    -0.171 C  
HETATM   10  O   UNL     1      -9.618  12.001  67.074  1.00  0.00    -0.189 OA 
HETATM   11  O   UNL     1     -10.892  10.213  67.519  1.00  0.00    -0.281 OA 
HETATM   12  C   UNL     1      -9.486   8.146  69.253  1.00  0.00    -0.159 C  
ENDROOT
BRANCH   3  13
HETATM   13  S   UNL     1      -6.492  11.724  67.606  1.00  0.00    -0.094 SA 
BRANCH  13  14
HETATM   14  C   UNL     1      -5.362  12.499  68.826  1.00  0.00    -0.054 C  
HETATM   15  C   UNL     1      -5.937  12.646  70.230  1.00  0.00    -0.122 C  
HETATM   16  N   UNL     1      -6.802  13.809  70.128  1.00  0.00    -0.364 NA 
HETATM   17  C   UNL     1      -6.126  14.793  69.251  1.00  0.00    -0.106 C  
HETATM   18  C   UNL     1      -5.146  13.962  68.413  1.00  0.00    -0.102 C  
HETATM   19  H   UNL     1      -7.056  14.197  71.037  1.00  0.00     0.000 HD 
BRANCH  17  20
HETATM   20  C   UNL     1      -7.209  15.629  68.511  1.00  0.00    -0.120 C  
HETATM   21  O   UNL     1      -8.376  15.234  68.481  1.00  0.00    -0.140 OA 
HETATM   22  N   UNL     1      -6.785  16.855  68.018  1.00  0.00    -0.145 N  
HETATM   23  H   UNL     1      -5.812  17.105  68.190  1.00  0.00     0.000 HD 
BRANCH  22  24
HETATM   24  C   UNL     1      -7.565  17.797  67.300  1.00  0.00    -0.201 A  
HETATM   25  C   UNL     1      -8.964  17.802  67.287  1.00  0.00    -0.246 A  
HETATM   26  C   UNL     1      -9.677  18.767  66.569  1.00  0.00    -0.380 A  
HETATM   27  C   UNL     1      -9.003  19.739  65.839  1.00  0.00    -0.170 A  
HETATM   28  C   UNL     1      -7.604  19.731  65.813  1.00  0.00    -0.301 A  
HETATM   29  C   UNL     1      -6.837  20.742  65.046  1.00  0.00    -0.056 C  
HETATM   30  C   UNL     1      -6.891  18.775  66.560  1.00  0.00    -0.227 A  
HETATM   31  O   UNL     1      -7.444  21.147  63.910  1.00  0.00     0.542 OA 
HETATM   32  O   UNL     1      -5.739  21.139  65.395  1.00  0.00    -0.232 OA 
ENDBRANCH  22  24
ENDBRANCH  17  20
ENDBRANCH  13  14
ENDBRANCH   3  13
BRANCH   7  33
HETATM   33  C   UNL     1      -8.328   6.553  70.988  1.00  0.00    -0.126 C  
HETATM   34  O   UNL     1      -8.519   7.346  72.160  1.00  0.00    -0.107 OA 
HETATM   35  H   UNL     1      -8.590   6.741  72.890  1.00  0.00     0.000 HD 
HETATM   36  C   UNL     1      -7.064   5.721  71.145  1.00  0.00    -0.069 C  
ENDBRANCH   7  33
TORSDOF 5
ENDMDL
MODEL      265
REMARK 921   NORMALIZED FREE ENERGY PREDICTED BY IDOCK:   -2.28 KCAL/MOL
REMARK 922        TOTAL FREE ENERGY PREDICTED BY IDOCK:   -4.62 KCAL/MOL
REMARK 923 INTER-LIGAND FREE ENERGY PREDICTED BY IDOCK:   -5.70 KCAL/MOL
REMARK 924 INTRA-LIGAND FREE ENERGY PREDICTED BY IDOCK:    1.07 KCAL/MOL
REMARK 927      BINDING AFFINITY PREDICTED BY RF-SCORE:    0.00 PKD
ROOT
HETATM    1  C   UNL     1     -11.888  13.880  68.372  1.00  0.00    -0.374 C  
HETATM    2  C   UNL     1     -11.865  13.890  66.842  1.00  0.00    -0.453 C  
HETATM    3  C   UNL     1     -10.382  13.828  66.535  1.00  0.00    -0.286 C  
HETATM    4  C   UNL     1     -12.622  15.090  66.291  1.00  0.00     0.692 C  
HETATM    5  O   UNL     1      -9.597  15.240  70.322  1.00  0.00    -0.004 OA 
HETATM    6  C   UNL     1      -9.660  13.744  67.671  1.00  0.00    -0.219 C  
HETATM    7  C   UNL     1     -11.932  15.156  69.273  1.00  0.00    -0.322 C  
HETATM    8  N   UNL     1     -10.470  13.721  68.801  1.00  0.00    -0.237 N  
HETATM    9  C   UNL     1      -8.178  13.585  67.787  1.00  0.00    -0.176 C  
HETATM   10  O   UNL     1      -7.461  13.151  66.899  1.00  0.00     0.079 OA 
HETATM   11  O   UNL     1      -7.658  13.974  68.972  1.00  0.00    -0.107 OA 
HETATM   12  C   UNL     1     -10.508  14.767  69.679  1.00  0.00    -0.111 C  
ENDROOT
BRANCH   3  13
HETATM   13  S   UNL     1      -9.877  13.677  64.894  1.00  0.00     0.153 SA 
BRANCH  13  14
HETATM   14  C   UNL     1     -10.889  12.308  64.210  1.00  0.00    -0.348 C  
HETATM   15  C   UNL     1     -12.150  11.984  65.002  1.00  0.00    -0.133 C  
HETATM   16  N   UNL     1     -11.660  11.206  66.127  1.00  0.00    -0.031 NA 
HETATM   17  C   UNL     1     -10.580  10.326  65.625  1.00  0.00     0.026 C  
HETATM   18  C   UNL     1     -10.083  11.008  64.344  1.00  0.00    -0.393 C  
HETATM   19  H   UNL     1     -12.399  10.693  66.608  1.00  0.00     0.000 HD 
BRANCH  17  20
HETATM   20  C   UNL     1      -9.562  10.080  66.775  1.00  0.00    -0.181 C  
HETATM   21  O   UNL     1      -8.362  10.293  66.590  1.00  0.00    -0.122 OA 
HETATM   22  N   UNL     1     -10.115   9.731  68.000  1.00  0.00    -0.162 N  
HETATM   23  H   UNL     1     -11.132   9.677  68.043  1.00  0.00     0.000 HD 
BRANCH  22  24
HETATM   24  C   UNL     1      -9.413   9.443  69.197  1.00  0.00    -0.163 A  
HETATM   25  C   UNL     1      -8.040   9.655  69.366  1.00  0.00    -0.118 A  
HETATM   26  C   UNL     1      -7.406   9.363  70.578  1.00  0.00    -0.138 A  
HETATM   27  C   UNL     1      -8.133   8.841  71.642  1.00  0.00    -0.153 A  
HETATM   28  C   UNL     1      -9.500   8.592  71.482  1.00  0.00    -0.320 A  
HETATM   29  C   UNL     1     -10.320   8.031  72.583  1.00  0.00    -0.329 C  
HETATM   30  C   UNL     1     -10.139   8.913  70.270  1.00  0.00    -0.218 A  
HETATM   31  O   UNL     1      -9.654   7.168  73.380  1.00  0.00    -0.168 OA 
HETATM   32  O   UNL     1     -11.500   8.299  72.728  1.00  0.00    -0.391 OA 
ENDBRANCH  22  24
ENDBRANCH  17  20
ENDBRANCH  13  14
ENDBRANCH   3  13
BRANCH   7  33
HETATM   33  C   UNL     1     -13.024  15.148  70.324  1.00  0.00    -0.183 C  
HETATM   34  O   UNL     1     -12.669  16.134  71.292  1.00  0.00    -0.528 OA 
HETATM   35  H   UNL     1     -13.354  16.129  71.951  1.00  0.00     0.000 HD 
HETATM   36  C   UNL     1     -13.130  13.791  71.003  1.00  0.00    -0.276 C  
ENDBRANCH   7  33
TORSDOF 5
ENDMDL
MODEL      266
REMARK 921   NORMALIZED FREE ENERGY PREDICTED BY IDOCK:   -2.22 KCAL/MOL
REMARK 922        TOTAL FREE ENERGY PREDICTED BY IDOCK:   -4.56 KCAL/MOL
REMARK 923 INTER-LIGAND FREE ENERGY PREDICTED BY IDOCK:   -3.73 KCAL/MOL
REMARK 924 INTRA-LIGAND FREE ENERGY PREDICTED BY IDOCK:   -0.83 KCAL/MOL
REMARK 927      BINDING AFFINITY PREDICTED BY RF-SCORE:    0.00 PKD
ROOT
HETATM    1  C   UNL     1      -7.812  14.018  67.073  1.00  0.00     0.115 C  
HETATM    2  C   UNL     1      -7.425  13.099  68.234  1.00  0.00    -0.129 C  
HETATM    3  C   UNL     1      -8.378  11.933  68.063  1.00  0.00    -0.160 C  
HETATM    4  C   UNL     1      -7.492  13.839  69.563  1.00  0.00     0.339 C  
HETATM    5  O   UNL     1     -10.857  14.359  65.845  1.00  0.00    -0.292 OA 
HETATM    6  C   UNL     1      -9.151  12.102  66.971  1.00  0.00    -0.198 C  
HETATM    7  C   UNL     1      -8.832  15.197  67.168  1.00  0.00    -0.236 C  
HETATM    8  N   UNL     1      -8.853  13.283  66.300  1.00  0.00     0.119 N  
HETATM    9  C   UNL     1     -10.155  11.141  66.420  1.00  0.00    -0.226 C  
HETATM   10  O   UNL     1     -10.160   9.943  66.655  1.00  0.00    -0.212 OA 
HETATM   11  O   UNL     1     -11.096  11.698  65.626  1.00  0.00    -0.300 OA 
HETATM   12  C   UNL     1      -9.725  14.334  66.274  1.00  0.00    -0.302 C  
ENDROOT
BRANCH   3  13
HETATM   13  S   UNL     1      -8.208  10.561  69.092  1.00  0.00    -0.134 SA 
BRANCH  13  14
HETATM   14  C   UNL     1      -6.441  10.553  69.584  1.00  0.00    -0.084 C  
HETATM   15  C   UNL     1      -5.474  10.093  68.499  1.00  0.00    -0.038 C  
HETATM   16  N   UNL     1      -5.599   8.646  68.517  1.00  0.00    -0.037 NA 
HETATM   17  C   UNL     1      -5.737   8.227  69.931  1.00  0.00    -0.025 C  
HETATM   18  C   UNL     1      -6.251   9.475  70.661  1.00  0.00    -0.077 C  
HETATM   19  H   UNL     1      -4.832   8.175  68.036  1.00  0.00     0.000 HD 
BRANCH  17  20
HETATM   20  C   UNL     1      -6.595   6.931  69.986  1.00  0.00    -0.044 C  
HETATM   21  O   UNL     1      -6.418   6.041  69.152  1.00  0.00    -0.039 OA 
HETATM   22  N   UNL     1      -7.449   6.825  71.075  1.00  0.00    -0.082 N  
HETATM   23  H   UNL     1      -7.434   7.593  71.745  1.00  0.00     0.000 HD 
BRANCH  22  24
HETATM   24  C   UNL     1      -8.340   5.758  71.354  1.00  0.00    -0.127 A  
HETATM   25  C   UNL     1      -9.647   5.685  70.858  1.00  0.00    -0.212 A  
HETATM   26  C   UNL     1     -10.475   4.597  71.159  1.00  0.00    -0.065 A  
HETATM   27  C   UNL     1     -10.014   3.568  71.972  1.00  0.00    -0.227 A  
HETATM   28  C   UNL     1      -8.721   3.640  72.503  1.00  0.00    -0.100 A  
HETATM   29  C   UNL     1      -8.184   2.571  73.379  1.00  0.00    -0.063 C  
HETATM   30  C   UNL     1      -7.883   4.721  72.175  1.00  0.00    -0.104 A  
HETATM   31  O   UNL     1      -9.112   1.986  74.167  1.00  0.00    -0.067 OA 
HETATM   32  O   UNL     1      -7.001   2.278  73.411  1.00  0.00    -0.025 OA 
ENDBRANCH  22  24
ENDBRANCH  17  20
ENDBRANCH  13  14
ENDBRANCH   3  13
BRANCH   7  33
HETATM   33  C   UNL     1      -8.317  16.520  66.637  1.00  0.00    -0.262 C  
HETATM   34  O   UNL     1      -7.460  17.061  67.643  1.00  0.00    -0.159 OA 
HETATM   35  H   UNL     1      -7.138  17.890  67.309  1.00  0.00     0.000 HD 
HETATM   36  C   UNL     1      -9.456  17.492  66.371  1.00  0.00    -0.276 C  
ENDBRANCH   7  33
TORSDOF 5
ENDMDL
MODEL      267
REMARK 921   NORMALIZED FREE ENERGY PREDICTED BY IDOCK:   -2.13 KCAL/MOL
REMARK 922        TOTAL FREE ENERGY PREDICTED BY IDOCK:   -4.43 KCAL/MOL
REMARK 923 INTER-LIGAND FREE ENERGY PREDICTED BY IDOCK:   -5.40 KCAL/MOL
REMARK 924 INTRA-LIGAND FREE ENERGY PREDICTED BY IDOCK:    0.96 KCAL/MOL
REMARK 927      BINDING AFFINITY PREDICTED BY RF-SCORE:    0.00 PKD
ROOT
HETATM    1  C   UNL     1      -8.423  15.549  67.896  1.00  0.00    -0.143 C  
HETATM    2  C   UNL     1      -9.354  15.146  66.749  1.00  0.00    -0.268 C  
HETATM    3  C   UNL     1      -9.082  13.662  66.609  1.00  0.00    -0.174 C  
HETATM    4  C   UNL     1      -9.102  16.001  65.514  1.00  0.00     0.260 C  
HETATM    5  O   UNL     1      -5.475  14.201  68.518  1.00  0.00    -0.085 OA 
HETATM    6  C   UNL     1      -8.195  13.248  67.536  1.00  0.00    -0.184 C  
HETATM    7  C   UNL     1      -6.978  16.113  67.716  1.00  0.00    -0.161 C  
HETATM    8  N   UNL     1      -7.788  14.286  68.367  1.00  0.00    -0.133 N  
HETATM    9  C   UNL     1      -7.730  11.847  67.776  1.00  0.00    -0.136 C  
HETATM   10  O   UNL     1      -8.343  10.851  67.426  1.00  0.00    -0.116 OA 
HETATM   11  O   UNL     1      -6.545  11.745  68.418  1.00  0.00    -0.051 OA 
HETATM   12  C   UNL     1      -6.517  14.786  68.324  1.00  0.00    -0.119 C  
ENDROOT
BRANCH   3  13
HETATM   13  S   UNL     1     -10.032  12.743  65.503  1.00  0.00    -0.172 SA 
BRANCH  13  14
HETATM   14  C   UNL     1     -11.742  13.375  65.706  1.00  0.00    -0.349 C  
HETATM   15  C   UNL     1     -11.850  14.716  66.422  1.00  0.00    -0.293 C  
HETATM   16  N   UNL     1     -11.694  14.371  67.824  1.00  0.00    -0.362 NA 
HETATM   17  C   UNL     1     -12.406  13.093  68.052  1.00  0.00     0.162 C  
HETATM   18  C   UNL     1     -12.485  12.437  66.668  1.00  0.00     0.704 C  
HETATM   19  H   UNL     1     -12.001  15.114  68.453  1.00  0.00     0.000 HD 
BRANCH  17  20
HETATM   20  C   UNL     1     -11.691  12.321  69.197  1.00  0.00    -0.323 C  
HETATM   21  O   UNL     1     -10.938  12.921  69.967  1.00  0.00     0.282 OA 
HETATM   22  N   UNL     1     -12.053  10.988  69.338  1.00  0.00    -0.385 N  
HETATM   23  H   UNL     1     -12.758  10.635  68.691  1.00  0.00     0.000 HD 
BRANCH  22  24
HETATM   24  C   UNL     1     -11.546  10.066  70.289  1.00  0.00    -0.280 A  
HETATM   25  C   UNL     1     -12.347   9.355  71.188  1.00  0.00    -0.386 A  
HETATM   26  C   UNL     1     -11.787   8.448  72.094  1.00  0.00    -0.441 A  
HETATM   27  C   UNL     1     -10.411   8.245  72.125  1.00  0.00    -0.371 A  
HETATM   28  C   UNL     1      -9.592   8.972  71.255  1.00  0.00    -0.361 A  
HETATM   29  C   UNL     1      -8.119   8.797  71.252  1.00  0.00    -0.154 C  
HETATM   30  C   UNL     1     -10.162   9.862  70.327  1.00  0.00    -0.322 A  
HETATM   31  O   UNL     1      -7.594   8.526  72.466  1.00  0.00    -0.250 OA 
HETATM   32  O   UNL     1      -7.443   8.928  70.246  1.00  0.00    -0.059 OA 
ENDBRANCH  22  24
ENDBRANCH  17  20
ENDBRANCH  13  14
ENDBRANCH   3  13
BRANCH   7  33
HETATM   33  C   UNL     1      -6.706  17.400  68.469  1.00  0.00    -0.195 C  
HETATM   34  O   UNL     1      -6.168  17.027  69.738  1.00  0.00    -0.231 OA 
HETATM   35  H   UNL     1      -5.998  17.834  70.210  1.00  0.00     0.000 HD 
HETATM   36  C   UNL     1      -7.983  18.199  68.680  1.00  0.00    -0.301 C  
ENDBRANCH   7  33
TORSDOF 5
ENDMDL
MODEL      268
REMARK 921   NORMALIZED FREE ENERGY PREDICTED BY IDOCK:   -1.96 KCAL/MOL
REMARK 922        TOTAL FREE ENERGY PREDICTED BY IDOCK:   -4.22 KCAL/MOL
REMARK 923 INTER-LIGAND FREE ENERGY PREDICTED BY IDOCK:   -3.38 KCAL/MOL
REMARK 924 INTRA-LIGAND FREE ENERGY PREDICTED BY IDOCK:   -0.84 KCAL/MOL
REMARK 927      BINDING AFFINITY PREDICTED BY RF-SCORE:    0.00 PKD
ROOT
HETATM    1  C   UNL     1      -7.798  14.004  67.067  1.00  0.00     0.115 C  
HETATM    2  C   UNL     1      -7.446  13.025  68.191  1.00  0.00    -0.130 C  
HETATM    3  C   UNL     1      -8.386  11.867  67.925  1.00  0.00    -0.152 C  
HETATM    4  C   UNL     1      -7.562  13.694  69.554  1.00  0.00     0.480 C  
HETATM    5  O   UNL     1     -10.802  14.398  65.756  1.00  0.00    -0.292 OA 
HETATM    6  C   UNL     1      -9.123  12.091  66.818  1.00  0.00    -0.197 C  
HETATM    7  C   UNL     1      -8.827  15.172  67.190  1.00  0.00    -0.236 C  
HETATM    8  N   UNL     1      -8.809  13.307  66.222  1.00  0.00     0.119 N  
HETATM    9  C   UNL     1     -10.103  11.157  66.183  1.00  0.00    -0.238 C  
HETATM   10  O   UNL     1     -10.110   9.948  66.354  1.00  0.00    -0.228 OA 
HETATM   11  O   UNL     1     -11.020  11.752  65.388  1.00  0.00    -0.299 OA 
HETATM   12  C   UNL     1      -9.685  14.355  66.221  1.00  0.00    -0.310 C  
ENDROOT
BRANCH   3  13
HETATM   13  S   UNL     1      -8.244  10.443  68.886  1.00  0.00    -0.141 SA 
BRANCH  13  14
HETATM   14  C   UNL     1      -6.499  10.423  69.450  1.00  0.00    -0.057 C  
HETATM   15  C   UNL     1      -5.480  10.060  68.375  1.00  0.00    -0.039 C  
HETATM   16  N   UNL     1      -5.581   8.614  68.281  1.00  0.00    -0.038 NA 
HETATM   17  C   UNL     1      -5.769   8.089  69.653  1.00  0.00    -0.026 C  
HETATM   18  C   UNL     1      -6.334   9.270  70.451  1.00  0.00    -0.060 C  
HETATM   19  H   UNL     1      -4.787   8.191  67.800  1.00  0.00     0.000 HD 
BRANCH  17  20
HETATM   20  C   UNL     1      -6.606   6.780  69.575  1.00  0.00    -0.048 C  
HETATM   21  O   UNL     1      -7.653   6.681  70.217  1.00  0.00    -0.091 OA 
HETATM   22  N   UNL     1      -6.149   5.830  68.672  1.00  0.00    -0.024 N  
HETATM   23  H   UNL     1      -5.318   6.073  68.134  1.00  0.00     0.000 HD 
BRANCH  22  24
HETATM   24  C   UNL     1      -6.719   4.556  68.418  1.00  0.00    -0.047 A  
HETATM   25  C   UNL     1      -6.400   3.403  69.143  1.00  0.00    -0.029 A  
HETATM   26  C   UNL     1      -7.007   2.176  68.854  1.00  0.00    -0.040 A  
HETATM   27  C   UNL     1      -7.936   2.078  67.823  1.00  0.00    -0.061 A  
HETATM   28  C   UNL     1      -8.242   3.214  67.067  1.00  0.00    -0.084 A  
HETATM   29  C   UNL     1      -9.222   3.163  65.954  1.00  0.00    -0.135 C  
HETATM   30  C   UNL     1      -7.650   4.451  67.380  1.00  0.00    -0.081 A  
HETATM   31  O   UNL     1      -9.234   1.989  65.286  1.00  0.00    -0.126 OA 
HETATM   32  O   UNL     1      -9.923   4.112  65.649  1.00  0.00    -0.202 OA 
ENDBRANCH  22  24
ENDBRANCH  17  20
ENDBRANCH  13  14
ENDBRANCH   3  13
BRANCH   7  33
HETATM   33  C   UNL     1      -8.302  16.524  66.748  1.00  0.00    -0.239 C  
HETATM   34  O   UNL     1      -7.485  17.015  67.811  1.00  0.00    -0.160 OA 
HETATM   35  H   UNL     1      -7.156  17.862  67.533  1.00  0.00     0.000 HD 
HETATM   36  C   UNL     1      -9.437  17.503  66.492  1.00  0.00    -0.285 C  
ENDBRANCH   7  33
TORSDOF 5
ENDMDL
MODEL      269
REMARK 921   NORMALIZED FREE ENERGY PREDICTED BY IDOCK:   -1.94 KCAL/MOL
REMARK 922        TOTAL FREE ENERGY PREDICTED BY IDOCK:   -4.19 KCAL/MOL
REMARK 923 INTER-LIGAND FREE ENERGY PREDICTED BY IDOCK:   -4.18 KCAL/MOL
REMARK 924 INTRA-LIGAND FREE ENERGY PREDICTED BY IDOCK:   -0.00 KCAL/MOL
REMARK 927      BINDING AFFINITY PREDICTED BY RF-SCORE:    0.00 PKD
ROOT
HETATM    1  C   UNL     1      -9.878  13.008  66.031  1.00  0.00    -0.255 C  
HETATM    2  C   UNL     1      -8.624  13.563  66.711  1.00  0.00    -0.043 C  
HETATM    3  C   UNL     1      -8.546  12.738  67.980  1.00  0.00    -0.186 C  
HETATM    4  C   UNL     1      -8.721  15.073  66.889  1.00  0.00    -0.285 C  
HETATM    5  O   UNL     1     -12.552  11.872  67.597  1.00  0.00     0.367 OA 
HETATM    6  C   UNL     1      -9.538  11.826  68.020  1.00  0.00    -0.187 C  
HETATM    7  C   UNL     1     -11.313  13.606  66.178  1.00  0.00    -0.324 C  
HETATM    8  N   UNL     1     -10.343  11.883  66.889  1.00  0.00    -0.208 N  
HETATM    9  C   UNL     1      -9.755  10.776  69.064  1.00  0.00    -0.187 C  
HETATM   10  O   UNL     1      -8.885  10.364  69.814  1.00  0.00    -0.108 OA 
HETATM   11  O   UNL     1     -11.019  10.302  69.136  1.00  0.00    -0.216 OA 
HETATM   12  C   UNL     1     -11.635  12.324  66.948  1.00  0.00    -0.361 C  
ENDROOT
BRANCH   3  13
HETATM   13  S   UNL     1      -7.180  12.930  69.014  1.00  0.00     0.087 SA 
BRANCH  13  14
HETATM   14  C   UNL     1      -5.756  12.310  68.040  1.00  0.00    -0.064 C  
HETATM   15  C   UNL     1      -6.118  11.690  66.695  1.00  0.00    -0.094 C  
HETATM   16  N   UNL     1      -6.597  10.364  67.046  1.00  0.00    -0.073 NA 
HETATM   17  C   UNL     1      -5.745   9.858  68.146  1.00  0.00    -0.039 C  
HETATM   18  C   UNL     1      -5.149  11.115  68.791  1.00  0.00    -0.040 C  
HETATM   19  H   UNL     1      -6.631   9.730  66.247  1.00  0.00     0.000 HD 
BRANCH  17  20
HETATM   20  C   UNL     1      -6.592   8.901  69.033  1.00  0.00    -0.048 C  
HETATM   21  O   UNL     1      -7.538   8.282  68.541  1.00  0.00    -0.096 OA 
HETATM   22  N   UNL     1      -6.134   8.728  70.332  1.00  0.00    -0.033 N  
HETATM   23  H   UNL     1      -5.285   9.229  70.588  1.00  0.00     0.000 HD 
BRANCH  22  24
HETATM   24  C   UNL     1      -6.726   7.925  71.340  1.00  0.00    -0.046 A  
HETATM   25  C   UNL     1      -6.985   8.373  72.640  1.00  0.00    -0.100 A  
HETATM   26  C   UNL     1      -7.584   7.535  73.588  1.00  0.00    -0.132 A  
HETATM   27  C   UNL     1      -7.923   6.229  73.255  1.00  0.00    -0.105 A  
HETATM   28  C   UNL     1      -7.641   5.753  71.970  1.00  0.00    -0.101 A  
HETATM   29  C   UNL     1      -7.978   4.366  71.566  1.00  0.00    -0.083 C  
HETATM   30  C   UNL     1      -7.065   6.607  71.012  1.00  0.00    -0.072 A  
HETATM   31  O   UNL     1      -7.875   3.462  72.564  1.00  0.00    -0.064 OA 
HETATM   32  O   UNL     1      -8.282   4.069  70.424  1.00  0.00    -0.057 OA 
ENDBRANCH  22  24
ENDBRANCH  17  20
ENDBRANCH  13  14
ENDBRANCH   3  13
BRANCH   7  33
HETATM   33  C   UNL     1     -12.022  13.874  64.865  1.00  0.00    -0.395 C  
HETATM   34  O   UNL     1     -11.244  13.249  63.844  1.00  0.00    -0.511 OA 
HETATM   35  H   UNL     1     -11.688  13.417  63.021  1.00  0.00     0.000 HD 
HETATM   36  C   UNL     1     -12.119  15.365  64.581  1.00  0.00    -0.124 C  
ENDBRANCH   7  33
TORSDOF 5
ENDMDL
MODEL      270
REMARK 921   NORMALIZED FREE ENERGY PREDICTED BY IDOCK:   -1.59 KCAL/MOL
REMARK 922        TOTAL FREE ENERGY PREDICTED BY IDOCK:   -3.74 KCAL/MOL
REMARK 923 INTER-LIGAND FREE ENERGY PREDICTED BY IDOCK:   -3.45 KCAL/MOL
REMARK 924 INTRA-LIGAND FREE ENERGY PREDICTED BY IDOCK:   -0.28 KCAL/MOL
REMARK 927      BINDING AFFINITY PREDICTED BY RF-SCORE:    0.00 PKD
ROOT
HETATM    1  C   UNL     1      -9.753   5.231  71.097  1.00  0.00    -0.174 C  
HETATM    2  C   UNL     1      -9.137   3.831  71.144  1.00  0.00    -0.181 C  
HETATM    3  C   UNL     1      -8.873   3.538  69.680  1.00  0.00    -0.091 C  
HETATM    4  C   UNL     1     -10.049   2.856  71.876  1.00  0.00    -0.154 C  
HETATM    5  O   UNL     1     -11.659   6.394  68.665  1.00  0.00    -0.142 OA 
HETATM    6  C   UNL     1      -9.218   4.590  68.911  1.00  0.00    -0.134 C  
HETATM    7  C   UNL     1     -11.285   5.531  71.047  1.00  0.00    -0.011 C  
HETATM    8  N   UNL     1      -9.703   5.651  69.668  1.00  0.00    -0.159 N  
HETATM    9  C   UNL     1      -9.038   4.724  67.432  1.00  0.00    -0.117 C  
HETATM   10  O   UNL     1      -8.240   4.073  66.776  1.00  0.00    -0.100 OA 
HETATM   11  O   UNL     1      -9.846   5.632  66.843  1.00  0.00    -0.135 OA 
HETATM   12  C   UNL     1     -11.017   6.024  69.623  1.00  0.00    -0.400 C  
ENDROOT
BRANCH   3  13
HETATM   13  S   UNL     1      -8.038   2.090  69.259  1.00  0.00    -0.044 SA 
BRANCH  13  14
HETATM   14  C   UNL     1      -6.490   2.131  70.242  1.00  0.00    -0.028 C  
HETATM   15  C   UNL     1      -6.426   3.233  71.294  1.00  0.00    -0.019 C  
HETATM   16  N   UNL     1      -6.100   4.422  70.527  1.00  0.00    -0.017 NA 
HETATM   17  C   UNL     1      -5.130   4.028  69.480  1.00  0.00     0.000 C  
HETATM   18  C   UNL     1      -5.339   2.518  69.302  1.00  0.00    -0.013 C  
HETATM   19  H   UNL     1      -5.765   5.191  71.109  1.00  0.00     0.000 HD 
BRANCH  17  20
HETATM   20  C   UNL     1      -5.325   4.952  68.245  1.00  0.00    -0.011 C  
HETATM   21  O   UNL     1      -5.301   4.474  67.109  1.00  0.00    -0.011 OA 
HETATM   22  N   UNL     1      -5.632   6.276  68.530  1.00  0.00    -0.008 N  
HETATM   23  H   UNL     1      -5.712   6.524  69.516  1.00  0.00     0.000 HD 
BRANCH  22  24
HETATM   24  C   UNL     1      -5.846   7.319  67.594  1.00  0.00    -0.030 A  
HETATM   25  C   UNL     1      -5.181   8.549  67.633  1.00  0.00    -0.034 A  
HETATM   26  C   UNL     1      -5.426   9.535  66.671  1.00  0.00    -0.046 A  
HETATM   27  C   UNL     1      -6.352   9.312  65.658  1.00  0.00    -0.067 A  
HETATM   28  C   UNL     1      -7.049   8.100  65.621  1.00  0.00    -0.067 A  
HETATM   29  C   UNL     1      -8.050   7.814  64.565  1.00  0.00    -0.108 C  
HETATM   30  C   UNL     1      -6.780   7.101  66.574  1.00  0.00    -0.057 A  
HETATM   31  O   UNL     1      -8.735   8.900  64.147  1.00  0.00    -0.158 OA 
HETATM   32  O   UNL     1      -8.260   6.690  64.143  1.00  0.00    -0.069 OA 
ENDBRANCH  22  24
ENDBRANCH  17  20
ENDBRANCH  13  14
ENDBRANCH   3  13
BRANCH   7  33
HETATM   33  C   UNL     1     -11.768   6.521  72.089  1.00  0.00    -0.311 C  
HETATM   34  O   UNL     1     -11.806   7.799  71.454  1.00  0.00    -0.283 OA 
HETATM   35  H   UNL     1     -12.108   8.419  72.108  1.00  0.00     0.000 HD 
HETATM   36  C   UNL     1     -10.821   6.578  73.278  1.00  0.00    -0.276 C  
ENDBRANCH   7  33
TORSDOF 5
ENDMDL
MODEL      271
REMARK 921   NORMALIZED FREE ENERGY PREDICTED BY IDOCK:   -1.37 KCAL/MOL
REMARK 922        TOTAL FREE ENERGY PREDICTED BY IDOCK:   -3.45 KCAL/MOL
REMARK 923 INTER-LIGAND FREE ENERGY PREDICTED BY IDOCK:   -4.65 KCAL/MOL
REMARK 924 INTRA-LIGAND FREE ENERGY PREDICTED BY IDOCK:    1.20 KCAL/MOL
REMARK 927      BINDING AFFINITY PREDICTED BY RF-SCORE:    0.00 PKD
ROOT
HETATM    1  C   UNL     1      -7.376   9.752  70.563  1.00  0.00    -0.112 C  
HETATM    2  C   UNL     1      -8.878   9.460  70.542  1.00  0.00    -0.287 C  
HETATM    3  C   UNL     1      -8.923   7.991  70.170  1.00  0.00    -0.150 C  
HETATM    4  C   UNL     1      -9.609  10.417  69.610  1.00  0.00    -0.142 C  
HETATM    5  O   UNL     1      -5.130   8.330  68.605  1.00  0.00    -0.027 OA 
HETATM    6  C   UNL     1      -7.677   7.491  70.046  1.00  0.00    -0.094 C  
HETATM    7  C   UNL     1      -6.559  10.318  69.358  1.00  0.00    -0.058 C  
HETATM    8  N   UNL     1      -6.703   8.447  70.306  1.00  0.00    -0.036 N  
HETATM    9  C   UNL     1      -7.300   6.070  69.769  1.00  0.00    -0.079 C  
HETATM   10  O   UNL     1      -8.031   5.113  69.974  1.00  0.00    -0.079 OA 
HETATM   11  O   UNL     1      -6.064   5.902  69.250  1.00  0.00    -0.026 OA 
HETATM   12  C   UNL     1      -5.897   8.939  69.319  1.00  0.00    -0.035 C  
ENDROOT
BRANCH   3  13
HETATM   13  S   UNL     1     -10.444   7.181  70.163  1.00  0.00    -0.221 SA 
BRANCH  13  14
HETATM   14  C   UNL     1     -10.527   6.340  68.536  1.00  0.00    -0.229 C  
HETATM   15  C   UNL     1      -9.258   6.439  67.696  1.00  0.00    -0.116 C  
HETATM   16  N   UNL     1      -9.323   7.775  67.132  1.00  0.00    -0.143 NA 
HETATM   17  C   UNL     1     -10.736   8.046  66.784  1.00  0.00    -0.007 C  
HETATM   18  C   UNL     1     -11.547   7.086  67.665  1.00  0.00     0.680 C  
HETATM   19  H   UNL     1      -8.688   7.905  66.343  1.00  0.00     0.000 HD 
BRANCH  17  20
HETATM   20  C   UNL     1     -11.000   9.573  66.916  1.00  0.00     0.134 C  
HETATM   21  O   UNL     1     -11.828   9.986  67.730  1.00  0.00     0.231 OA 
HETATM   22  N   UNL     1     -10.173  10.391  66.158  1.00  0.00    -0.235 N  
HETATM   23  H   UNL     1      -9.465   9.925  65.591  1.00  0.00     0.000 HD 
BRANCH  22  24
HETATM   24  C   UNL     1     -10.212  11.806  66.088  1.00  0.00    -0.220 A  
HETATM   25  C   UNL     1      -9.433  12.647  66.890  1.00  0.00    -0.229 A  
HETATM   26  C   UNL     1      -9.506  14.039  66.765  1.00  0.00    -0.292 A  
HETATM   27  C   UNL     1     -10.372  14.616  65.842  1.00  0.00    -0.334 A  
HETATM   28  C   UNL     1     -11.182  13.791  65.054  1.00  0.00    -0.339 A  
HETATM   29  C   UNL     1     -12.126  14.356  64.058  1.00  0.00    -0.280 C  
HETATM   30  C   UNL     1     -11.085  12.392  65.164  1.00  0.00    -0.348 A  
HETATM   31  O   UNL     1     -12.666  15.539  64.422  1.00  0.00    -0.252 OA 
HETATM   32  O   UNL     1     -12.414  13.779  63.024  1.00  0.00    -0.712 OA 
ENDBRANCH  22  24
ENDBRANCH  17  20
ENDBRANCH  13  14
ENDBRANCH   3  13
BRANCH   7  33
HETATM   33  C   UNL     1      -5.712  11.532  69.685  1.00  0.00    -0.078 C  
HETATM   34  O   UNL     1      -6.498  12.362  70.540  1.00  0.00    -0.489 OA 
HETATM   35  H   UNL     1      -5.967  13.123  70.745  1.00  0.00     0.000 HD 
HETATM   36  C   UNL     1      -5.347  12.308  68.429  1.00  0.00    -0.052 C  
ENDBRANCH   7  33
TORSDOF 5
ENDMDL
MODEL      272
REMARK 921   NORMALIZED FREE ENERGY PREDICTED BY IDOCK:   -1.33 KCAL/MOL
REMARK 922        TOTAL FREE ENERGY PREDICTED BY IDOCK:   -3.40 KCAL/MOL
REMARK 923 INTER-LIGAND FREE ENERGY PREDICTED BY IDOCK:   -3.72 KCAL/MOL
REMARK 924 INTRA-LIGAND FREE ENERGY PREDICTED BY IDOCK:    0.32 KCAL/MOL
REMARK 927      BINDING AFFINITY PREDICTED BY RF-SCORE:    0.00 PKD
ROOT
HETATM    1  C   UNL     1      -8.181  15.736  68.241  1.00  0.00    -0.143 C  
HETATM    2  C   UNL     1      -9.081  15.029  67.224  1.00  0.00    -0.213 C  
HETATM    3  C   UNL     1     -10.338  14.761  68.027  1.00  0.00    -0.237 C  
HETATM    4  C   UNL     1      -8.384  13.812  66.630  1.00  0.00     0.240 C  
HETATM    5  O   UNL     1      -8.140  15.139  71.488  1.00  0.00     2.852 OA 
HETATM    6  C   UNL     1     -10.226  15.263  69.273  1.00  0.00    -0.250 C  
HETATM    7  C   UNL     1      -7.121  15.025  69.141  1.00  0.00    -0.149 C  
HETATM    8  N   UNL     1      -9.005  15.896  69.472  1.00  0.00    -0.211 N  
HETATM    9  C   UNL     1     -11.276  15.273  70.338  1.00  0.00    -0.299 C  
HETATM   10  O   UNL     1     -12.473  15.164  70.123  1.00  0.00    -0.340 OA 
HETATM   11  O   UNL     1     -10.805  15.404  71.598  1.00  0.00    -0.217 OA 
HETATM   12  C   UNL     1      -8.053  15.377  70.303  1.00  0.00     0.803 C  
ENDROOT
BRANCH   3  13
HETATM   13  S   UNL     1     -11.707  14.087  67.227  1.00  0.00    -0.409 SA 
BRANCH  13  14
HETATM   14  C   UNL     1     -11.615  14.722  65.509  1.00  0.00    -0.301 C  
HETATM   15  C   UNL     1     -12.777  14.315  64.611  1.00  0.00    -0.113 C  
HETATM   16  N   UNL     1     -12.462  12.947  64.238  1.00  0.00    -0.612 NA 
HETATM   17  C   UNL     1     -11.000  12.868  64.023  1.00  0.00    -0.411 C  
HETATM   18  C   UNL     1     -10.422  14.047  64.815  1.00  0.00    -0.445 C  
HETATM   19  H   UNL     1     -13.000  12.619  63.435  1.00  0.00     0.000 HD 
BRANCH  17  20
HETATM   20  C   UNL     1     -10.519  11.432  64.378  1.00  0.00    -0.330 C  
HETATM   21  O   UNL     1     -10.126  10.677  63.487  1.00  0.00    -0.323 OA 
HETATM   22  N   UNL     1     -10.464  11.137  65.734  1.00  0.00    -0.254 N  
HETATM   23  H   UNL     1     -10.731  11.884  66.375  1.00  0.00     0.000 HD 
BRANCH  22  24
HETATM   24  C   UNL     1     -10.075   9.906  66.320  1.00  0.00    -0.241 A  
HETATM   25  C   UNL     1      -9.140   9.034  65.752  1.00  0.00    -0.272 A  
HETATM   26  C   UNL     1      -8.787   7.839  66.387  1.00  0.00    -0.180 A  
HETATM   27  C   UNL     1      -9.374   7.487  67.597  1.00  0.00    -0.151 A  
HETATM   28  C   UNL     1     -10.335   8.331  68.164  1.00  0.00    -0.253 A  
HETATM   29  C   UNL     1     -10.994   8.000  69.451  1.00  0.00    -0.009 C  
HETATM   30  C   UNL     1     -10.666   9.545  67.536  1.00  0.00    -0.311 A  
HETATM   31  O   UNL     1     -11.183   6.677  69.648  1.00  0.00    -0.315 OA 
HETATM   32  O   UNL     1     -11.367   8.852  70.238  1.00  0.00    -0.244 OA 
ENDBRANCH  22  24
ENDBRANCH  17  20
ENDBRANCH  13  14
ENDBRANCH   3  13
BRANCH   7  33
HETATM   33  C   UNL     1      -5.738  15.644  69.094  1.00  0.00    -0.106 C  
HETATM   34  O   UNL     1      -5.361  15.908  70.445  1.00  0.00    -0.148 OA 
HETATM   35  H   UNL     1      -4.494  16.296  70.416  1.00  0.00     0.000 HD 
HETATM   36  C   UNL     1      -5.739  16.946  68.309  1.00  0.00    -0.126 C  
ENDBRANCH   7  33
TORSDOF 5
ENDMDL
MODEL      273
REMARK 921   NORMALIZED FREE ENERGY PREDICTED BY IDOCK:   -1.20 KCAL/MOL
REMARK 922        TOTAL FREE ENERGY PREDICTED BY IDOCK:   -3.23 KCAL/MOL
REMARK 923 INTER-LIGAND FREE ENERGY PREDICTED BY IDOCK:   -2.80 KCAL/MOL
REMARK 924 INTRA-LIGAND FREE ENERGY PREDICTED BY IDOCK:   -0.43 KCAL/MOL
REMARK 927      BINDING AFFINITY PREDICTED BY RF-SCORE:    0.00 PKD
ROOT
HETATM    1  C   UNL     1      -9.916   5.927  71.417  1.00  0.00    -0.185 C  
HETATM    2  C   UNL     1      -9.144   4.623  71.198  1.00  0.00    -0.180 C  
HETATM    3  C   UNL     1      -8.880   4.643  69.706  1.00  0.00    -0.089 C  
HETATM    4  C   UNL     1      -9.925   3.430  71.733  1.00  0.00    -0.194 C  
HETATM    5  O   UNL     1     -11.991   7.300  69.247  1.00  0.00     0.564 OA 
HETATM    6  C   UNL     1      -9.358   5.774  69.150  1.00  0.00    -0.123 C  
HETATM    7  C   UNL     1     -11.472   6.054  71.423  1.00  0.00    -0.265 C  
HETATM    8  N   UNL     1      -9.944   6.611  70.092  1.00  0.00    -0.173 N  
HETATM    9  C   UNL     1      -9.225   6.202  67.723  1.00  0.00    -0.111 C  
HETATM   10  O   UNL     1      -8.373   5.783  66.956  1.00  0.00    -0.108 OA 
HETATM   11  O   UNL     1     -10.143   7.106  67.315  1.00  0.00    -0.175 OA 
HETATM   12  C   UNL     1     -11.291   6.833  70.118  1.00  0.00    -0.350 C  
ENDROOT
BRANCH   3  13
HETATM   13  S   UNL     1      -7.896   3.406  69.019  1.00  0.00    -0.050 SA 
BRANCH  13  14
HETATM   14  C   UNL     1      -6.294   3.527  69.904  1.00  0.00    -0.028 C  
HETATM   15  C   UNL     1      -6.245   4.583  71.002  1.00  0.00    -0.018 C  
HETATM   16  N   UNL     1      -6.061   5.827  70.274  1.00  0.00    -0.025 NA 
HETATM   17  C   UNL     1      -5.136   5.555  69.151  1.00  0.00     0.000 C  
HETATM   18  C   UNL     1      -5.240   4.043  68.914  1.00  0.00    -0.011 C  
HETATM   19  H   UNL     1      -5.748   6.594  70.870  1.00  0.00     0.000 HD 
BRANCH  17  20
HETATM   20  C   UNL     1      -5.482   6.514  67.976  1.00  0.00    -0.008 C  
HETATM   21  O   UNL     1      -5.325   6.141  66.812  1.00  0.00    -0.008 OA 
HETATM   22  N   UNL     1      -6.065   7.720  68.339  1.00  0.00    -0.035 N  
HETATM   23  H   UNL     1      -6.225   7.869  69.335  1.00  0.00     0.000 HD 
BRANCH  22  24
HETATM   24  C   UNL     1      -6.463   8.767  67.469  1.00  0.00    -0.057 A  
HETATM   25  C   UNL     1      -6.363   8.702  66.075  1.00  0.00    -0.053 A  
HETATM   26  C   UNL     1      -6.786   9.764  65.269  1.00  0.00    -0.103 A  
HETATM   27  C   UNL     1      -7.305  10.918  65.845  1.00  0.00    -0.041 A  
HETATM   28  C   UNL     1      -7.382  11.015  67.239  1.00  0.00    -0.106 A  
HETATM   29  C   UNL     1      -7.923  12.226  67.903  1.00  0.00    -0.152 C  
HETATM   30  C   UNL     1      -6.982   9.933  68.044  1.00  0.00    -0.077 A  
HETATM   31  O   UNL     1      -7.660  13.377  67.247  1.00  0.00    -0.147 OA 
HETATM   32  O   UNL     1      -8.516  12.184  68.967  1.00  0.00     0.136 OA 
ENDBRANCH  22  24
ENDBRANCH  17  20
ENDBRANCH  13  14
ENDBRANCH   3  13
BRANCH   7  33
HETATM   33  C   UNL     1     -12.041   6.768  72.633  1.00  0.00     0.137 C  
HETATM   34  O   UNL     1     -13.290   7.330  72.229  1.00  0.00    -0.503 OA 
HETATM   35  H   UNL     1     -13.646   7.777  72.988  1.00  0.00     0.000 HD 
HETATM   36  C   UNL     1     -11.118   7.881  73.105  1.00  0.00    -0.260 C  
ENDBRANCH   7  33
TORSDOF 5
ENDMDL
MODEL      274
REMARK 921   NORMALIZED FREE ENERGY PREDICTED BY IDOCK:   -0.80 KCAL/MOL
REMARK 922        TOTAL FREE ENERGY PREDICTED BY IDOCK:   -2.71 KCAL/MOL
REMARK 923 INTER-LIGAND FREE ENERGY PREDICTED BY IDOCK:   -4.36 KCAL/MOL
REMARK 924 INTRA-LIGAND FREE ENERGY PREDICTED BY IDOCK:    1.64 KCAL/MOL
REMARK 927      BINDING AFFINITY PREDICTED BY RF-SCORE:    0.00 PKD
ROOT
HETATM    1  C   UNL     1      -9.294   9.495  65.020  1.00  0.00    -0.229 C  
HETATM    2  C   UNL     1      -8.729   9.876  66.390  1.00  0.00    -0.144 C  
HETATM    3  C   UNL     1      -9.535  11.110  66.746  1.00  0.00    -0.184 C  
HETATM    4  C   UNL     1      -7.217  10.048  66.330  1.00  0.00    -0.103 C  
HETATM    5  O   UNL     1     -10.404  11.625  62.755  1.00  0.00    -0.160 OA 
HETATM    6  C   UNL     1     -10.446  11.380  65.790  1.00  0.00    -0.262 C  
HETATM    7  C   UNL     1      -8.693   9.943  63.649  1.00  0.00    -0.225 C  
HETATM    8  N   UNL     1     -10.406  10.451  64.756  1.00  0.00    -0.256 N  
HETATM    9  C   UNL     1     -11.479  12.461  65.809  1.00  0.00    -0.370 C  
HETATM   10  O   UNL     1     -11.880  13.010  66.823  1.00  0.00    -0.368 OA 
HETATM   11  O   UNL     1     -11.951  12.815  64.593  1.00  0.00    -0.353 OA 
HETATM   12  C   UNL     1      -9.963  10.784  63.507  1.00  0.00    -0.344 C  
ENDROOT
BRANCH   3  13
HETATM   13  S   UNL     1      -9.327  11.817  68.304  1.00  0.00    -0.186 SA 
BRANCH  13  14
HETATM   14  C   UNL     1      -7.892  12.945  68.127  1.00  0.00    -0.147 C  
HETATM   15  C   UNL     1      -6.787  12.438  67.207  1.00  0.00    -0.127 C  
HETATM   16  N   UNL     1      -6.070  11.478  68.028  1.00  0.00    -0.046 NA 
HETATM   17  C   UNL     1      -6.010  12.023  69.404  1.00  0.00    -0.093 C  
HETATM   18  C   UNL     1      -7.174  13.019  69.482  1.00  0.00     0.369 C  
HETATM   19  H   UNL     1      -5.150  11.244  67.654  1.00  0.00     0.000 HD 
BRANCH  17  20
HETATM   20  C   UNL     1      -5.983  10.837  70.409  1.00  0.00    -0.128 C  
HETATM   21  O   UNL     1      -5.998  11.058  71.622  1.00  0.00    -0.140 OA 
HETATM   22  N   UNL     1      -6.058   9.571  69.844  1.00  0.00    -0.042 N  
HETATM   23  H   UNL     1      -6.133   9.527  68.829  1.00  0.00     0.000 HD 
BRANCH  22  24
HETATM   24  C   UNL     1      -6.041   8.331  70.533  1.00  0.00    -0.032 A  
HETATM   25  C   UNL     1      -5.145   7.295  70.249  1.00  0.00    -0.023 A  
HETATM   26  C   UNL     1      -5.169   6.099  70.974  1.00  0.00    -0.017 A  
HETATM   27  C   UNL     1      -6.100   5.912  71.989  1.00  0.00    -0.040 A  
HETATM   28  C   UNL     1      -7.025   6.925  72.266  1.00  0.00    -0.062 A  
HETATM   29  C   UNL     1      -8.042   6.774  73.335  1.00  0.00    -0.102 C  
HETATM   30  C   UNL     1      -6.979   8.136  71.553  1.00  0.00    -0.062 A  
HETATM   31  O   UNL     1      -8.488   5.510  73.496  1.00  0.00    -0.113 OA 
HETATM   32  O   UNL     1      -8.463   7.718  73.980  1.00  0.00    -0.207 OA 
ENDBRANCH  22  24
ENDBRANCH  17  20
ENDBRANCH  13  14
ENDBRANCH   3  13
BRANCH   7  33
HETATM   33  C   UNL     1      -8.445   8.813  62.670  1.00  0.00    -0.183 C  
HETATM   34  O   UNL     1      -8.973   7.629  63.268  1.00  0.00     0.114 OA 
HETATM   35  H   UNL     1      -8.817   6.920  62.654  1.00  0.00     0.000 HD 
HETATM   36  C   UNL     1      -6.960   8.624  62.406  1.00  0.00    -0.094 C  
ENDBRANCH   7  33
TORSDOF 5
ENDMDL
MODEL      275
REMARK 921   NORMALIZED FREE ENERGY PREDICTED BY IDOCK:   -0.38 KCAL/MOL
REMARK 922        TOTAL FREE ENERGY PREDICTED BY IDOCK:   -2.18 KCAL/MOL
REMARK 923 INTER-LIGAND FREE ENERGY PREDICTED BY IDOCK:   -2.06 KCAL/MOL
REMARK 924 INTRA-LIGAND FREE ENERGY PREDICTED BY IDOCK:   -0.11 KCAL/MOL
REMARK 927      BINDING AFFINITY PREDICTED BY RF-SCORE:    0.00 PKD
ROOT
HETATM    1  C   UNL     1      -9.194  17.591  66.396  1.00  0.00    -0.245 C  
HETATM    2  C   UNL     1      -7.916  16.748  66.363  1.00  0.00    -0.356 C  
HETATM    3  C   UNL     1      -8.241  15.621  67.323  1.00  0.00    -0.191 C  
HETATM    4  C   UNL     1      -6.695  17.594  66.699  1.00  0.00    -0.244 C  
HETATM    5  O   UNL     1     -11.151  17.983  69.026  1.00  0.00     0.601 OA 
HETATM    6  C   UNL     1      -9.497  15.742  67.797  1.00  0.00    -0.212 C  
HETATM    7  C   UNL     1      -9.428  18.823  67.327  1.00  0.00    -0.326 C  
HETATM    8  N   UNL     1     -10.149  16.849  67.267  1.00  0.00    -0.279 N  
HETATM    9  C   UNL     1     -10.214  14.790  68.701  1.00  0.00    -0.236 C  
HETATM   10  O   UNL     1      -9.910  13.616  68.843  1.00  0.00    -0.118 OA 
HETATM   11  O   UNL     1     -11.249  15.328  69.384  1.00  0.00    -0.250 OA 
HETATM   12  C   UNL     1     -10.457  17.937  68.034  1.00  0.00    -0.382 C  
ENDROOT
BRANCH   3  13
HETATM   13  S   UNL     1      -7.114  14.328  67.498  1.00  0.00    -0.100 SA 
BRANCH  13  14
HETATM   14  C   UNL     1      -6.629  14.358  69.267  1.00  0.00    -0.122 C  
HETATM   15  C   UNL     1      -5.246  13.788  69.563  1.00  0.00    -0.083 C  
HETATM   16  N   UNL     1      -5.452  12.351  69.530  1.00  0.00    -0.074 NA 
HETATM   17  C   UNL     1      -6.766  12.073  70.153  1.00  0.00     0.445 C  
HETATM   18  C   UNL     1      -7.545  13.389  70.028  1.00  0.00     1.478 C  
HETATM   19  H   UNL     1      -4.689  11.830  69.964  1.00  0.00     0.000 HD 
BRANCH  17  20
HETATM   20  C   UNL     1      -7.366  10.794  69.503  1.00  0.00    -0.124 C  
HETATM   21  O   UNL     1      -7.461   9.756  70.161  1.00  0.00    -0.131 OA 
HETATM   22  N   UNL     1      -7.869  10.954  68.219  1.00  0.00    -0.112 N  
HETATM   23  H   UNL     1      -7.812  11.890  67.819  1.00  0.00     0.000 HD 
BRANCH  22  24
HETATM   24  C   UNL     1      -8.455   9.951  67.405  1.00  0.00    -0.118 A  
HETATM   25  C   UNL     1      -9.721  10.064  66.819  1.00  0.00    -0.239 A  
HETATM   26  C   UNL     1     -10.239   9.045  66.014  1.00  0.00    -0.013 A  
HETATM   27  C   UNL     1      -9.504   7.885  65.790  1.00  0.00     0.113 A  
HETATM   28  C   UNL     1      -8.251   7.741  66.394  1.00  0.00    -0.116 A  
HETATM   29  C   UNL     1      -7.429   6.522  66.192  1.00  0.00    -0.081 C  
HETATM   30  C   UNL     1      -7.722   8.781  67.180  1.00  0.00    -0.096 A  
HETATM   31  O   UNL     1      -8.151   5.389  66.054  1.00  0.00    -0.104 OA 
HETATM   32  O   UNL     1      -6.211   6.543  66.190  1.00  0.00    -0.035 OA 
ENDBRANCH  22  24
ENDBRANCH  17  20
ENDBRANCH  13  14
ENDBRANCH   3  13
BRANCH   7  33
HETATM   33  C   UNL     1      -9.902  20.072  66.612  1.00  0.00    -0.450 C  
HETATM   34  O   UNL     1      -9.585  19.899  65.231  1.00  0.00    -0.118 OA 
HETATM   35  H   UNL     1      -9.882  20.683  64.783  1.00  0.00     0.000 HD 
HETATM   36  C   UNL     1      -9.197  21.313  67.138  1.00  0.00     0.254 C  
ENDBRANCH   7  33
TORSDOF 5
ENDMDL
MODEL      276
REMARK 921   NORMALIZED FREE ENERGY PREDICTED BY IDOCK:    0.13 KCAL/MOL
REMARK 922        TOTAL FREE ENERGY PREDICTED BY IDOCK:   -1.51 KCAL/MOL
REMARK 923 INTER-LIGAND FREE ENERGY PREDICTED BY IDOCK:   -3.97 KCAL/MOL
REMARK 924 INTRA-LIGAND FREE ENERGY PREDICTED BY IDOCK:    2.47 KCAL/MOL
REMARK 927      BINDING AFFINITY PREDICTED BY RF-SCORE:    0.00 PKD
ROOT
HETATM    1  C   UNL     1     -10.594  17.332  68.846  1.00  0.00    -0.276 C  
HETATM    2  C   UNL     1      -9.197  17.543  69.436  1.00  0.00     0.351 C  
HETATM    3  C   UNL     1      -8.620  18.620  68.538  1.00  0.00    -0.340 C  
HETATM    4  C   UNL     1      -8.427  16.231  69.501  1.00  0.00     0.129 C  
HETATM    5  O   UNL     1     -11.375  17.610  65.650  1.00  0.00     0.469 OA 
HETATM    6  C   UNL     1      -9.525  19.013  67.620  1.00  0.00    -0.306 C  
HETATM    7  C   UNL     1     -10.960  16.250  67.780  1.00  0.00    -0.281 C  
HETATM    8  N   UNL     1     -10.733  18.340  67.757  1.00  0.00    -0.390 N  
HETATM    9  C   UNL     1      -9.367  20.105  66.609  1.00  0.00    -0.368 C  
HETATM   10  O   UNL     1      -8.563  21.019  66.705  1.00  0.00     0.105 OA 
HETATM   11  O   UNL     1     -10.189  20.011  65.541  1.00  0.00    -0.369 OA 
HETATM   12  C   UNL     1     -11.160  17.433  66.829  1.00  0.00     0.372 C  
ENDROOT
BRANCH   3  13
HETATM   13  S   UNL     1      -7.077  19.284  68.923  1.00  0.00    -0.358 SA 
BRANCH  13  14
HETATM   14  C   UNL     1      -6.152  19.284  67.339  1.00  0.00    -0.190 C  
HETATM   15  C   UNL     1      -6.983  18.937  66.109  1.00  0.00    -0.249 C  
HETATM   16  N   UNL     1      -7.098  17.491  66.168  1.00  0.00    -0.302 NA 
HETATM   17  C   UNL     1      -5.799  16.958  66.639  1.00  0.00    -0.110 C  
HETATM   18  C   UNL     1      -5.140  18.130  67.378  1.00  0.00    -0.142 C  
HETATM   19  H   UNL     1      -7.398  17.079  65.284  1.00  0.00     0.000 HD 
BRANCH  17  20
HETATM   20  C   UNL     1      -6.055  15.639  67.423  1.00  0.00    -0.045 C  
HETATM   21  O   UNL     1      -5.310  15.323  68.353  1.00  0.00    -0.093 OA 
HETATM   22  N   UNL     1      -7.208  14.950  67.074  1.00  0.00    -0.179 N  
HETATM   23  H   UNL     1      -7.789  15.368  66.348  1.00  0.00     0.000 HD 
BRANCH  22  24
HETATM   24  C   UNL     1      -7.663  13.724  67.623  1.00  0.00    -0.179 A  
HETATM   25  C   UNL     1      -7.078  13.101  68.731  1.00  0.00    -0.098 A  
HETATM   26  C   UNL     1      -7.582  11.897  69.234  1.00  0.00     0.209 A  
HETATM   27  C   UNL     1      -8.675  11.287  68.630  1.00  0.00    -0.136 A  
HETATM   28  C   UNL     1      -9.254  11.878  67.501  1.00  0.00    -0.177 A  
HETATM   29  C   UNL     1     -10.418  11.266  66.817  1.00  0.00    -0.248 C  
HETATM   30  C   UNL     1      -8.761  13.103  67.016  1.00  0.00    -0.193 A  
HETATM   31  O   UNL     1     -10.423   9.915  66.841  1.00  0.00    -0.238 OA 
HETATM   32  O   UNL     1     -11.271  11.926  66.249  1.00  0.00    -0.317 OA 
ENDBRANCH  22  24
ENDBRANCH  17  20
ENDBRANCH  13  14
ENDBRANCH   3  13
BRANCH   7  33
HETATM   33  C   UNL     1     -12.152  15.387  68.142  1.00  0.00     0.128 C  
HETATM   34  O   UNL     1     -12.959  16.156  69.034  1.00  0.00     0.216 OA 
HETATM   35  H   UNL     1     -13.706  15.614  69.261  1.00  0.00     0.000 HD 
HETATM   36  C   UNL     1     -11.718  14.105  68.835  1.00  0.00    -0.369 C  
ENDBRANCH   7  33
TORSDOF 5
ENDMDL
MODEL      277
REMARK 921   NORMALIZED FREE ENERGY PREDICTED BY IDOCK:    0.48 KCAL/MOL
REMARK 922        TOTAL FREE ENERGY PREDICTED BY IDOCK:   -1.06 KCAL/MOL
REMARK 923 INTER-LIGAND FREE ENERGY PREDICTED BY IDOCK:   -6.21 KCAL/MOL
REMARK 924 INTRA-LIGAND FREE ENERGY PREDICTED BY IDOCK:    5.15 KCAL/MOL
REMARK 927      BINDING AFFINITY PREDICTED BY RF-SCORE:    0.00 PKD
ROOT
HETATM    1  C   UNL     1      -8.190   9.281  67.709  1.00  0.00    -0.115 C  
HETATM    2  C   UNL     1      -8.323   7.992  68.525  1.00  0.00    -0.127 C  
HETATM    3  C   UNL     1      -7.578   8.332  69.800  1.00  0.00    -0.092 C  
HETATM    4  C   UNL     1      -7.810   6.793  67.740  1.00  0.00    -0.113 C  
HETATM    5  O   UNL     1      -5.597  11.323  67.779  1.00  0.00    -0.043 OA 
HETATM    6  C   UNL     1      -7.131   9.604  69.770  1.00  0.00    -0.084 C  
HETATM    7  C   UNL     1      -7.072   9.559  66.653  1.00  0.00    -0.086 C  
HETATM    8  N   UNL     1      -7.487  10.253  68.593  1.00  0.00    -0.082 N  
HETATM    9  C   UNL     1      -6.424  10.338  70.865  1.00  0.00     0.089 C  
HETATM   10  O   UNL     1      -6.472  10.024  72.044  1.00  0.00     0.004 OA 
HETATM   11  O   UNL     1      -5.695  11.399  70.457  1.00  0.00    -0.132 OA 
HETATM   12  C   UNL     1      -6.559  10.598  67.653  1.00  0.00    -0.061 C  
ENDROOT
BRANCH   3  13
HETATM   13  S   UNL     1      -7.586   7.196  71.096  1.00  0.00    -0.085 SA 
BRANCH  13  14
HETATM   14  C   UNL     1      -9.151   6.261  70.897  1.00  0.00    -0.151 C  
HETATM   15  C   UNL     1      -9.696   6.216  69.474  1.00  0.00    -0.146 C  
HETATM   16  N   UNL     1     -10.324   7.515  69.305  1.00  0.00    -0.206 NA 
HETATM   17  C   UNL     1     -10.985   7.862  70.584  1.00  0.00    -0.245 C  
HETATM   18  C   UNL     1     -10.259   7.021  71.641  1.00  0.00    -0.208 C  
HETATM   19  H   UNL     1     -10.960   7.548  68.508  1.00  0.00     0.000 HD 
BRANCH  17  20
HETATM   20  C   UNL     1     -10.986   9.409  70.741  1.00  0.00    -0.304 C  
HETATM   21  O   UNL     1      -9.925  10.034  70.675  1.00  0.00    -0.131 OA 
HETATM   22  N   UNL     1     -12.238  10.001  70.838  1.00  0.00    -0.323 N  
HETATM   23  H   UNL     1     -13.043   9.377  70.788  1.00  0.00     0.000 HD 
BRANCH  22  24
HETATM   24  C   UNL     1     -12.514  11.382  70.999  1.00  0.00    -0.383 A  
HETATM   25  C   UNL     1     -13.484  11.886  71.873  1.00  0.00    -0.289 A  
HETATM   26  C   UNL     1     -13.701  13.262  71.997  1.00  0.00    -0.519 A  
HETATM   27  C   UNL     1     -12.959  14.161  71.238  1.00  0.00    -0.426 A  
HETATM   28  C   UNL     1     -12.008  13.674  70.334  1.00  0.00    -0.372 A  
HETATM   29  C   UNL     1     -11.195  14.589  69.498  1.00  0.00    -0.264 C  
HETATM   30  C   UNL     1     -11.774  12.290  70.234  1.00  0.00    -0.223 A  
HETATM   31  O   UNL     1     -11.843  15.713  69.122  1.00  0.00    -0.363 OA 
HETATM   32  O   UNL     1     -10.056  14.327  69.151  1.00  0.00    -0.174 OA 
ENDBRANCH  22  24
ENDBRANCH  17  20
ENDBRANCH  13  14
ENDBRANCH   3  13
BRANCH   7  33
HETATM   33  C   UNL     1      -7.582  10.025  65.304  1.00  0.00    -0.137 C  
HETATM   34  O   UNL     1      -8.577  11.016  65.561  1.00  0.00    -0.255 OA 
HETATM   35  H   UNL     1      -8.896  11.308  64.715  1.00  0.00     0.000 HD 
HETATM   36  C   UNL     1      -8.204   8.880  64.521  1.00  0.00    -0.166 C  
ENDBRANCH   7  33
TORSDOF 5
ENDMDL
MODEL      278
REMARK 921   NORMALIZED FREE ENERGY PREDICTED BY IDOCK:    0.81 KCAL/MOL
REMARK 922        TOTAL FREE ENERGY PREDICTED BY IDOCK:   -0.64 KCAL/MOL
REMARK 923 INTER-LIGAND FREE ENERGY PREDICTED BY IDOCK:   -1.75 KCAL/MOL
REMARK 924 INTRA-LIGAND FREE ENERGY PREDICTED BY IDOCK:    1.11 KCAL/MOL
REMARK 927      BINDING AFFINITY PREDICTED BY RF-SCORE:    0.00 PKD
ROOT
HETATM    1  C   UNL     1      -7.399   9.763  70.559  1.00  0.00    -0.112 C  
HETATM    2  C   UNL     1      -8.921   9.601  70.564  1.00  0.00    -0.186 C  
HETATM    3  C   UNL     1      -9.099   8.153  70.151  1.00  0.00    -0.147 C  
HETATM    4  C   UNL     1      -9.586  10.645  69.677  1.00  0.00     0.024 C  
HETATM    5  O   UNL     1      -5.324   8.217  68.509  1.00  0.00    -0.031 OA 
HETATM    6  C   UNL     1      -7.904   7.552  69.984  1.00  0.00    -0.099 C  
HETATM    7  C   UNL     1      -6.562  10.294  69.352  1.00  0.00    -0.058 C  
HETATM    8  N   UNL     1      -6.846   8.415  70.249  1.00  0.00    -0.036 N  
HETATM    9  C   UNL     1      -7.656   6.114  69.657  1.00  0.00    -0.093 C  
HETATM   10  O   UNL     1      -8.461   5.217  69.851  1.00  0.00    -0.094 OA 
HETATM   11  O   UNL     1      -6.449   5.858  69.105  1.00  0.00    -0.039 OA 
HETATM   12  C   UNL     1      -6.021   8.866  69.258  1.00  0.00    -0.041 C  
ENDROOT
BRANCH   3  13
HETATM   13  S   UNL     1     -10.684   7.475  70.155  1.00  0.00    -0.240 SA 
BRANCH  13  14
HETATM   14  C   UNL     1     -10.877   6.708  68.501  1.00  0.00    -0.258 C  
HETATM   15  C   UNL     1      -9.622   6.724  67.635  1.00  0.00    -0.125 C  
HETATM   16  N   UNL     1      -9.577   8.082  67.121  1.00  0.00    -0.162 NA 
HETATM   17  C   UNL     1     -10.966   8.492  66.817  1.00  0.00     0.474 C  
HETATM   18  C   UNL     1     -11.843   7.577  67.682  1.00  0.00     2.228 C  
HETATM   19  H   UNL     1      -8.949   8.184  66.322  1.00  0.00     0.000 HD 
BRANCH  17  20
HETATM   20  C   UNL     1     -11.086  10.031  67.011  1.00  0.00     0.065 C  
HETATM   21  O   UNL     1     -11.880  10.486  67.836  1.00  0.00    -0.400 OA 
HETATM   22  N   UNL     1     -10.178  10.797  66.294  1.00  0.00    -0.238 N  
HETATM   23  H   UNL     1      -9.510  10.290  65.714  1.00  0.00     0.000 HD 
BRANCH  22  24
HETATM   24  C   UNL     1     -10.082  12.212  66.283  1.00  0.00    -0.224 A  
HETATM   25  C   UNL     1     -10.592  13.019  65.260  1.00  0.00    -0.320 A  
HETATM   26  C   UNL     1     -10.478  14.413  65.314  1.00  0.00    -0.410 A  
HETATM   27  C   UNL     1      -9.839  15.024  66.387  1.00  0.00    -0.290 A  
HETATM   28  C   UNL     1      -9.294  14.231  67.403  1.00  0.00    -0.203 A  
HETATM   29  C   UNL     1      -8.598  14.832  68.566  1.00  0.00    -0.168 C  
HETATM   30  C   UNL     1      -9.436  12.832  67.358  1.00  0.00    -0.190 A  
HETATM   31  O   UNL     1      -7.923  15.965  68.278  1.00  0.00    -0.134 OA 
HETATM   32  O   UNL     1      -8.607  14.323  69.674  1.00  0.00     0.407 OA 
ENDBRANCH  22  24
ENDBRANCH  17  20
ENDBRANCH  13  14
ENDBRANCH   3  13
BRANCH   7  33
HETATM   33  C   UNL     1      -5.607  11.421  69.695  1.00  0.00    -0.064 C  
HETATM   34  O   UNL     1      -6.063  11.985  70.925  1.00  0.00    -0.530 OA 
HETATM   35  H   UNL     1      -5.465  12.691  71.139  1.00  0.00     0.000 HD 
HETATM   36  C   UNL     1      -5.609  12.496  68.619  1.00  0.00    -0.054 C  
ENDBRANCH   7  33
TORSDOF 5
ENDMDL
MODEL      279
REMARK 921   NORMALIZED FREE ENERGY PREDICTED BY IDOCK:    1.25 KCAL/MOL
REMARK 922        TOTAL FREE ENERGY PREDICTED BY IDOCK:   -0.07 KCAL/MOL
REMARK 923 INTER-LIGAND FREE ENERGY PREDICTED BY IDOCK:    0.65 KCAL/MOL
REMARK 924 INTRA-LIGAND FREE ENERGY PREDICTED BY IDOCK:   -0.71 KCAL/MOL
REMARK 927      BINDING AFFINITY PREDICTED BY RF-SCORE:    0.00 PKD
ROOT
HETATM    1  C   UNL     1      -8.079  18.045  69.691  1.00  0.00     0.874 C  
HETATM    2  C   UNL     1      -8.820  18.572  68.459  1.00  0.00    -0.351 C  
HETATM    3  C   UNL     1      -9.923  17.549  68.276  1.00  0.00    -0.330 C  
HETATM    4  C   UNL     1      -7.867  18.758  67.286  1.00  0.00    -0.243 C  
HETATM    5  O   UNL     1      -7.719  14.859  70.480  1.00  0.00     0.509 OA 
HETATM    6  C   UNL     1      -9.879  16.617  69.250  1.00  0.00    -0.194 C  
HETATM    7  C   UNL     1      -6.827  17.111  69.649  1.00  0.00     0.027 C  
HETATM    8  N   UNL     1      -8.852  16.858  70.154  1.00  0.00     1.747 N  
HETATM    9  C   UNL     1     -10.841  15.492  69.464  1.00  0.00    -0.267 C  
HETATM   10  O   UNL     1     -11.980  15.468  69.024  1.00  0.00    -0.354 OA 
HETATM   11  O   UNL     1     -10.354  14.461  70.190  1.00  0.00     0.282 OA 
HETATM   12  C   UNL     1      -7.757  16.044  70.232  1.00  0.00     1.253 C  
ENDROOT
BRANCH   3  13
HETATM   13  S   UNL     1     -11.114  17.819  67.060  1.00  0.00     0.485 SA 
BRANCH  13  14
HETATM   14  C   UNL     1     -10.283  17.402  65.479  1.00  0.00     0.018 C  
HETATM   15  C   UNL     1     -11.221  16.991  64.350  1.00  0.00     0.839 C  
HETATM   16  N   UNL     1     -11.554  15.613  64.665  1.00  0.00    -0.452 NA 
HETATM   17  C   UNL     1     -10.331  14.966  65.190  1.00  0.00    -0.401 C  
HETATM   18  C   UNL     1      -9.461  16.124  65.696  1.00  0.00    -0.136 C  
HETATM   19  H   UNL     1     -11.960  15.112  63.874  1.00  0.00     0.000 HD 
BRANCH  17  20
HETATM   20  C   UNL     1     -10.747  13.857  66.199  1.00  0.00    -0.283 C  
HETATM   21  O   UNL     1     -11.940  13.612  66.385  1.00  0.00    -0.380 OA 
HETATM   22  N   UNL     1      -9.702  13.127  66.750  1.00  0.00    -0.239 N  
HETATM   23  H   UNL     1      -8.762  13.371  66.443  1.00  0.00     0.000 HD 
BRANCH  22  24
HETATM   24  C   UNL     1      -9.808  12.077  67.697  1.00  0.00    -0.189 A  
HETATM   25  C   UNL     1      -8.954  10.969  67.730  1.00  0.00    -0.140 A  
HETATM   26  C   UNL     1      -9.101   9.971  68.700  1.00  0.00    -0.139 A  
HETATM   27  C   UNL     1     -10.115  10.057  69.647  1.00  0.00    -0.263 A  
HETATM   28  C   UNL     1     -10.998  11.141  69.609  1.00  0.00    -0.254 A  
HETATM   29  C   UNL     1     -12.099  11.277  70.594  1.00  0.00    -0.383 C  
HETATM   30  C   UNL     1     -10.829  12.156  68.650  1.00  0.00    -0.268 A  
HETATM   31  O   UNL     1     -12.628  10.101  70.995  1.00  0.00    -0.328 OA 
HETATM   32  O   UNL     1     -12.513  12.359  70.973  1.00  0.00    -0.368 OA 
ENDBRANCH  22  24
ENDBRANCH  17  20
ENDBRANCH  13  14
ENDBRANCH   3  13
BRANCH   7  33
HETATM   33  C   UNL     1      -5.653  17.595  70.477  1.00  0.00    -0.173 C  
HETATM   34  O   UNL     1      -5.182  16.470  71.217  1.00  0.00    -0.152 OA 
HETATM   35  H   UNL     1      -4.446  16.773  71.736  1.00  0.00     0.000 HD 
HETATM   36  C   UNL     1      -6.070  18.693  71.442  1.00  0.00     0.899 C  
ENDBRANCH   7  33
TORSDOF 5
ENDMDL
MODEL      280
REMARK 921   NORMALIZED FREE ENERGY PREDICTED BY IDOCK:    1.50 KCAL/MOL
REMARK 922        TOTAL FREE ENERGY PREDICTED BY IDOCK:    0.26 KCAL/MOL
REMARK 923 INTER-LIGAND FREE ENERGY PREDICTED BY IDOCK:    1.17 KCAL/MOL
REMARK 924 INTRA-LIGAND FREE ENERGY PREDICTED BY IDOCK:   -0.91 KCAL/MOL
REMARK 927      BINDING AFFINITY PREDICTED BY RF-SCORE:    0.00 PKD
ROOT
HETATM    1  C   UNL     1      -6.085  13.818  69.406  1.00  0.00    -0.103 C  
HETATM    2  C   UNL     1      -6.313  12.642  70.359  1.00  0.00     0.259 C  
HETATM    3  C   UNL     1      -7.323  11.799  69.607  1.00  0.00     0.379 C  
HETATM    4  C   UNL     1      -6.732  13.130  71.739  1.00  0.00     3.635 C  
HETATM    5  O   UNL     1      -8.364  15.117  67.402  1.00  0.00    -0.159 OA 
HETATM    6  C   UNL     1      -7.603  12.345  68.406  1.00  0.00    -0.129 C  
HETATM    7  C   UNL     1      -6.849  15.178  69.466  1.00  0.00    -0.179 C  
HETATM    8  N   UNL     1      -6.882  13.513  68.184  1.00  0.00    -0.102 N  
HETATM    9  C   UNL     1      -8.486  11.777  67.341  1.00  0.00    -0.158 C  
HETATM   10  O   UNL     1      -8.783  10.596  67.253  1.00  0.00    -0.129 OA 
HETATM   11  O   UNL     1      -8.961  12.681  66.457  1.00  0.00    -0.199 OA 
HETATM   12  C   UNL     1      -7.488  14.736  68.148  1.00  0.00    -0.117 C  
ENDROOT
BRANCH   3  13
HETATM   13  S   UNL     1      -7.780  10.270  70.256  1.00  0.00     0.374 SA 
BRANCH  13  14
HETATM   14  C   UNL     1      -6.285   9.658  71.125  1.00  0.00    -0.046 C  
HETATM   15  C   UNL     1      -5.167   9.168  70.212  1.00  0.00    -0.027 C  
HETATM   16  N   UNL     1      -5.608   7.844  69.808  1.00  0.00    -0.023 NA 
HETATM   17  C   UNL     1      -6.246   7.208  70.983  1.00  0.00    -0.036 C  
HETATM   18  C   UNL     1      -6.665   8.377  71.883  1.00  0.00    -0.083 C  
HETATM   19  H   UNL     1      -4.857   7.279  69.410  1.00  0.00     0.000 HD 
BRANCH  17  20
HETATM   20  C   UNL     1      -7.346   6.228  70.483  1.00  0.00    -0.085 C  
HETATM   21  O   UNL     1      -8.534   6.476  70.698  1.00  0.00    -0.131 OA 
HETATM   22  N   UNL     1      -6.896   5.166  69.710  1.00  0.00    -0.050 N  
HETATM   23  H   UNL     1      -5.893   5.125  69.530  1.00  0.00     0.000 HD 
BRANCH  22  24
HETATM   24  C   UNL     1      -7.685   4.132  69.146  1.00  0.00    -0.054 A  
HETATM   25  C   UNL     1      -8.194   3.053  69.877  1.00  0.00    -0.067 A  
HETATM   26  C   UNL     1      -8.979   2.071  69.264  1.00  0.00    -0.158 A  
HETATM   27  C   UNL     1      -9.258   2.143  67.904  1.00  0.00    -0.233 A  
HETATM   28  C   UNL     1      -8.730   3.197  67.150  1.00  0.00    -0.137 A  
HETATM   29  C   UNL     1      -8.994   3.317  65.696  1.00  0.00    -0.144 C  
HETATM   30  C   UNL     1      -7.965   4.197  67.776  1.00  0.00    -0.090 A  
HETATM   31  O   UNL     1      -9.101   2.132  65.056  1.00  0.00    -0.127 OA 
HETATM   32  O   UNL     1      -9.066   4.392  65.126  1.00  0.00    -0.135 OA 
ENDBRANCH  22  24
ENDBRANCH  17  20
ENDBRANCH  13  14
ENDBRANCH   3  13
BRANCH   7  33
HETATM   33  C   UNL     1      -5.956  16.403  69.477  1.00  0.00    -0.176 C  
HETATM   34  O   UNL     1      -5.459  16.536  70.808  1.00  0.00    -0.161 OA 
HETATM   35  H   UNL     1      -4.899  17.304  70.815  1.00  0.00     0.000 HD 
HETATM   36  C   UNL     1      -6.731  17.657  69.102  1.00  0.00    -0.243 C  
ENDBRANCH   7  33
TORSDOF 5
ENDMDL
MODEL      281
REMARK 921   NORMALIZED FREE ENERGY PREDICTED BY IDOCK:    2.37 KCAL/MOL
REMARK 922        TOTAL FREE ENERGY PREDICTED BY IDOCK:    1.38 KCAL/MOL
REMARK 923 INTER-LIGAND FREE ENERGY PREDICTED BY IDOCK:   -1.57 KCAL/MOL
REMARK 924 INTRA-LIGAND FREE ENERGY PREDICTED BY IDOCK:    2.95 KCAL/MOL
REMARK 927      BINDING AFFINITY PREDICTED BY RF-SCORE:    0.00 PKD
ROOT
HETATM    1  C   UNL     1     -11.322  14.894  68.047  1.00  0.00    -0.324 C  
HETATM    2  C   UNL     1     -10.165  15.776  67.571  1.00  0.00    -0.265 C  
HETATM    3  C   UNL     1      -9.192  14.764  67.001  1.00  0.00    -0.233 C  
HETATM    4  C   UNL     1      -9.647  16.654  68.702  1.00  0.00    -0.248 C  
HETATM    5  O   UNL     1     -11.016  11.832  69.242  1.00  0.00    -0.230 OA 
HETATM    6  C   UNL     1      -9.699  13.517  67.076  1.00  0.00    -0.251 C  
HETATM    7  C   UNL     1     -11.483  14.337  69.497  1.00  0.00    -0.336 C  
HETATM    8  N   UNL     1     -10.971  13.505  67.636  1.00  0.00    -0.259 N  
HETATM    9  C   UNL     1      -9.081  12.260  66.550  1.00  0.00    -0.188 C  
HETATM   10  O   UNL     1      -8.229  12.227  65.677  1.00  0.00     0.779 OA 
HETATM   11  O   UNL     1      -9.532  11.124  67.126  1.00  0.00    -0.170 OA 
HETATM   12  C   UNL     1     -11.208  12.968  68.870  1.00  0.00    -0.278 C  
ENDROOT
BRANCH   3  13
HETATM   13  S   UNL     1      -7.770  15.332  66.210  1.00  0.00     1.596 SA 
BRANCH  13  14
HETATM   14  C   UNL     1      -7.272  16.829  67.145  1.00  0.00    -0.185 C  
HETATM   15  C   UNL     1      -5.770  17.089  67.187  1.00  0.00    -0.160 C  
HETATM   16  N   UNL     1      -5.289  16.164  68.198  1.00  0.00    -0.101 NA 
HETATM   17  C   UNL     1      -6.295  16.125  69.284  1.00  0.00    -0.174 C  
HETATM   18  C   UNL     1      -7.599  16.596  68.627  1.00  0.00    -0.214 C  
HETATM   19  H   UNL     1      -4.352  16.392  68.533  1.00  0.00     0.000 HD 
BRANCH  17  20
HETATM   20  C   UNL     1      -6.265  14.716  69.942  1.00  0.00    -0.150 C  
HETATM   21  O   UNL     1      -6.422  14.603  71.160  1.00  0.00     0.072 OA 
HETATM   22  N   UNL     1      -6.170  13.646  69.063  1.00  0.00    -0.091 N  
HETATM   23  H   UNL     1      -6.139  13.873  68.069  1.00  0.00     0.000 HD 
BRANCH  22  24
HETATM   24  C   UNL     1      -6.113  12.271  69.402  1.00  0.00    -0.107 A  
HETATM   25  C   UNL     1      -6.105  11.236  68.461  1.00  0.00    -0.042 A  
HETATM   26  C   UNL     1      -6.034   9.896  68.859  1.00  0.00    -0.037 A  
HETATM   27  C   UNL     1      -5.982   9.567  70.209  1.00  0.00    -0.047 A  
HETATM   28  C   UNL     1      -6.022  10.587  71.165  1.00  0.00     0.111 A  
HETATM   29  C   UNL     1      -5.974  10.290  72.618  1.00  0.00     1.061 C  
HETATM   30  C   UNL     1      -6.065  11.934  70.760  1.00  0.00     0.290 A  
HETATM   31  O   UNL     1      -6.583   9.135  72.963  1.00  0.00    -0.313 OA 
HETATM   32  O   UNL     1      -5.464  11.044  73.428  1.00  0.00     0.061 OA 
ENDBRANCH  22  24
ENDBRANCH  17  20
ENDBRANCH  13  14
ENDBRANCH   3  13
BRANCH   7  33
HETATM   33  C   UNL     1     -12.837  14.599  70.126  1.00  0.00    -0.135 C  
HETATM   34  O   UNL     1     -12.862  15.980  70.485  1.00  0.00    -0.586 OA 
HETATM   35  H   UNL     1     -13.711  16.144  70.879  1.00  0.00     0.000 HD 
HETATM   36  C   UNL     1     -13.042  13.752  71.373  1.00  0.00    -0.413 C  
ENDBRANCH   7  33
TORSDOF 5
ENDMDL
MODEL      282
REMARK 921   NORMALIZED FREE ENERGY PREDICTED BY IDOCK:    3.60 KCAL/MOL
REMARK 922        TOTAL FREE ENERGY PREDICTED BY IDOCK:    2.97 KCAL/MOL
REMARK 923 INTER-LIGAND FREE ENERGY PREDICTED BY IDOCK:   -1.82 KCAL/MOL
REMARK 924 INTRA-LIGAND FREE ENERGY PREDICTED BY IDOCK:    4.79 KCAL/MOL
REMARK 927      BINDING AFFINITY PREDICTED BY RF-SCORE:    0.00 PKD
ROOT
HETATM    1  C   UNL     1      -9.228  17.594  66.416  1.00  0.00    -0.244 C  
HETATM    2  C   UNL     1      -8.139  16.522  66.520  1.00  0.00    -0.341 C  
HETATM    3  C   UNL     1      -8.751  15.523  67.481  1.00  0.00    -0.172 C  
HETATM    4  C   UNL     1      -6.808  17.135  66.936  1.00  0.00    -0.242 C  
HETATM    5  O   UNL     1     -11.276  18.472  68.851  1.00  0.00     1.136 OA 
HETATM    6  C   UNL     1      -9.994  15.902  67.839  1.00  0.00    -0.221 C  
HETATM    7  C   UNL     1      -9.293  18.889  67.286  1.00  0.00    -0.324 C  
HETATM    8  N   UNL     1     -10.375  17.088  67.222  1.00  0.00    -0.308 N  
HETATM    9  C   UNL     1     -10.953  15.147  68.705  1.00  0.00    -0.255 C  
HETATM   10  O   UNL     1     -10.894  13.945  68.908  1.00  0.00    -0.251 OA 
HETATM   11  O   UNL     1     -11.915  15.904  69.278  1.00  0.00    -0.356 OA 
HETATM   12  C   UNL     1     -10.527  18.249  67.926  1.00  0.00    -0.388 C  
ENDROOT
BRANCH   3  13
HETATM   13  S   UNL     1      -7.914  14.049  67.793  1.00  0.00    -0.188 SA 
BRANCH  13  14
HETATM   14  C   UNL     1      -8.861  13.241  69.140  1.00  0.00     0.652 C  
HETATM   15  C   UNL     1      -8.079  12.207  69.943  1.00  0.00     2.170 C  
HETATM   16  N   UNL     1      -8.082  11.033  69.088  1.00  0.00    -0.319 NA 
HETATM   17  C   UNL     1      -9.413  10.953  68.444  1.00  0.00    -0.178 C  
HETATM   18  C   UNL     1      -9.963  12.383  68.500  1.00  0.00    -0.175 C  
HETATM   19  H   UNL     1      -7.830  10.179  69.586  1.00  0.00     0.000 HD 
BRANCH  17  20
HETATM   20  C   UNL     1      -9.253  10.275  67.052  1.00  0.00    -0.150 C  
HETATM   21  O   UNL     1     -10.251   9.915  66.426  1.00  0.00    -0.242 OA 
HETATM   22  N   UNL     1      -7.958  10.227  66.555  1.00  0.00    -0.115 N  
HETATM   23  H   UNL     1      -7.230  10.644  67.135  1.00  0.00     0.000 HD 
BRANCH  22  24
HETATM   24  C   UNL     1      -7.541   9.658  65.325  1.00  0.00    -0.113 A  
HETATM   25  C   UNL     1      -6.798  10.346  64.360  1.00  0.00     0.004 A  
HETATM   26  C   UNL     1      -6.405   9.724  63.170  1.00  0.00    -0.114 A  
HETATM   27  C   UNL     1      -6.760   8.404  62.918  1.00  0.00    -0.090 A  
HETATM   28  C   UNL     1      -7.530   7.709  63.857  1.00  0.00    -0.107 A  
HETATM   29  C   UNL     1      -7.939   6.301  63.635  1.00  0.00    -0.090 C  
HETATM   30  C   UNL     1      -7.899   8.330  65.065  1.00  0.00    -0.126 A  
HETATM   31  O   UNL     1      -8.170   5.993  62.341  1.00  0.00    -0.101 OA 
HETATM   32  O   UNL     1      -8.089   5.507  64.547  1.00  0.00    -0.116 OA 
ENDBRANCH  22  24
ENDBRANCH  17  20
ENDBRANCH  13  14
ENDBRANCH   3  13
BRANCH   7  33
HETATM   33  C   UNL     1      -9.456  20.172  66.495  1.00  0.00    -0.374 C  
HETATM   34  O   UNL     1     -10.258  19.853  65.358  1.00  0.00    -0.339 OA 
HETATM   35  H   UNL     1     -10.360  20.658  64.863  1.00  0.00     0.000 HD 
HETATM   36  C   UNL     1      -8.112  20.709  66.028  1.00  0.00     0.255 C  
ENDBRANCH   7  33
TORSDOF 5
ENDMDL
MODEL      283
REMARK 921   NORMALIZED FREE ENERGY PREDICTED BY IDOCK:    4.97 KCAL/MOL
REMARK 922        TOTAL FREE ENERGY PREDICTED BY IDOCK:    4.74 KCAL/MOL
REMARK 923 INTER-LIGAND FREE ENERGY PREDICTED BY IDOCK:    3.65 KCAL/MOL
REMARK 924 INTRA-LIGAND FREE ENERGY PREDICTED BY IDOCK:    1.09 KCAL/MOL
REMARK 927      BINDING AFFINITY PREDICTED BY RF-SCORE:    0.00 PKD
ROOT
HETATM    1  C   UNL     1      -7.841  17.687  69.529  1.00  0.00     0.505 C  
HETATM    2  C   UNL     1      -8.555  18.818  68.784  1.00  0.00    -0.316 C  
HETATM    3  C   UNL     1      -9.835  18.151  68.322  1.00  0.00    -0.351 C  
HETATM    4  C   UNL     1      -7.665  19.404  67.697  1.00  0.00    -0.299 C  
HETATM    5  O   UNL     1      -8.011  14.484  68.745  1.00  0.00    -0.137 OA 
HETATM    6  C   UNL     1      -9.895  16.876  68.756  1.00  0.00    -0.269 C  
HETATM    7  C   UNL     1      -6.784  16.727  68.894  1.00  0.00    -0.195 C  
HETATM    8  N   UNL     1      -8.782  16.532  69.515  1.00  0.00     0.091 N  
HETATM    9  C   UNL     1     -11.028  15.916  68.578  1.00  0.00    -0.324 C  
HETATM   10  O   UNL     1     -12.179  16.247  68.342  1.00  0.00     0.220 OA 
HETATM   11  O   UNL     1     -10.688  14.612  68.687  1.00  0.00    -0.235 OA 
HETATM   12  C   UNL     1      -7.850  15.642  69.062  1.00  0.00    -0.204 C  
ENDROOT
BRANCH   3  13
HETATM   13  S   UNL     1     -11.036  19.109  67.541  1.00  0.00     0.114 SA 
BRANCH  13  14
HETATM   14  C   UNL     1     -10.415  19.350  65.832  1.00  0.00    -0.472 C  
HETATM   15  C   UNL     1     -11.496  19.403  64.758  1.00  0.00     2.880 C  
HETATM   16  N   UNL     1     -11.844  18.008  64.552  1.00  0.00     2.461 NA 
HETATM   17  C   UNL     1     -10.594  17.219  64.628  1.00  0.00     1.284 C  
HETATM   18  C   UNL     1      -9.625  18.096  65.431  1.00  0.00     1.149 C  
HETATM   19  H   UNL     1     -12.361  17.851  63.685  1.00  0.00     0.000 HD 
BRANCH  17  20
HETATM   20  C   UNL     1     -10.932  15.801  65.170  1.00  0.00    -0.382 C  
HETATM   21  O   UNL     1     -12.106  15.480  65.362  1.00  0.00     0.260 OA 
HETATM   22  N   UNL     1      -9.853  14.935  65.296  1.00  0.00    -0.431 N  
HETATM   23  H   UNL     1      -8.942  15.297  65.015  1.00  0.00     0.000 HD 
BRANCH  22  24
HETATM   24  C   UNL     1      -9.887  13.601  65.773  1.00  0.00    -0.211 A  
HETATM   25  C   UNL     1     -10.793  12.635  65.323  1.00  0.00    -0.319 A  
HETATM   26  C   UNL     1     -10.767  11.329  65.825  1.00  0.00    -0.284 A  
HETATM   27  C   UNL     1      -9.840  10.969  66.797  1.00  0.00    -0.229 A  
HETATM   28  C   UNL     1      -8.947  11.930  67.282  1.00  0.00    -0.176 A  
HETATM   29  C   UNL     1      -7.943  11.599  68.322  1.00  0.00    -0.143 C  
HETATM   30  C   UNL     1      -8.959  13.234  66.755  1.00  0.00    -0.183 A  
HETATM   31  O   UNL     1      -8.361  10.678  69.217  1.00  0.00    -0.152 OA 
HETATM   32  O   UNL     1      -6.854  12.142  68.382  1.00  0.00    -0.063 OA 
ENDBRANCH  22  24
ENDBRANCH  17  20
ENDBRANCH  13  14
ENDBRANCH   3  13
BRANCH   7  33
HETATM   33  C   UNL     1      -5.489  16.613  69.673  1.00  0.00    -0.160 C  
HETATM   34  O   UNL     1      -5.135  15.230  69.680  1.00  0.00    -0.091 OA 
HETATM   35  H   UNL     1      -4.323  15.159  70.168  1.00  0.00     0.000 HD 
HETATM   36  C   UNL     1      -5.659  17.095  71.105  1.00  0.00     0.310 C  
ENDBRANCH   7  33
TORSDOF 5
ENDMDL
MODEL      284
REMARK 921   NORMALIZED FREE ENERGY PREDICTED BY IDOCK:    5.39 KCAL/MOL
REMARK 922        TOTAL FREE ENERGY PREDICTED BY IDOCK:    5.29 KCAL/MOL
REMARK 923 INTER-LIGAND FREE ENERGY PREDICTED BY IDOCK:   -4.12 KCAL/MOL
REMARK 924 INTRA-LIGAND FREE ENERGY PREDICTED BY IDOCK:    9.41 KCAL/MOL
REMARK 927      BINDING AFFINITY PREDICTED BY RF-SCORE:    0.00 PKD
ROOT
HETATM    1  C   UNL     1      -9.504   8.411  68.150  1.00  0.00    -0.138 C  
HETATM    2  C   UNL     1      -8.266   8.517  67.257  1.00  0.00    -0.108 C  
HETATM    3  C   UNL     1      -8.384   7.284  66.383  1.00  0.00    -0.124 C  
HETATM    4  C   UNL     1      -6.998   8.637  68.092  1.00  0.00    -0.074 C  
HETATM    5  O   UNL     1     -10.859   5.590  69.203  1.00  0.00    -0.251 OA 
HETATM    6  C   UNL     1      -9.511   6.601  66.667  1.00  0.00    -0.164 C  
HETATM    7  C   UNL     1      -9.531   7.750  69.565  1.00  0.00    -0.160 C  
HETATM    8  N   UNL     1     -10.256   7.219  67.665  1.00  0.00    -0.183 N  
HETATM    9  C   UNL     1     -10.024   5.380  65.973  1.00  0.00    -0.084 C  
HETATM   10  O   UNL     1      -9.701   5.045  64.844  1.00  0.00     0.027 OA 
HETATM   11  O   UNL     1     -10.889   4.637  66.698  1.00  0.00     0.033 OA 
HETATM   12  C   UNL     1     -10.390   6.667  68.908  1.00  0.00    -0.193 C  
ENDROOT
BRANCH   3  13
HETATM   13  S   UNL     1      -7.251   7.061  65.104  1.00  0.00    -0.078 SA 
BRANCH  13  14
HETATM   14  C   UNL     1      -5.719   7.893  65.674  1.00  0.00    -0.037 C  
HETATM   15  C   UNL     1      -5.854   8.655  66.988  1.00  0.00    -0.042 C  
HETATM   16  N   UNL     1      -6.513   9.891  66.602  1.00  0.00    -0.069 NA 
HETATM   17  C   UNL     1      -5.954  10.307  65.295  1.00  0.00    -0.127 C  
HETATM   18  C   UNL     1      -5.391   9.018  64.682  1.00  0.00    -0.050 C  
HETATM   19  H   UNL     1      -6.441  10.619  67.314  1.00  0.00     0.000 HD 
BRANCH  17  20
HETATM   20  C   UNL     1      -7.048  11.083  64.509  1.00  0.00     0.766 C  
HETATM   21  O   UNL     1      -6.891  11.322  63.310  1.00  0.00     0.703 OA 
HETATM   22  N   UNL     1      -8.210  11.362  65.217  1.00  0.00    -0.263 N  
HETATM   23  H   UNL     1      -8.249  11.029  66.179  1.00  0.00     0.000 HD 
BRANCH  22  24
HETATM   24  C   UNL     1      -9.347  12.063  64.740  1.00  0.00     0.226 A  
HETATM   25  C   UNL     1     -10.276  11.522  63.844  1.00  0.00    -0.411 A  
HETATM   26  C   UNL     1     -11.387  12.260  63.421  1.00  0.00    -0.508 A  
HETATM   27  C   UNL     1     -11.581  13.559  63.877  1.00  0.00    -0.350 A  
HETATM   28  C   UNL     1     -10.645  14.128  64.747  1.00  0.00    -0.439 A  
HETATM   29  C   UNL     1     -10.803  15.511  65.259  1.00  0.00    -0.411 C  
HETATM   30  C   UNL     1      -9.545  13.372  65.192  1.00  0.00     0.184 A  
HETATM   31  O   UNL     1     -11.383  16.359  64.382  1.00  0.00    -0.784 OA 
HETATM   32  O   UNL     1     -10.407  15.856  66.359  1.00  0.00    -0.286 OA 
ENDBRANCH  22  24
ENDBRANCH  17  20
ENDBRANCH  13  14
ENDBRANCH   3  13
BRANCH   7  33
HETATM   33  C   UNL     1     -10.141   8.613  70.652  1.00  0.00    -0.198 C  
HETATM   34  O   UNL     1      -9.061   9.299  71.285  1.00  0.00    -0.264 OA 
HETATM   35  H   UNL     1      -9.443   9.840  71.966  1.00  0.00     0.000 HD 
HETATM   36  C   UNL     1     -10.873   7.770  71.684  1.00  0.00    -0.265 C  
ENDBRANCH   7  33
TORSDOF 5
ENDMDL
MODEL      285
REMARK 921   NORMALIZED FREE ENERGY PREDICTED BY IDOCK:    6.61 KCAL/MOL
REMARK 922        TOTAL FREE ENERGY PREDICTED BY IDOCK:    6.86 KCAL/MOL
REMARK 923 INTER-LIGAND FREE ENERGY PREDICTED BY IDOCK:   -0.21 KCAL/MOL
REMARK 924 INTRA-LIGAND FREE ENERGY PREDICTED BY IDOCK:    7.07 KCAL/MOL
REMARK 927      BINDING AFFINITY PREDICTED BY RF-SCORE:    0.00 PKD
ROOT
HETATM    1  C   UNL     1      -7.692   7.142  66.135  1.00  0.00    -0.098 C  
HETATM    2  C   UNL     1      -7.224   6.810  67.554  1.00  0.00    -0.090 C  
HETATM    3  C   UNL     1      -7.916   5.490  67.829  1.00  0.00    -0.101 C  
HETATM    4  C   UNL     1      -7.536   7.951  68.513  1.00  0.00    -0.096 C  
HETATM    5  O   UNL     1     -10.642   6.368  64.871  1.00  0.00     3.261 OA 
HETATM    6  C   UNL     1      -8.621   5.086  66.753  1.00  0.00    -0.109 C  
HETATM    7  C   UNL     1      -8.925   8.034  65.787  1.00  0.00    -0.148 C  
HETATM    8  N   UNL     1      -8.508   5.976  65.692  1.00  0.00    -0.147 N  
HETATM    9  C   UNL     1      -9.374   3.803  66.599  1.00  0.00    -0.190 C  
HETATM   10  O   UNL     1      -9.164   2.800  67.262  1.00  0.00    -0.169 OA 
HETATM   11  O   UNL     1     -10.342   3.823  65.656  1.00  0.00     0.015 OA 
HETATM   12  C   UNL     1      -9.562   6.739  65.277  1.00  0.00     1.124 C  
ENDROOT
BRANCH   3  13
HETATM   13  S   UNL     1      -7.562   4.654  69.294  1.00  0.00    -0.056 SA 
BRANCH  13  14
HETATM   14  C   UNL     1      -9.171   3.974  69.853  1.00  0.00    -0.143 C  
HETATM   15  C   UNL     1     -10.230   3.853  68.764  1.00  0.00     0.681 C  
HETATM   16  N   UNL     1     -10.730   5.209  68.619  1.00  0.00     0.054 NA 
HETATM   17  C   UNL     1     -10.797   5.808  69.971  1.00  0.00    -0.333 C  
HETATM   18  C   UNL     1      -9.810   4.988  70.812  1.00  0.00    -0.279 C  
HETATM   19  H   UNL     1     -11.620   5.254  68.121  1.00  0.00     0.000 HD 
BRANCH  17  20
HETATM   20  C   UNL     1     -10.570   7.342  69.850  1.00  0.00    -0.231 C  
HETATM   21  O   UNL     1      -9.518   7.771  69.371  1.00  0.00    -0.156 OA 
HETATM   22  N   UNL     1     -11.652   8.137  70.200  1.00  0.00    -0.468 N  
HETATM   23  H   UNL     1     -12.499   7.652  70.495  1.00  0.00     0.000 HD 
BRANCH  22  24
HETATM   24  C   UNL     1     -11.703   9.554  70.190  1.00  0.00    -0.048 A  
HETATM   25  C   UNL     1     -11.979  10.332  71.321  1.00  0.00    -0.457 A  
HETATM   26  C   UNL     1     -12.001  11.729  71.250  1.00  0.00     0.363 A  
HETATM   27  C   UNL     1     -11.761  12.374  70.042  1.00  0.00    -0.307 A  
HETATM   28  C   UNL     1     -11.516  11.612  68.894  1.00  0.00    -0.349 A  
HETATM   29  C   UNL     1     -11.259  12.251  67.581  1.00  0.00    -0.290 C  
HETATM   30  C   UNL     1     -11.467  10.209  68.976  1.00  0.00    -0.138 A  
HETATM   31  O   UNL     1     -11.934  13.405  67.388  1.00  0.00    -0.365 OA 
HETATM   32  O   UNL     1     -10.532  11.754  66.738  1.00  0.00    -0.214 OA 
ENDBRANCH  22  24
ENDBRANCH  17  20
ENDBRANCH  13  14
ENDBRANCH   3  13
BRANCH   7  33
HETATM   33  C   UNL     1      -8.638   9.150  64.801  1.00  0.00    -0.184 C  
HETATM   34  O   UNL     1      -9.850   9.889  64.654  1.00  0.00    -0.389 OA 
HETATM   35  H   UNL     1      -9.670  10.589  64.037  1.00  0.00     0.000 HD 
HETATM   36  C   UNL     1      -8.218   8.599  63.448  1.00  0.00    -0.155 C  
ENDBRANCH   7  33
TORSDOF 5
ENDMDL
MODEL      286
REMARK 921   NORMALIZED FREE ENERGY PREDICTED BY IDOCK:    7.24 KCAL/MOL
REMARK 922        TOTAL FREE ENERGY PREDICTED BY IDOCK:    7.67 KCAL/MOL
REMARK 923 INTER-LIGAND FREE ENERGY PREDICTED BY IDOCK:   -5.34 KCAL/MOL
REMARK 924 INTRA-LIGAND FREE ENERGY PREDICTED BY IDOCK:   13.01 KCAL/MOL
REMARK 927      BINDING AFFINITY PREDICTED BY RF-SCORE:    0.00 PKD
ROOT
HETATM    1  C   UNL     1      -8.303   8.627  69.957  1.00  0.00    -0.124 C  
HETATM    2  C   UNL     1      -7.751   8.792  68.539  1.00  0.00    -0.099 C  
HETATM    3  C   UNL     1      -8.774   8.054  67.699  1.00  0.00    -0.126 C  
HETATM    4  C   UNL     1      -6.315   8.294  68.451  1.00  0.00    -0.054 C  
HETATM    5  O   UNL     1      -9.966   5.996  71.059  1.00  0.00    -0.180 OA 
HETATM    6  C   UNL     1      -9.776   7.583  68.468  1.00  0.00    -0.156 C  
HETATM    7  C   UNL     1      -7.891   7.493  70.950  1.00  0.00    -0.094 C  
HETATM    8  N   UNL     1      -9.604   7.915  69.807  1.00  0.00    -0.167 N  
HETATM    9  C   UNL     1     -11.009   6.874  68.007  1.00  0.00    -0.166 C  
HETATM   10  O   UNL     1     -11.456   6.939  66.873  1.00  0.00    -0.107 OA 
HETATM   11  O   UNL     1     -11.616   6.120  68.950  1.00  0.00    -0.172 OA 
HETATM   12  C   UNL     1      -9.316   6.970  70.751  1.00  0.00    -0.161 C  
ENDROOT
BRANCH   3  13
HETATM   13  S   UNL     1      -8.627   8.097  65.982  1.00  0.00    -0.154 SA 
BRANCH  13  14
HETATM   14  C   UNL     1      -6.840   8.364  65.665  1.00  0.00    -0.066 C  
HETATM   15  C   UNL     1      -5.949   8.278  66.898  1.00  0.00    -0.053 C  
HETATM   16  N   UNL     1      -6.137   9.563  67.549  1.00  0.00    -0.052 NA 
HETATM   17  C   UNL     1      -6.224  10.593  66.489  1.00  0.00    -0.097 C  
HETATM   18  C   UNL     1      -6.647   9.824  65.230  1.00  0.00    -0.098 C  
HETATM   19  H   UNL     1      -5.417   9.767  68.242  1.00  0.00     0.000 HD 
BRANCH  17  20
HETATM   20  C   UNL     1      -7.136  11.749  66.990  1.00  0.00    -0.132 C  
HETATM   21  O   UNL     1      -6.630  12.777  67.446  1.00  0.00    -0.153 OA 
HETATM   22  N   UNL     1      -8.496  11.576  66.776  1.00  0.00    -0.164 N  
HETATM   23  H   UNL     1      -8.779  10.717  66.304  1.00  0.00     0.000 HD 
BRANCH  22  24
HETATM   24  C   UNL     1      -9.535  12.468  67.145  1.00  0.00    -0.208 A  
HETATM   25  C   UNL     1     -10.873  12.303  66.771  1.00  0.00    -0.291 A  
HETATM   26  C   UNL     1     -11.855  13.212  67.179  1.00  0.00    -0.424 A  
HETATM   27  C   UNL     1     -11.513  14.311  67.959  1.00  0.00    -0.342 A  
HETATM   28  C   UNL     1     -10.175  14.510  68.316  1.00  0.00    -0.234 A  
HETATM   29  C   UNL     1      -9.758  15.668  69.142  1.00  0.00    -0.249 C  
HETATM   30  C   UNL     1      -9.196  13.578  67.927  1.00  0.00    -0.211 A  
HETATM   31  O   UNL     1     -10.481  16.788  68.926  1.00  0.00    -0.290 OA 
HETATM   32  O   UNL     1      -8.818  15.620  69.917  1.00  0.00    -0.120 OA 
ENDBRANCH  22  24
ENDBRANCH  17  20
ENDBRANCH  13  14
ENDBRANCH   3  13
BRANCH   7  33
HETATM   33  C   UNL     1      -7.472   7.980  72.323  1.00  0.00    -0.098 C  
HETATM   34  O   UNL     1      -6.518   9.022  72.115  1.00  0.00    -0.223 OA 
HETATM   35  H   UNL     1      -6.255   9.326  72.976  1.00  0.00     0.000 HD 
HETATM   36  C   UNL     1      -6.830   6.865  73.134  1.00  0.00    -0.074 C  
ENDBRANCH   7  33
TORSDOF 5
ENDMDL
MODEL      287
REMARK 921   NORMALIZED FREE ENERGY PREDICTED BY IDOCK:    7.47 KCAL/MOL
REMARK 922        TOTAL FREE ENERGY PREDICTED BY IDOCK:    7.97 KCAL/MOL
REMARK 923 INTER-LIGAND FREE ENERGY PREDICTED BY IDOCK:    2.60 KCAL/MOL
REMARK 924 INTRA-LIGAND FREE ENERGY PREDICTED BY IDOCK:    5.37 KCAL/MOL
REMARK 927      BINDING AFFINITY PREDICTED BY RF-SCORE:    0.00 PKD
ROOT
HETATM    1  C   UNL     1     -10.231  15.543  69.292  1.00  0.00    -0.252 C  
HETATM    2  C   UNL     1     -10.272  16.597  68.183  1.00  0.00    -0.280 C  
HETATM    3  C   UNL     1      -8.838  16.617  67.694  1.00  0.00    -0.201 C  
HETATM    4  C   UNL     1     -10.830  17.916  68.702  1.00  0.00     0.150 C  
HETATM    5  O   UNL     1      -7.655  14.960  71.272  1.00  0.00     1.610 OA 
HETATM    6  C   UNL     1      -8.094  15.706  68.353  1.00  0.00    -0.137 C  
HETATM    7  C   UNL     1     -10.011  15.849  70.808  1.00  0.00     1.034 C  
HETATM    8  N   UNL     1      -8.845  14.994  69.281  1.00  0.00    -0.189 N  
HETATM    9  C   UNL     1      -6.659  15.365  68.106  1.00  0.00    -0.133 C  
HETATM   10  O   UNL     1      -6.069  15.591  67.062  1.00  0.00    -0.277 OA 
HETATM   11  O   UNL     1      -6.028  14.781  69.149  1.00  0.00    -0.097 OA 
HETATM   12  C   UNL     1      -8.662  15.150  70.626  1.00  0.00     1.749 C  
ENDROOT
BRANCH   3  13
HETATM   13  S   UNL     1      -8.439  17.584  66.324  1.00  0.00    -0.169 SA 
BRANCH  13  14
HETATM   14  C   UNL     1      -9.982  17.665  65.335  1.00  0.00     0.565 C  
HETATM   15  C   UNL     1     -11.268  17.500  66.137  1.00  0.00     0.789 C  
HETATM   16  N   UNL     1     -11.354  16.066  66.355  1.00  0.00     0.171 NA 
HETATM   17  C   UNL     1     -10.892  15.397  65.118  1.00  0.00    -0.431 C  
HETATM   18  C   UNL     1     -10.020  16.441  64.410  1.00  0.00     2.699 C  
HETATM   19  H   UNL     1     -12.285  15.764  66.647  1.00  0.00     0.000 HD 
BRANCH  17  20
HETATM   20  C   UNL     1     -10.251  14.032  65.499  1.00  0.00    -0.343 C  
HETATM   21  O   UNL     1      -9.456  13.968  66.439  1.00  0.00    -0.282 OA 
HETATM   22  N   UNL     1     -10.724  12.931  64.798  1.00  0.00    -0.315 N  
HETATM   23  H   UNL     1     -11.451  13.108  64.106  1.00  0.00     0.000 HD 
BRANCH  22  24
HETATM   24  C   UNL     1     -10.300  11.586  64.943  1.00  0.00    -0.289 A  
HETATM   25  C   UNL     1      -9.804  10.807  63.892  1.00  0.00    -0.389 A  
HETATM   26  C   UNL     1      -9.389   9.488  64.102  1.00  0.00    -0.042 A  
HETATM   27  C   UNL     1      -9.475   8.918  65.367  1.00  0.00    -0.086 A  
HETATM   28  C   UNL     1      -9.998   9.671  66.424  1.00  0.00    -0.323 A  
HETATM   29  C   UNL     1     -10.116   9.108  67.791  1.00  0.00    -0.203 C  
HETATM   30  C   UNL     1     -10.389  11.006  66.214  1.00  0.00    -0.304 A  
HETATM   31  O   UNL     1     -10.385   7.785  67.821  1.00  0.00    -0.198 OA 
HETATM   32  O   UNL     1     -10.018   9.793  68.795  1.00  0.00    -0.159 OA 
ENDBRANCH  22  24
ENDBRANCH  17  20
ENDBRANCH  13  14
ENDBRANCH   3  13
BRANCH   7  33
HETATM   33  C   UNL     1     -11.041  15.230  71.731  1.00  0.00    -0.158 C  
HETATM   34  O   UNL     1     -11.933  14.479  70.907  1.00  0.00    -0.300 OA 
HETATM   35  H   UNL     1     -12.579  14.092  71.487  1.00  0.00     0.000 HD 
HETATM   36  C   UNL     1     -11.826  16.297  72.479  1.00  0.00    -0.608 C  
ENDBRANCH   7  33
TORSDOF 5
ENDMDL
MODEL      288
REMARK 921   NORMALIZED FREE ENERGY PREDICTED BY IDOCK:    8.57 KCAL/MOL
REMARK 922        TOTAL FREE ENERGY PREDICTED BY IDOCK:    9.39 KCAL/MOL
REMARK 923 INTER-LIGAND FREE ENERGY PREDICTED BY IDOCK:   -1.79 KCAL/MOL
REMARK 924 INTRA-LIGAND FREE ENERGY PREDICTED BY IDOCK:   11.18 KCAL/MOL
REMARK 927      BINDING AFFINITY PREDICTED BY RF-SCORE:    0.00 PKD
ROOT
HETATM    1  C   UNL     1      -8.721   7.126  67.638  1.00  0.00    -0.121 C  
HETATM    2  C   UNL     1      -7.331   6.915  67.030  1.00  0.00    -0.086 C  
HETATM    3  C   UNL     1      -7.614   5.961  65.886  1.00  0.00    -0.086 C  
HETATM    4  C   UNL     1      -6.341   6.436  68.083  1.00  0.00    -0.040 C  
HETATM    5  O   UNL     1     -11.118   4.859  67.745  1.00  0.00     0.675 OA 
HETATM    6  C   UNL     1      -8.933   5.697  65.797  1.00  0.00    -0.147 C  
HETATM    7  C   UNL     1      -9.307   6.307  68.831  1.00  0.00    -0.128 C  
HETATM    8  N   UNL     1      -9.666   6.378  66.762  1.00  0.00    -0.154 N  
HETATM    9  C   UNL     1      -9.618   4.869  64.757  1.00  0.00     0.113 C  
HETATM   10  O   UNL     1      -9.149   4.621  63.658  1.00  0.00    -0.141 OA 
HETATM   11  O   UNL     1     -10.826   4.385  65.123  1.00  0.00    -0.255 OA 
HETATM   12  C   UNL     1     -10.274   5.726  67.797  1.00  0.00    -0.192 C  
ENDROOT
BRANCH   3  13
HETATM   13  S   UNL     1      -6.330   5.545  64.814  1.00  0.00    -0.038 SA 
BRANCH  13  14
HETATM   14  C   UNL     1      -6.748   3.868  64.201  1.00  0.00    -0.044 C  
HETATM   15  C   UNL     1      -8.126   3.360  64.608  1.00  0.00    -0.090 C  
HETATM   16  N   UNL     1      -7.942   2.931  65.983  1.00  0.00    -0.081 NA 
HETATM   17  C   UNL     1      -6.609   2.293  66.078  1.00  0.00    -0.028 C  
HETATM   18  C   UNL     1      -5.818   2.862  64.894  1.00  0.00    -0.018 C  
HETATM   19  H   UNL     1      -8.695   2.328  66.316  1.00  0.00     0.000 HD 
BRANCH  17  20
HETATM   20  C   UNL     1      -6.052   2.510  67.514  1.00  0.00    -0.027 C  
HETATM   21  O   UNL     1      -5.276   1.688  68.003  1.00  0.00    -0.011 OA 
HETATM   22  N   UNL     1      -6.398   3.714  68.114  1.00  0.00    -0.036 N  
HETATM   23  H   UNL     1      -6.974   4.350  67.564  1.00  0.00     0.000 HD 
BRANCH  22  24
HETATM   24  C   UNL     1      -6.033   4.150  69.413  1.00  0.00    -0.023 A  
HETATM   25  C   UNL     1      -5.503   5.415  69.689  1.00  0.00    -0.008 A  
HETATM   26  C   UNL     1      -5.175   5.792  70.996  1.00  0.00    -0.009 A  
HETATM   27  C   UNL     1      -5.360   4.904  72.050  1.00  0.00    -0.005 A  
HETATM   28  C   UNL     1      -5.858   3.623  71.788  1.00  0.00    -0.013 A  
HETATM   29  C   UNL     1      -6.069   2.637  72.875  1.00  0.00    -0.009 C  
HETATM   30  C   UNL     1      -6.213   3.259  70.477  1.00  0.00    -0.023 A  
HETATM   31  O   UNL     1      -5.171   2.724  73.880  1.00  0.00     0.000 OA 
HETATM   32  O   UNL     1      -6.953   1.798  72.841  1.00  0.00    -0.022 OA 
ENDBRANCH  22  24
ENDBRANCH  17  20
ENDBRANCH  13  14
ENDBRANCH   3  13
BRANCH   7  33
HETATM   33  C   UNL     1      -9.861   7.151  69.962  1.00  0.00    -0.178 C  
HETATM   34  O   UNL     1     -11.052   7.764  69.471  1.00  0.00    -0.427 OA 
HETATM   35  H   UNL     1     -11.399   8.294  70.181  1.00  0.00     0.000 HD 
HETATM   36  C   UNL     1      -8.875   8.231  70.381  1.00  0.00    -0.141 C  
ENDBRANCH   7  33
TORSDOF 5
ENDMDL
MODEL      289
REMARK 921   NORMALIZED FREE ENERGY PREDICTED BY IDOCK:   11.84 KCAL/MOL
REMARK 922        TOTAL FREE ENERGY PREDICTED BY IDOCK:   13.62 KCAL/MOL
REMARK 923 INTER-LIGAND FREE ENERGY PREDICTED BY IDOCK:   14.22 KCAL/MOL
REMARK 924 INTRA-LIGAND FREE ENERGY PREDICTED BY IDOCK:   -0.61 KCAL/MOL
REMARK 927      BINDING AFFINITY PREDICTED BY RF-SCORE:    0.00 PKD
ROOT
HETATM    1  C   UNL     1      -9.738  14.212  66.806  1.00  0.00    -0.277 C  
HETATM    2  C   UNL     1      -9.731  12.705  67.075  1.00  0.00    -0.225 C  
HETATM    3  C   UNL     1      -9.387  12.636  68.550  1.00  0.00    -0.080 C  
HETATM    4  C   UNL     1      -8.785  11.984  66.124  1.00  0.00     0.042 C  
HETATM    5  O   UNL     1      -7.796  16.425  68.298  1.00  0.00    -0.157 OA 
HETATM    6  C   UNL     1      -9.266  13.873  69.072  1.00  0.00     0.207 C  
HETATM    7  C   UNL     1      -8.519  15.031  66.275  1.00  0.00     0.196 C  
HETATM    8  N   UNL     1      -9.502  14.863  68.125  1.00  0.00    -0.197 N  
HETATM    9  C   UNL     1      -9.013  14.227  70.503  1.00  0.00     2.776 C  
HETATM   10  O   UNL     1      -9.240  13.483  71.444  1.00  0.00     8.106 OA 
HETATM   11  O   UNL     1      -8.491  15.457  70.699  1.00  0.00     1.067 OA 
HETATM   12  C   UNL     1      -8.502  15.672  67.665  1.00  0.00    -0.157 C  
ENDROOT
BRANCH   3  13
HETATM   13  S   UNL     1      -9.403  11.103  69.337  1.00  0.00     0.460 SA 
BRANCH  13  14
HETATM   14  C   UNL     1      -7.639  10.715  69.658  1.00  0.00    -0.092 C  
HETATM   15  C   UNL     1      -6.703  10.956  68.479  1.00  0.00    -0.057 C  
HETATM   16  N   UNL     1      -6.916   9.798  67.628  1.00  0.00    -0.085 NA 
HETATM   17  C   UNL     1      -7.078   8.620  68.510  1.00  0.00    -0.073 C  
HETATM   18  C   UNL     1      -7.514   9.198  69.862  1.00  0.00    -0.070 C  
HETATM   19  H   UNL     1      -6.180   9.675  66.932  1.00  0.00     0.000 HD 
BRANCH  17  20
HETATM   20  C   UNL     1      -8.013   7.595  67.807  1.00  0.00    -0.121 C  
HETATM   21  O   UNL     1      -9.224   7.612  68.033  1.00  0.00    -0.138 OA 
HETATM   22  N   UNL     1      -7.405   6.781  66.861  1.00  0.00    -0.080 N  
HETATM   23  H   UNL     1      -6.409   6.929  66.702  1.00  0.00     0.000 HD 
BRANCH  22  24
HETATM   24  C   UNL     1      -8.026   5.764  66.092  1.00  0.00    -0.102 A  
HETATM   25  C   UNL     1      -9.403   5.694  65.859  1.00  0.00    -0.119 A  
HETATM   26  C   UNL     1      -9.955   4.672  65.079  1.00  0.00    -0.041 A  
HETATM   27  C   UNL     1      -9.137   3.691  64.528  1.00  0.00    -0.131 A  
HETATM   28  C   UNL     1      -7.761   3.726  64.778  1.00  0.00    -0.081 A  
HETATM   29  C   UNL     1      -6.846   2.701  64.218  1.00  0.00    -0.040 C  
HETATM   30  C   UNL     1      -7.208   4.771  65.539  1.00  0.00    -0.071 A  
HETATM   31  O   UNL     1      -7.395   1.471  64.114  1.00  0.00    -0.049 OA 
HETATM   32  O   UNL     1      -5.691   2.944  63.917  1.00  0.00    -0.009 OA 
ENDBRANCH  22  24
ENDBRANCH  17  20
ENDBRANCH  13  14
ENDBRANCH   3  13
BRANCH   7  33
HETATM   33  C   UNL     1      -8.819  15.898  65.069  1.00  0.00     2.759 C  
HETATM   34  O   UNL     1      -8.984  17.231  65.552  1.00  0.00    -0.288 OA 
HETATM   35  H   UNL     1      -9.172  17.774  64.795  1.00  0.00     0.000 HD 
HETATM   36  C   UNL     1     -10.096  15.455  64.372  1.00  0.00     1.355 C  
ENDBRANCH   7  33
TORSDOF 5
ENDMDL
MODEL      290
REMARK 921   NORMALIZED FREE ENERGY PREDICTED BY IDOCK:   13.75 KCAL/MOL
REMARK 922        TOTAL FREE ENERGY PREDICTED BY IDOCK:   16.08 KCAL/MOL
REMARK 923 INTER-LIGAND FREE ENERGY PREDICTED BY IDOCK:   14.00 KCAL/MOL
REMARK 924 INTRA-LIGAND FREE ENERGY PREDICTED BY IDOCK:    2.09 KCAL/MOL
REMARK 927      BINDING AFFINITY PREDICTED BY RF-SCORE:    0.00 PKD
ROOT
HETATM    1  C   UNL     1      -7.811  18.496  69.458  1.00  0.00     0.414 C  
HETATM    2  C   UNL     1      -8.536  19.670  68.794  1.00  0.00    -0.274 C  
HETATM    3  C   UNL     1      -9.841  19.042  68.349  1.00  0.00    -0.392 C  
HETATM    4  C   UNL     1      -7.677  20.295  67.703  1.00  0.00    -0.328 C  
HETATM    5  O   UNL     1      -8.057  15.337  68.533  1.00  0.00    -0.132 OA 
HETATM    6  C   UNL     1      -9.904  17.749  68.726  1.00  0.00    -0.343 C  
HETATM    7  C   UNL     1      -6.793  17.554  68.741  1.00  0.00    -0.233 C  
HETATM    8  N   UNL     1      -8.770  17.355  69.426  1.00  0.00     0.253 N  
HETATM    9  C   UNL     1     -11.056  16.813  68.545  1.00  0.00    -0.260 C  
HETATM   10  O   UNL     1     -12.210  17.170  68.368  1.00  0.00     1.133 OA 
HETATM   11  O   UNL     1     -10.732  15.501  68.580  1.00  0.00    -0.236 OA 
HETATM   12  C   UNL     1      -7.868  16.476  68.898  1.00  0.00    -0.240 C  
ENDROOT
BRANCH   3  13
HETATM   13  S   UNL     1     -11.056  20.051  67.659  1.00  0.00     0.562 SA 
BRANCH  13  14
HETATM   14  C   UNL     1     -10.566  20.251  65.902  1.00  0.00    -0.139 C  
HETATM   15  C   UNL     1     -11.726  20.289  64.913  1.00  0.00     2.568 C  
HETATM   16  N   UNL     1     -12.097  18.892  64.764  1.00  0.00     4.742 NA 
HETATM   17  C   UNL     1     -10.849  18.096  64.762  1.00  0.00     1.908 C  
HETATM   18  C   UNL     1      -9.817  18.983  65.470  1.00  0.00     0.573 C  
HETATM   19  H   UNL     1     -12.679  18.721  63.944  1.00  0.00     0.000 HD 
BRANCH  17  20
HETATM   20  C   UNL     1     -11.152  16.692  65.360  1.00  0.00     0.015 C  
HETATM   21  O   UNL     1     -12.316  16.363  65.597  1.00  0.00     1.944 OA 
HETATM   22  N   UNL     1     -10.059  15.844  65.480  1.00  0.00    -0.344 N  
HETATM   23  H   UNL     1      -9.161  16.207  65.161  1.00  0.00     0.000 HD 
BRANCH  22  24
HETATM   24  C   UNL     1     -10.061  14.526  66.002  1.00  0.00    -0.318 A  
HETATM   25  C   UNL     1      -9.124  14.052  66.926  1.00  0.00    -0.262 A  
HETATM   26  C   UNL     1      -9.187  12.742  67.414  1.00  0.00    -0.193 A  
HETATM   27  C   UNL     1     -10.183  11.877  66.975  1.00  0.00    -0.233 A  
HETATM   28  C   UNL     1     -11.109  12.323  66.026  1.00  0.00    -0.347 A  
HETATM   29  C   UNL     1     -12.187  11.439  65.521  1.00  0.00     1.476 C  
HETATM   30  C   UNL     1     -11.058  13.649  65.560  1.00  0.00    -0.301 A  
HETATM   31  O   UNL     1     -11.837  10.137  65.435  1.00  0.00     2.554 OA 
HETATM   32  O   UNL     1     -13.278  11.861  65.178  1.00  0.00     0.687 OA 
ENDBRANCH  22  24
ENDBRANCH  17  20
ENDBRANCH  13  14
ENDBRANCH   3  13
BRANCH   7  33
HETATM   33  C   UNL     1      -5.472  17.387  69.465  1.00  0.00    -0.193 C  
HETATM   34  O   UNL     1      -5.134  16.002  69.388  1.00  0.00    -0.105 OA 
HETATM   35  H   UNL     1      -4.306  15.897  69.842  1.00  0.00     0.000 HD 
HETATM   36  C   UNL     1      -5.585  17.795  70.926  1.00  0.00     0.039 C  
ENDBRANCH   7  33
TORSDOF 5
ENDMDL
MODEL      291
REMARK 921   NORMALIZED FREE ENERGY PREDICTED BY IDOCK:   18.67 KCAL/MOL
REMARK 922        TOTAL FREE ENERGY PREDICTED BY IDOCK:   22.45 KCAL/MOL
REMARK 923 INTER-LIGAND FREE ENERGY PREDICTED BY IDOCK:   22.95 KCAL/MOL
REMARK 924 INTRA-LIGAND FREE ENERGY PREDICTED BY IDOCK:   -0.51 KCAL/MOL
REMARK 927      BINDING AFFINITY PREDICTED BY RF-SCORE:    0.00 PKD
ROOT
HETATM    1  C   UNL     1     -11.051   5.436  63.797  1.00  0.00     3.662 C  
HETATM    2  C   UNL     1     -11.351   6.561  64.792  1.00  0.00     8.163 C  
HETATM    3  C   UNL     1     -10.171   7.493  64.599  1.00  0.00     5.310 C  
HETATM    4  C   UNL     1     -11.557   6.010  66.196  1.00  0.00     1.612 C  
HETATM    5  O   UNL     1      -8.036   4.366  62.982  1.00  0.00    -0.077 OA 
HETATM    6  C   UNL     1      -9.351   7.035  63.632  1.00  0.00     2.539 C  
HETATM    7  C   UNL     1     -10.302   4.111  64.147  1.00  0.00    -0.111 C  
HETATM    8  N   UNL     1      -9.817   5.851  63.073  1.00  0.00     1.951 N  
HETATM    9  C   UNL     1      -8.127   7.706  63.095  1.00  0.00    -0.061 C  
HETATM   10  O   UNL     1      -7.903   8.903  63.189  1.00  0.00    -0.124 OA 
HETATM   11  O   UNL     1      -7.248   6.880  62.487  1.00  0.00    -0.054 OA 
HETATM   12  C   UNL     1      -9.175   4.661  63.270  1.00  0.00    -0.040 C  
ENDROOT
BRANCH   3  13
HETATM   13  S   UNL     1     -10.156   9.000  65.436  1.00  0.00     1.049 SA 
BRANCH  13  14
HETATM   14  C   UNL     1      -8.791   8.855  66.652  1.00  0.00    -0.129 C  
HETATM   15  C   UNL     1      -9.227   8.490  68.067  1.00  0.00    -0.136 C  
HETATM   16  N   UNL     1      -9.722   9.744  68.608  1.00  0.00    -0.152 NA 
HETATM   17  C   UNL     1      -8.835  10.824  68.116  1.00  0.00    -0.133 C  
HETATM   18  C   UNL     1      -8.181  10.249  66.853  1.00  0.00    -0.123 C  
HETATM   19  H   UNL     1      -9.807   9.732  69.624  1.00  0.00     0.000 HD 
BRANCH  17  20
HETATM   20  C   UNL     1      -9.666  12.133  67.990  1.00  0.00    -0.203 C  
HETATM   21  O   UNL     1      -9.747  12.706  66.902  1.00  0.00    -0.222 OA 
HETATM   22  N   UNL     1     -10.368  12.509  69.127  1.00  0.00    -0.422 N  
HETATM   23  H   UNL     1     -10.287  11.895  69.938  1.00  0.00     0.000 HD 
BRANCH  22  24
HETATM   24  C   UNL     1     -11.185  13.657  69.280  1.00  0.00    -0.233 A  
HETATM   25  C   UNL     1     -12.399  13.663  69.975  1.00  0.00    -0.342 A  
HETATM   26  C   UNL     1     -13.155  14.833  70.102  1.00  0.00     0.039 A  
HETATM   27  C   UNL     1     -12.715  16.019  69.524  1.00  0.00     0.732 A  
HETATM   28  C   UNL     1     -11.519  16.025  68.797  1.00  0.00    -0.375 A  
HETATM   29  C   UNL     1     -11.009  17.261  68.157  1.00  0.00    -0.193 C  
HETATM   30  C   UNL     1     -10.749  14.852  68.696  1.00  0.00    -0.250 A  
HETATM   31  O   UNL     1     -11.977  18.087  67.704  1.00  0.00     1.557 OA 
HETATM   32  O   UNL     1      -9.819  17.488  68.018  1.00  0.00    -0.275 OA 
ENDBRANCH  22  24
ENDBRANCH  17  20
ENDBRANCH  13  14
ENDBRANCH   3  13
BRANCH   7  33
HETATM   33  C   UNL     1     -11.021   2.848  63.716  1.00  0.00     0.017 C  
HETATM   34  O   UNL     1     -10.696   1.843  64.675  1.00  0.00     0.111 OA 
HETATM   35  H   UNL     1     -11.147   1.051  64.404  1.00  0.00     0.000 HD 
HETATM   36  C   UNL     1     -10.566   2.395  62.338  1.00  0.00    -0.131 C  
ENDBRANCH   7  33
TORSDOF 5
ENDMDL
MODEL      292
REMARK 921   NORMALIZED FREE ENERGY PREDICTED BY IDOCK:   21.95 KCAL/MOL
REMARK 922        TOTAL FREE ENERGY PREDICTED BY IDOCK:   26.68 KCAL/MOL
REMARK 923 INTER-LIGAND FREE ENERGY PREDICTED BY IDOCK:   17.97 KCAL/MOL
REMARK 924 INTRA-LIGAND FREE ENERGY PREDICTED BY IDOCK:    8.71 KCAL/MOL
REMARK 927      BINDING AFFINITY PREDICTED BY RF-SCORE:    0.00 PKD
ROOT
HETATM    1  C   UNL     1      -8.195   8.428  65.917  1.00  0.00    -0.123 C  
HETATM    2  C   UNL     1      -9.201   7.355  66.344  1.00  0.00    -0.203 C  
HETATM    3  C   UNL     1     -10.525   8.084  66.238  1.00  0.00     0.539 C  
HETATM    4  C   UNL     1      -8.847   6.788  67.712  1.00  0.00    -0.118 C  
HETATM    5  O   UNL     1      -8.508  11.665  66.481  1.00  0.00    -0.172 OA 
HETATM    6  C   UNL     1     -10.345   9.340  65.781  1.00  0.00     0.355 C  
HETATM    7  C   UNL     1      -7.434   9.378  66.895  1.00  0.00    -0.091 C  
HETATM    8  N   UNL     1      -9.007   9.613  65.521  1.00  0.00    -0.170 N  
HETATM    9  C   UNL     1     -11.407  10.345  65.466  1.00  0.00     1.227 C  
HETATM   10  O   UNL     1     -12.571  10.064  65.231  1.00  0.00     6.958 OA 
HETATM   11  O   UNL     1     -10.989  11.631  65.467  1.00  0.00    -0.297 OA 
HETATM   12  C   UNL     1      -8.290  10.490  66.285  1.00  0.00    -0.152 C  
ENDROOT
BRANCH   3  13
HETATM   13  S   UNL     1     -11.983   7.203  66.499  1.00  0.00     5.415 SA 
BRANCH  13  14
HETATM   14  C   UNL     1     -11.579   5.997  67.820  1.00  0.00     1.158 C  
HETATM   15  C   UNL     1     -12.400   6.144  69.096  1.00  0.00     3.197 C  
HETATM   16  N   UNL     1     -11.778   7.265  69.778  1.00  0.00    -0.507 NA 
HETATM   17  C   UNL     1     -10.315   7.155  69.576  1.00  0.00    -0.215 C  
HETATM   18  C   UNL     1     -10.157   6.293  68.317  1.00  0.00    -0.172 C  
HETATM   19  H   UNL     1     -12.039   7.326  70.763  1.00  0.00     0.000 HD 
BRANCH  17  20
HETATM   20  C   UNL     1      -9.703   8.585  69.576  1.00  0.00    -0.176 C  
HETATM   21  O   UNL     1      -8.491   8.735  69.748  1.00  0.00    -0.121 OA 
HETATM   22  N   UNL     1     -10.581   9.612  69.260  1.00  0.00    -0.213 N  
HETATM   23  H   UNL     1     -11.541   9.344  69.048  1.00  0.00     0.000 HD 
BRANCH  22  24
HETATM   24  C   UNL     1     -10.282  10.997  69.202  1.00  0.00    -0.166 A  
HETATM   25  C   UNL     1      -9.144  11.573  69.777  1.00  0.00     1.486 A  
HETATM   26  C   UNL     1      -8.897  12.946  69.673  1.00  0.00     2.007 A  
HETATM   27  C   UNL     1      -9.793  13.772  69.003  1.00  0.00     0.091 A  
HETATM   28  C   UNL     1     -10.953  13.219  68.450  1.00  0.00    -0.289 A  
HETATM   29  C   UNL     1     -11.943  14.056  67.729  1.00  0.00    -0.357 C  
HETATM   30  C   UNL     1     -11.182  11.833  68.532  1.00  0.00    -0.306 A  
HETATM   31  O   UNL     1     -12.063  15.309  68.218  1.00  0.00    -0.212 OA 
HETATM   32  O   UNL     1     -12.613  13.632  66.804  1.00  0.00    -0.269 OA 
ENDBRANCH  22  24
ENDBRANCH  17  20
ENDBRANCH  13  14
ENDBRANCH   3  13
BRANCH   7  33
HETATM   33  C   UNL     1      -5.931   9.414  66.696  1.00  0.00    -0.060 C  
HETATM   34  O   UNL     1      -5.559   8.149  66.149  1.00  0.00    -0.035 OA 
HETATM   35  H   UNL     1      -4.618   8.171  66.025  1.00  0.00     0.000 HD 
HETATM   36  C   UNL     1      -5.203   9.625  68.014  1.00  0.00    -0.040 C  
ENDBRANCH   7  33
TORSDOF 5
ENDMDL
MODEL      293
REMARK 921   NORMALIZED FREE ENERGY PREDICTED BY IDOCK:   27.17 KCAL/MOL
REMARK 922        TOTAL FREE ENERGY PREDICTED BY IDOCK:   33.42 KCAL/MOL
REMARK 923 INTER-LIGAND FREE ENERGY PREDICTED BY IDOCK:   -2.16 KCAL/MOL
REMARK 924 INTRA-LIGAND FREE ENERGY PREDICTED BY IDOCK:   35.59 KCAL/MOL
REMARK 927      BINDING AFFINITY PREDICTED BY RF-SCORE:    0.00 PKD
ROOT
HETATM    1  C   UNL     1      -8.225   9.225  69.476  1.00  0.00    -0.121 C  
HETATM    2  C   UNL     1      -7.814   8.681  68.105  1.00  0.00    -0.103 C  
HETATM    3  C   UNL     1      -8.690   7.453  67.962  1.00  0.00    -0.124 C  
HETATM    4  C   UNL     1      -6.310   8.453  68.036  1.00  0.00    -0.056 C  
HETATM    5  O   UNL     1      -9.168   7.386  72.050  1.00  0.00    -0.132 OA 
HETATM    6  C   UNL     1      -9.508   7.321  69.025  1.00  0.00    -0.147 C  
HETATM    7  C   UNL     1      -7.504   8.895  70.821  1.00  0.00    -0.101 C  
HETATM    8  N   UNL     1      -9.335   8.348  69.946  1.00  0.00    -0.154 N  
HETATM    9  C   UNL     1     -10.571   6.287  69.222  1.00  0.00    -0.273 C  
HETATM   10  O   UNL     1     -11.090   5.655  68.316  1.00  0.00    -0.093 OA 
HETATM   11  O   UNL     1     -10.929   6.080  70.508  1.00  0.00    -0.289 OA 
HETATM   12  C   UNL     1      -8.779   8.127  71.174  1.00  0.00    -0.138 C  
ENDROOT
BRANCH   3  13
HETATM   13  S   UNL     1      -8.663   6.581  66.475  1.00  0.00    -0.139 SA 
BRANCH  13  14
HETATM   14  C   UNL     1      -6.891   6.219  66.169  1.00  0.00    -0.057 C  
HETATM   15  C   UNL     1      -6.048   6.030  67.424  1.00  0.00    -0.018 C  
HETATM   16  N   UNL     1      -5.804   7.388  67.881  1.00  0.00    -0.030 NA 
HETATM   17  C   UNL     1      -5.582   8.230  66.684  1.00  0.00    -0.032 C  
HETATM   18  C   UNL     1      -6.253   7.464  65.537  1.00  0.00    -0.038 C  
HETATM   19  H   UNL     1      -5.041   7.449  68.557  1.00  0.00     0.000 HD 
BRANCH  17  20
HETATM   20  C   UNL     1      -6.067   9.675  66.993  1.00  0.00    -0.063 C  
HETATM   21  O   UNL     1      -5.285  10.621  66.889  1.00  0.00    -0.040 OA 
HETATM   22  N   UNL     1      -7.422   9.806  67.265  1.00  0.00    -0.088 N  
HETATM   23  H   UNL     1      -7.980   8.953  67.231  1.00  0.00     0.000 HD 
BRANCH  22  24
HETATM   24  C   UNL     1      -8.112  11.002  67.587  1.00  0.00    -0.116 A  
HETATM   25  C   UNL     1      -9.437  11.041  68.035  1.00  0.00    -0.169 A  
HETATM   26  C   UNL     1     -10.058  12.255  68.350  1.00  0.00    -0.215 A  
HETATM   27  C   UNL     1      -9.369  13.454  68.210  1.00  0.00    -0.205 A  
HETATM   28  C   UNL     1      -8.053  13.437  67.733  1.00  0.00    -0.173 A  
HETATM   29  C   UNL     1      -7.276  14.688  67.561  1.00  0.00    -0.192 C  
HETATM   30  C   UNL     1      -7.424  12.212  67.444  1.00  0.00    -0.156 A  
HETATM   31  O   UNL     1      -8.020  15.753  67.195  1.00  0.00    -0.175 OA 
HETATM   32  O   UNL     1      -6.066  14.735  67.700  1.00  0.00    -0.252 OA 
ENDBRANCH  22  24
ENDBRANCH  17  20
ENDBRANCH  13  14
ENDBRANCH   3  13
BRANCH   7  33
HETATM   33  C   UNL     1      -7.123  10.108  71.646  1.00  0.00     1.703 C  
HETATM   34  O   UNL     1      -6.653  11.096  70.730  1.00  0.00    -0.468 OA 
HETATM   35  H   UNL     1      -6.414  11.857  71.247  1.00  0.00     0.000 HD 
HETATM   36  C   UNL     1      -6.020   9.779  72.640  1.00  0.00     0.496 C  
ENDBRANCH   7  33
TORSDOF 5
ENDMDL
MODEL      294
REMARK 921   NORMALIZED FREE ENERGY PREDICTED BY IDOCK:   27.42 KCAL/MOL
REMARK 922        TOTAL FREE ENERGY PREDICTED BY IDOCK:   33.75 KCAL/MOL
REMARK 923 INTER-LIGAND FREE ENERGY PREDICTED BY IDOCK:   33.96 KCAL/MOL
REMARK 924 INTRA-LIGAND FREE ENERGY PREDICTED BY IDOCK:   -0.21 KCAL/MOL
REMARK 927      BINDING AFFINITY PREDICTED BY RF-SCORE:    0.00 PKD
ROOT
HETATM    1  C   UNL     1     -11.449   5.629  63.763  1.00  0.00     5.847 C  
HETATM    2  C   UNL     1     -11.361   6.787  64.760  1.00  0.00     9.545 C  
HETATM    3  C   UNL     1      -9.929   7.255  64.595  1.00  0.00     3.968 C  
HETATM    4  C   UNL     1     -11.771   6.338  66.157  1.00  0.00     2.315 C  
HETATM    5  O   UNL     1      -8.973   3.586  62.991  1.00  0.00    -0.093 OA 
HETATM    6  C   UNL     1      -9.299   6.543  63.639  1.00  0.00     2.114 C  
HETATM    7  C   UNL     1     -11.210   4.126  64.115  1.00  0.00     0.342 C  
HETATM    8  N   UNL     1     -10.134   5.593  63.063  1.00  0.00     1.946 N  
HETATM    9  C   UNL     1      -7.909   6.752  63.128  1.00  0.00    -0.105 C  
HETATM   10  O   UNL     1      -7.288   7.798  63.235  1.00  0.00    -0.088 OA 
HETATM   11  O   UNL     1      -7.358   5.674  62.528  1.00  0.00    -0.044 OA 
HETATM   12  C   UNL     1      -9.946   4.255  63.261  1.00  0.00    -0.012 C  
ENDROOT
BRANCH   3  13
HETATM   13  S   UNL     1      -9.412   8.663  65.444  1.00  0.00     0.309 SA 
BRANCH  13  14
HETATM   14  C   UNL     1      -7.955   8.122  66.418  1.00  0.00    -0.104 C  
HETATM   15  C   UNL     1      -8.275   7.589  67.810  1.00  0.00    -0.119 C  
HETATM   16  N   UNL     1      -8.491   8.791  68.597  1.00  0.00    -0.128 NA 
HETATM   17  C   UNL     1      -7.505   9.801  68.150  1.00  0.00    -0.081 C  
HETATM   18  C   UNL     1      -7.107   9.362  66.736  1.00  0.00    -0.082 C  
HETATM   19  H   UNL     1      -8.457   8.620  69.602  1.00  0.00     0.000 HD 
BRANCH  17  20
HETATM   20  C   UNL     1      -8.120  11.217  68.340  1.00  0.00    -0.143 C  
HETATM   21  O   UNL     1      -9.075  11.376  69.103  1.00  0.00     0.006 OA 
HETATM   22  N   UNL     1      -7.453  12.251  67.696  1.00  0.00    -0.122 N  
HETATM   23  H   UNL     1      -6.620  11.997  67.167  1.00  0.00     0.000 HD 
BRANCH  22  24
HETATM   24  C   UNL     1      -7.811  13.623  67.698  1.00  0.00    -0.174 A  
HETATM   25  C   UNL     1      -6.886  14.669  67.605  1.00  0.00    -0.204 A  
HETATM   26  C   UNL     1      -7.303  16.004  67.598  1.00  0.00    -0.173 A  
HETATM   27  C   UNL     1      -8.654  16.319  67.697  1.00  0.00    -0.181 A  
HETATM   28  C   UNL     1      -9.590  15.287  67.823  1.00  0.00    -0.206 A  
HETATM   29  C   UNL     1     -11.042  15.568  67.936  1.00  0.00    -0.321 C  
HETATM   30  C   UNL     1      -9.169  13.945  67.801  1.00  0.00    -0.197 A  
HETATM   31  O   UNL     1     -11.332  16.709  68.597  1.00  0.00    -0.304 OA 
HETATM   32  O   UNL     1     -11.895  14.812  67.504  1.00  0.00    -0.375 OA 
ENDBRANCH  22  24
ENDBRANCH  17  20
ENDBRANCH  13  14
ENDBRANCH   3  13
BRANCH   7  33
HETATM   33  C   UNL     1     -12.312   3.189  63.662  1.00  0.00     5.100 C  
HETATM   34  O   UNL     1     -12.441   2.189  64.672  1.00  0.00     4.822 OA 
HETATM   35  H   UNL     1     -13.132   1.602  64.387  1.00  0.00     0.000 HD 
HETATM   36  C   UNL     1     -11.965   2.525  62.338  1.00  0.00     0.907 C  
ENDBRANCH   7  33
TORSDOF 5
ENDMDL
MODEL      295
REMARK 921   NORMALIZED FREE ENERGY PREDICTED BY IDOCK:   32.44 KCAL/MOL
REMARK 922        TOTAL FREE ENERGY PREDICTED BY IDOCK:   40.23 KCAL/MOL
REMARK 923 INTER-LIGAND FREE ENERGY PREDICTED BY IDOCK:   40.42 KCAL/MOL
REMARK 924 INTRA-LIGAND FREE ENERGY PREDICTED BY IDOCK:   -0.18 KCAL/MOL
REMARK 927      BINDING AFFINITY PREDICTED BY RF-SCORE:    0.00 PKD
ROOT
HETATM    1  C   UNL     1     -11.454   5.630  63.763  1.00  0.00     5.847 C  
HETATM    2  C   UNL     1     -11.346   6.792  64.755  1.00  0.00     9.545 C  
HETATM    3  C   UNL     1      -9.902   7.226  64.597  1.00  0.00     3.417 C  
HETATM    4  C   UNL     1     -11.775   6.361  66.151  1.00  0.00     2.532 C  
HETATM    5  O   UNL     1      -9.020   3.527  63.020  1.00  0.00    -0.093 OA 
HETATM    6  C   UNL     1      -9.282   6.494  63.649  1.00  0.00     1.727 C  
HETATM    7  C   UNL     1     -11.251   4.125  64.126  1.00  0.00     0.342 C  
HETATM    8  N   UNL     1     -10.135   5.561  63.072  1.00  0.00     1.647 N  
HETATM    9  C   UNL     1      -7.884   6.668  63.147  1.00  0.00    -0.103 C  
HETATM   10  O   UNL     1      -7.240   7.700  63.252  1.00  0.00    -0.074 OA 
HETATM   11  O   UNL     1      -7.354   5.574  62.557  1.00  0.00    -0.043 OA 
HETATM   12  C   UNL     1      -9.980   4.219  63.280  1.00  0.00    -0.012 C  
ENDROOT
BRANCH   3  13
HETATM   13  S   UNL     1      -9.358   8.627  65.441  1.00  0.00     0.179 SA 
BRANCH  13  14
HETATM   14  C   UNL     1     -10.851   9.674  65.635  1.00  0.00     1.175 C  
HETATM   15  C   UNL     1     -11.111  10.641  64.486  1.00  0.00     0.690 C  
HETATM   16  N   UNL     1     -10.181  11.729  64.735  1.00  0.00    -0.270 NA 
HETATM   17  C   UNL     1     -10.138  11.955  66.197  1.00  0.00    -0.228 C  
HETATM   18  C   UNL     1     -10.611  10.632  66.812  1.00  0.00    -0.297 C  
HETATM   19  H   UNL     1     -10.409  12.574  64.209  1.00  0.00     0.000 HD 
BRANCH  17  20
HETATM   20  C   UNL     1      -8.726  12.485  66.579  1.00  0.00    -0.030 C  
HETATM   21  O   UNL     1      -7.722  11.847  66.256  1.00  0.00     0.105 OA 
HETATM   22  N   UNL     1      -8.699  13.737  67.178  1.00  0.00    -0.228 N  
HETATM   23  H   UNL     1      -9.597  14.201  67.307  1.00  0.00     0.000 HD 
BRANCH  22  24
HETATM   24  C   UNL     1      -7.552  14.437  67.630  1.00  0.00    -0.179 A  
HETATM   25  C   UNL     1      -6.238  14.044  67.349  1.00  0.00     0.172 A  
HETATM   26  C   UNL     1      -5.146  14.785  67.813  1.00  0.00    -0.005 A  
HETATM   27  C   UNL     1      -5.349  15.928  68.579  1.00  0.00    -0.102 A  
HETATM   28  C   UNL     1      -6.654  16.318  68.897  1.00  0.00    -0.150 A  
HETATM   29  C   UNL     1      -6.924  17.526  69.715  1.00  0.00     0.318 C  
HETATM   30  C   UNL     1      -7.749  15.585  68.405  1.00  0.00    -0.124 A  
HETATM   31  O   UNL     1      -5.989  17.772  70.658  1.00  0.00     0.009 OA 
HETATM   32  O   UNL     1      -7.922  18.209  69.570  1.00  0.00     0.247 OA 
ENDBRANCH  22  24
ENDBRANCH  17  20
ENDBRANCH  13  14
ENDBRANCH   3  13
BRANCH   7  33
HETATM   33  C   UNL     1     -12.372   3.211  63.670  1.00  0.00     5.100 C  
HETATM   34  O   UNL     1     -13.022   2.740  64.850  1.00  0.00     8.656 OA 
HETATM   35  H   UNL     1     -13.725   2.167  64.565  1.00  0.00     0.000 HD 
HETATM   36  C   UNL     1     -11.835   2.025  62.885  1.00  0.00     0.650 C  
ENDBRANCH   7  33
TORSDOF 5
ENDMDL
MODEL      296
REMARK 921   NORMALIZED FREE ENERGY PREDICTED BY IDOCK:   32.52 KCAL/MOL
REMARK 922        TOTAL FREE ENERGY PREDICTED BY IDOCK:   40.34 KCAL/MOL
REMARK 923 INTER-LIGAND FREE ENERGY PREDICTED BY IDOCK:   40.51 KCAL/MOL
REMARK 924 INTRA-LIGAND FREE ENERGY PREDICTED BY IDOCK:   -0.17 KCAL/MOL
REMARK 927      BINDING AFFINITY PREDICTED BY RF-SCORE:    0.00 PKD
ROOT
HETATM    1  C   UNL     1     -11.449   5.629  63.763  1.00  0.00     5.847 C  
HETATM    2  C   UNL     1     -11.361   6.787  64.760  1.00  0.00     9.545 C  
HETATM    3  C   UNL     1      -9.929   7.255  64.595  1.00  0.00     3.968 C  
HETATM    4  C   UNL     1     -11.771   6.338  66.157  1.00  0.00     2.315 C  
HETATM    5  O   UNL     1      -8.973   3.586  62.991  1.00  0.00    -0.093 OA 
HETATM    6  C   UNL     1      -9.299   6.543  63.639  1.00  0.00     2.114 C  
HETATM    7  C   UNL     1     -11.210   4.126  64.115  1.00  0.00     0.342 C  
HETATM    8  N   UNL     1     -10.134   5.593  63.063  1.00  0.00     1.946 N  
HETATM    9  C   UNL     1      -7.909   6.752  63.128  1.00  0.00    -0.105 C  
HETATM   10  O   UNL     1      -7.288   7.798  63.235  1.00  0.00    -0.088 OA 
HETATM   11  O   UNL     1      -7.358   5.674  62.528  1.00  0.00    -0.044 OA 
HETATM   12  C   UNL     1      -9.946   4.255  63.261  1.00  0.00    -0.012 C  
ENDROOT
BRANCH   3  13
HETATM   13  S   UNL     1      -9.412   8.663  65.444  1.00  0.00     0.309 SA 
BRANCH  13  14
HETATM   14  C   UNL     1      -7.955   8.122  66.418  1.00  0.00    -0.104 C  
HETATM   15  C   UNL     1      -8.275   7.589  67.810  1.00  0.00    -0.119 C  
HETATM   16  N   UNL     1      -8.491   8.791  68.597  1.00  0.00    -0.128 NA 
HETATM   17  C   UNL     1      -7.505   9.801  68.150  1.00  0.00    -0.081 C  
HETATM   18  C   UNL     1      -7.107   9.362  66.736  1.00  0.00    -0.082 C  
HETATM   19  H   UNL     1      -8.457   8.620  69.602  1.00  0.00     0.000 HD 
BRANCH  17  20
HETATM   20  C   UNL     1      -8.120  11.217  68.340  1.00  0.00    -0.143 C  
HETATM   21  O   UNL     1      -9.210  11.487  67.832  1.00  0.00    -0.157 OA 
HETATM   22  N   UNL     1      -7.422  12.065  69.189  1.00  0.00    -0.325 N  
HETATM   23  H   UNL     1      -6.579  11.687  69.620  1.00  0.00     0.000 HD 
BRANCH  22  24
HETATM   24  C   UNL     1      -7.759  13.402  69.520  1.00  0.00     0.702 A  
HETATM   25  C   UNL     1      -8.979  14.002  69.189  1.00  0.00     0.297 A  
HETATM   26  C   UNL     1      -9.258  15.323  69.556  1.00  0.00    -0.196 A  
HETATM   27  C   UNL     1      -8.315  16.072  70.251  1.00  0.00     1.475 A  
HETATM   28  C   UNL     1      -7.078  15.499  70.563  1.00  0.00     0.702 A  
HETATM   29  C   UNL     1      -6.037  16.257  71.299  1.00  0.00     1.234 C  
HETATM   30  C   UNL     1      -6.813  14.162  70.216  1.00  0.00     0.178 A  
HETATM   31  O   UNL     1      -6.020  17.579  71.024  1.00  0.00     0.407 OA 
HETATM   32  O   UNL     1      -5.243  15.722  72.053  1.00  0.00    -0.024 OA 
ENDBRANCH  22  24
ENDBRANCH  17  20
ENDBRANCH  13  14
ENDBRANCH   3  13
BRANCH   7  33
HETATM   33  C   UNL     1     -12.312   3.189  63.662  1.00  0.00     5.100 C  
HETATM   34  O   UNL     1     -12.441   2.189  64.672  1.00  0.00     4.822 OA 
HETATM   35  H   UNL     1     -13.132   1.602  64.387  1.00  0.00     0.000 HD 
HETATM   36  C   UNL     1     -11.965   2.525  62.338  1.00  0.00     0.907 C  
ENDBRANCH   7  33
TORSDOF 5
ENDMDL
MODEL      297
REMARK 921   NORMALIZED FREE ENERGY PREDICTED BY IDOCK:   33.89 KCAL/MOL
REMARK 922        TOTAL FREE ENERGY PREDICTED BY IDOCK:   42.11 KCAL/MOL
REMARK 923 INTER-LIGAND FREE ENERGY PREDICTED BY IDOCK:   27.72 KCAL/MOL
REMARK 924 INTRA-LIGAND FREE ENERGY PREDICTED BY IDOCK:   14.39 KCAL/MOL
REMARK 927      BINDING AFFINITY PREDICTED BY RF-SCORE:    0.00 PKD
ROOT
HETATM    1  C   UNL     1     -10.482  14.267  66.799  1.00  0.00    -0.273 C  
HETATM    2  C   UNL     1      -9.504  15.245  66.144  1.00  0.00    -0.361 C  
HETATM    3  C   UNL     1      -8.470  14.319  65.536  1.00  0.00     2.730 C  
HETATM    4  C   UNL     1      -8.993  16.265  67.153  1.00  0.00    -0.213 C  
HETATM    5  O   UNL     1      -9.661  11.367  68.147  1.00  0.00    -0.179 OA 
HETATM    6  C   UNL     1      -8.800  13.029  65.746  1.00  0.00     0.788 C  
HETATM    7  C   UNL     1     -10.422  13.808  68.291  1.00  0.00    -0.251 C  
HETATM    8  N   UNL     1      -9.996  12.904  66.442  1.00  0.00    -0.261 N  
HETATM    9  C   UNL     1      -8.080  11.821  65.236  1.00  0.00     1.112 C  
HETATM   10  O   UNL     1      -7.322  11.825  64.279  1.00  0.00     2.304 OA 
HETATM   11  O   UNL     1      -8.318  10.685  65.930  1.00  0.00    -0.153 OA 
HETATM   12  C   UNL     1     -10.036  12.439  67.726  1.00  0.00    -0.205 C  
ENDROOT
BRANCH   3  13
HETATM   13  S   UNL     1      -7.221  14.995  64.559  1.00  0.00    18.416 SA 
BRANCH  13  14
HETATM   14  C   UNL     1      -7.117  16.753  65.069  1.00  0.00     4.632 C  
HETATM   15  C   UNL     1      -5.703  17.319  65.140  1.00  0.00     1.521 C  
HETATM   16  N   UNL     1      -5.193  16.810  66.401  1.00  0.00    -0.338 NA 
HETATM   17  C   UNL     1      -6.301  16.851  67.381  1.00  0.00    -0.156 C  
HETATM   18  C   UNL     1      -7.577  16.854  66.530  1.00  0.00    -0.328 C  
HETATM   19  H   UNL     1      -4.361  17.306  66.722  1.00  0.00     0.000 HD 
BRANCH  17  20
HETATM   20  C   UNL     1      -6.101  15.701  68.409  1.00  0.00    -0.104 C  
HETATM   21  O   UNL     1      -5.731  15.959  69.556  1.00  0.00    -0.117 OA 
HETATM   22  N   UNL     1      -6.473  14.436  67.973  1.00  0.00    -0.136 N  
HETATM   23  H   UNL     1      -6.852  14.371  67.029  1.00  0.00     0.000 HD 
BRANCH  22  24
HETATM   24  C   UNL     1      -6.382  13.225  68.705  1.00  0.00    -0.087 A  
HETATM   25  C   UNL     1      -5.185  12.716  69.222  1.00  0.00    -0.069 A  
HETATM   26  C   UNL     1      -5.162  11.520  69.948  1.00  0.00    -0.064 A  
HETATM   27  C   UNL     1      -6.336  10.804  70.159  1.00  0.00    -0.147 A  
HETATM   28  C   UNL     1      -7.536  11.281  69.622  1.00  0.00     0.167 A  
HETATM   29  C   UNL     1      -8.814  10.553  69.813  1.00  0.00     0.179 C  
HETATM   30  C   UNL     1      -7.559  12.498  68.916  1.00  0.00     0.047 A  
HETATM   31  O   UNL     1      -8.681   9.210  69.857  1.00  0.00    -0.137 OA 
HETATM   32  O   UNL     1      -9.890  11.121  69.885  1.00  0.00     0.427 OA 
ENDBRANCH  22  24
ENDBRANCH  17  20
ENDBRANCH  13  14
ENDBRANCH   3  13
BRANCH   7  33
HETATM   33  C   UNL     1     -11.728  13.950  69.047  1.00  0.00    -0.338 C  
HETATM   34  O   UNL     1     -12.560  14.812  68.271  1.00  0.00    -0.429 OA 
HETATM   35  H   UNL     1     -13.379  14.901  68.745  1.00  0.00     0.000 HD 
HETATM   36  C   UNL     1     -11.510  14.565  70.420  1.00  0.00    -0.259 C  
ENDBRANCH   7  33
TORSDOF 5
ENDMDL
MODEL      298
REMARK 921   NORMALIZED FREE ENERGY PREDICTED BY IDOCK:   34.04 KCAL/MOL
REMARK 922        TOTAL FREE ENERGY PREDICTED BY IDOCK:   42.31 KCAL/MOL
REMARK 923 INTER-LIGAND FREE ENERGY PREDICTED BY IDOCK:   42.49 KCAL/MOL
REMARK 924 INTRA-LIGAND FREE ENERGY PREDICTED BY IDOCK:   -0.18 KCAL/MOL
REMARK 927      BINDING AFFINITY PREDICTED BY RF-SCORE:    0.00 PKD
ROOT
HETATM    1  C   UNL     1     -10.564   8.363  67.779  1.00  0.00    -0.171 C  
HETATM    2  C   UNL     1     -10.153   9.662  67.081  1.00  0.00    -0.276 C  
HETATM    3  C   UNL     1     -10.305  10.691  68.184  1.00  0.00    -0.176 C  
HETATM    4  C   UNL     1     -10.978   9.890  65.822  1.00  0.00     0.823 C  
HETATM    5  O   UNL     1     -12.838   8.115  70.159  1.00  0.00     0.985 OA 
HETATM    6  C   UNL     1     -10.684  10.104  69.337  1.00  0.00    -0.238 C  
HETATM    7  C   UNL     1     -12.003   7.758  67.764  1.00  0.00     3.153 C  
HETATM    8  N   UNL     1     -10.816   8.727  69.202  1.00  0.00    -0.121 N  
HETATM    9  C   UNL     1     -10.863  10.764  70.667  1.00  0.00     0.485 C  
HETATM   10  O   UNL     1     -10.351  11.827  70.981  1.00  0.00     3.841 OA 
HETATM   11  O   UNL     1     -11.661  10.095  71.529  1.00  0.00    -0.319 OA 
HETATM   12  C   UNL     1     -12.034   8.112  69.253  1.00  0.00     1.708 C  
ENDROOT
BRANCH   3  13
HETATM   13  S   UNL     1      -9.809  12.313  67.882  1.00  0.00    -0.206 SA 
BRANCH  13  14
HETATM   14  C   UNL     1     -10.093  12.571  66.088  1.00  0.00    -0.251 C  
HETATM   15  C   UNL     1      -8.828  12.620  65.238  1.00  0.00     1.157 C  
HETATM   16  N   UNL     1      -8.315  13.960  65.461  1.00  0.00     1.940 NA 
HETATM   17  C   UNL     1      -9.475  14.878  65.523  1.00  0.00    -0.009 C  
HETATM   18  C   UNL     1     -10.664  13.983  65.894  1.00  0.00    -0.293 C  
HETATM   19  H   UNL     1      -7.623  14.242  64.766  1.00  0.00     0.000 HD 
BRANCH  17  20
HETATM   20  C   UNL     1      -9.122  16.067  66.462  1.00  0.00    -0.285 C  
HETATM   21  O   UNL     1      -7.981  16.173  66.916  1.00  0.00    -0.193 OA 
HETATM   22  N   UNL     1     -10.125  17.011  66.635  1.00  0.00    -0.296 N  
HETATM   23  H   UNL     1     -10.995  16.852  66.129  1.00  0.00     0.000 HD 
BRANCH  22  24
HETATM   24  C   UNL     1     -10.064  18.175  67.443  1.00  0.00    -0.351 A  
HETATM   25  C   UNL     1      -9.360  19.332  67.091  1.00  0.00    -0.373 A  
HETATM   26  C   UNL     1      -9.350  20.455  67.925  1.00  0.00    -0.310 A  
HETATM   27  C   UNL     1     -10.034  20.436  69.135  1.00  0.00     0.100 A  
HETATM   28  C   UNL     1     -10.717  19.277  69.519  1.00  0.00     1.112 A  
HETATM   29  C   UNL     1     -11.458  19.203  70.802  1.00  0.00     6.577 C  
HETATM   30  C   UNL     1     -10.748  18.160  68.664  1.00  0.00     0.103 A  
HETATM   31  O   UNL     1     -10.897  19.914  71.803  1.00  0.00     3.421 OA 
HETATM   32  O   UNL     1     -12.462  18.527  70.944  1.00  0.00    11.594 OA 
ENDBRANCH  22  24
ENDBRANCH  17  20
ENDBRANCH  13  14
ENDBRANCH   3  13
BRANCH   7  33
HETATM   33  C   UNL     1     -12.070   6.300  67.354  1.00  0.00     3.267 C  
HETATM   34  O   UNL     1     -10.734   5.800  67.399  1.00  0.00    -0.255 OA 
HETATM   35  H   UNL     1     -10.776   4.886  67.141  1.00  0.00     0.000 HD 
HETATM   36  C   UNL     1     -12.616   6.146  65.943  1.00  0.00     6.344 C  
ENDBRANCH   7  33
TORSDOF 5
ENDMDL
MODEL      299
REMARK 921   NORMALIZED FREE ENERGY PREDICTED BY IDOCK:   39.29 KCAL/MOL
REMARK 922        TOTAL FREE ENERGY PREDICTED BY IDOCK:   49.10 KCAL/MOL
REMARK 923 INTER-LIGAND FREE ENERGY PREDICTED BY IDOCK:   34.29 KCAL/MOL
REMARK 924 INTRA-LIGAND FREE ENERGY PREDICTED BY IDOCK:   14.80 KCAL/MOL
REMARK 927      BINDING AFFINITY PREDICTED BY RF-SCORE:    0.00 PKD
ROOT
HETATM    1  C   UNL     1      -7.544   8.887  65.131  1.00  0.00    -0.099 C  
HETATM    2  C   UNL     1      -8.648   7.826  65.136  1.00  0.00    -0.023 C  
HETATM    3  C   UNL     1      -9.879   8.630  64.769  1.00  0.00     1.663 C  
HETATM    4  C   UNL     1      -8.692   7.089  66.468  1.00  0.00    -0.138 C  
HETATM    5  O   UNL     1      -7.939  12.051  65.987  1.00  0.00     0.315 OA 
HETATM    6  C   UNL     1      -9.558   9.918  64.537  1.00  0.00    -0.222 C  
HETATM    7  C   UNL     1      -7.061   9.679  66.388  1.00  0.00    -0.093 C  
HETATM    8  N   UNL     1      -8.195  10.150  64.682  1.00  0.00    -0.160 N  
HETATM    9  C   UNL     1     -10.475  11.006  64.074  1.00  0.00    -0.366 C  
HETATM   10  O   UNL     1     -11.536  10.813  63.502  1.00  0.00     0.598 OA 
HETATM   11  O   UNL     1     -10.049  12.260  64.347  1.00  0.00    -0.298 OA 
HETATM   12  C   UNL     1      -7.698  10.896  65.713  1.00  0.00    -0.036 C  
ENDROOT
BRANCH   3  13
HETATM   13  S   UNL     1     -11.369   7.801  64.517  1.00  0.00    15.887 SA 
BRANCH  13  14
HETATM   14  C   UNL     1     -11.557   6.707  65.977  1.00  0.00     3.119 C  
HETATM   15  C   UNL     1     -12.790   6.981  66.830  1.00  0.00    10.478 C  
HETATM   16  N   UNL     1     -12.415   8.145  67.614  1.00  0.00     5.534 NA 
HETATM   17  C   UNL     1     -10.992   7.989  67.992  1.00  0.00     0.183 C  
HETATM   18  C   UNL     1     -10.415   7.018  66.955  1.00  0.00    -0.386 C  
HETATM   19  H   UNL     1     -13.025   8.297  68.417  1.00  0.00     0.000 HD 
BRANCH  17  20
HETATM   20  C   UNL     1     -10.352   9.401  68.120  1.00  0.00    -0.211 C  
HETATM   21  O   UNL     1      -9.274   9.537  68.701  1.00  0.00    -0.134 OA 
HETATM   22  N   UNL     1     -11.014  10.421  67.450  1.00  0.00    -0.293 N  
HETATM   23  H   UNL     1     -11.850  10.159  66.928  1.00  0.00     0.000 HD 
BRANCH  22  24
HETATM   24  C   UNL     1     -10.649  11.791  67.416  1.00  0.00    -0.224 A  
HETATM   25  C   UNL     1     -11.569  12.844  67.462  1.00  0.00    -0.409 A  
HETATM   26  C   UNL     1     -11.145  14.177  67.438  1.00  0.00    -0.318 A  
HETATM   27  C   UNL     1      -9.791  14.481  67.354  1.00  0.00    -0.227 A  
HETATM   28  C   UNL     1      -8.858  13.441  67.274  1.00  0.00    -0.220 A  
HETATM   29  C   UNL     1      -7.403  13.712  67.177  1.00  0.00     0.157 C  
HETATM   30  C   UNL     1      -9.288  12.103  67.326  1.00  0.00    -0.183 A  
HETATM   31  O   UNL     1      -7.096  14.832  66.489  1.00  0.00     0.630 OA 
HETATM   32  O   UNL     1      -6.562  12.964  67.646  1.00  0.00    -0.127 OA 
ENDBRANCH  22  24
ENDBRANCH  17  20
ENDBRANCH  13  14
ENDBRANCH   3  13
BRANCH   7  33
HETATM   33  C   UNL     1      -5.561   9.660  66.606  1.00  0.00    -0.046 C  
HETATM   34  O   UNL     1      -5.169   8.288  66.641  1.00  0.00    -0.027 OA 
HETATM   35  H   UNL     1      -4.229   8.276  66.779  1.00  0.00     0.000 HD 
HETATM   36  C   UNL     1      -5.185  10.324  67.921  1.00  0.00    -0.034 C  
ENDBRANCH   7  33
TORSDOF 5
ENDMDL
MODEL      300
REMARK 921   NORMALIZED FREE ENERGY PREDICTED BY IDOCK:   54.70 KCAL/MOL
REMARK 922        TOTAL FREE ENERGY PREDICTED BY IDOCK:   69.01 KCAL/MOL
REMARK 923 INTER-LIGAND FREE ENERGY PREDICTED BY IDOCK:   63.43 KCAL/MOL
REMARK 924 INTRA-LIGAND FREE ENERGY PREDICTED BY IDOCK:    5.58 KCAL/MOL
REMARK 927      BINDING AFFINITY PREDICTED BY RF-SCORE:    0.00 PKD
ROOT
HETATM    1  C   UNL     1      -7.565   8.880  65.086  1.00  0.00    -0.099 C  
HETATM    2  C   UNL     1      -8.786   7.955  65.094  1.00  0.00     0.015 C  
HETATM    3  C   UNL     1      -9.856   8.818  64.456  1.00  0.00     1.867 C  
HETATM    4  C   UNL     1      -9.075   7.444  66.498  1.00  0.00    -0.195 C  
HETATM    5  O   UNL     1      -7.659  12.162  65.425  1.00  0.00     1.724 OA 
HETATM    6  C   UNL     1      -9.352  10.013  64.088  1.00  0.00    -0.280 C  
HETATM    7  C   UNL     1      -7.136   9.802  66.271  1.00  0.00    -0.095 C  
HETATM    8  N   UNL     1      -7.997  10.119  64.380  1.00  0.00    -0.154 N  
HETATM    9  C   UNL     1     -10.067  11.107  63.359  1.00  0.00    -0.390 C  
HETATM   10  O   UNL     1     -11.069  10.940  62.683  1.00  0.00     0.687 OA 
HETATM   11  O   UNL     1      -9.523  12.335  63.506  1.00  0.00    -0.167 OA 
HETATM   12  C   UNL     1      -7.534  10.960  65.352  1.00  0.00     0.149 C  
ENDROOT
BRANCH   3  13
HETATM   13  S   UNL     1     -11.398   8.122  64.127  1.00  0.00    17.643 SA 
BRANCH  13  14
HETATM   14  C   UNL     1     -12.172   7.883  65.773  1.00  0.00    11.260 C  
HETATM   15  C   UNL     1     -13.397   8.749  66.039  1.00  0.00    22.214 C  
HETATM   16  N   UNL     1     -12.835  10.047  66.371  1.00  0.00     8.995 NA 
HETATM   17  C   UNL     1     -11.621   9.814  67.185  1.00  0.00     1.639 C  
HETATM   18  C   UNL     1     -11.187   8.383  66.840  1.00  0.00     1.050 C  
HETATM   19  H   UNL     1     -13.506  10.666  66.828  1.00  0.00     0.000 HD 
BRANCH  17  20
HETATM   20  C   UNL     1     -10.617  10.973  66.927  1.00  0.00    -0.258 C  
HETATM   21  O   UNL     1     -10.689  11.629  65.886  1.00  0.00    -0.263 OA 
HETATM   22  N   UNL     1      -9.755  11.263  67.976  1.00  0.00    -0.174 N  
HETATM   23  H   UNL     1      -9.859  10.703  68.822  1.00  0.00     0.000 HD 
BRANCH  22  24
HETATM   24  C   UNL     1      -8.745  12.258  67.995  1.00  0.00    -0.181 A  
HETATM   25  C   UNL     1      -7.446  12.041  68.469  1.00  0.00    -0.117 A  
HETATM   26  C   UNL     1      -6.489  13.060  68.449  1.00  0.00    -0.084 A  
HETATM   27  C   UNL     1      -6.817  14.322  67.965  1.00  0.00    -0.150 A  
HETATM   28  C   UNL     1      -8.119  14.567  67.517  1.00  0.00    -0.204 A  
HETATM   29  C   UNL     1      -8.522  15.896  66.996  1.00  0.00    -0.217 C  
HETATM   30  C   UNL     1      -9.071  13.531  67.513  1.00  0.00    -0.214 A  
HETATM   31  O   UNL     1      -7.901  16.934  67.597  1.00  0.00    -0.168 OA 
HETATM   32  O   UNL     1      -9.368  16.035  66.130  1.00  0.00    -0.289 OA 
ENDBRANCH  22  24
ENDBRANCH  17  20
ENDBRANCH  13  14
ENDBRANCH   3  13
BRANCH   7  33
HETATM   33  C   UNL     1      -5.686   9.659  66.687  1.00  0.00    -0.054 C  
HETATM   34  O   UNL     1      -5.133   8.610  65.894  1.00  0.00    -0.027 OA 
HETATM   35  H   UNL     1      -4.223   8.520  66.155  1.00  0.00     0.000 HD 
HETATM   36  C   UNL     1      -5.566   9.293  68.159  1.00  0.00    -0.038 C  
ENDBRANCH   7  33
TORSDOF 5
ENDMDL
