MODEL        1
REMARK 921   NORMALIZED FREE ENERGY PREDICTED BY IDOCK:   -8.50 KCAL/MOL
REMARK 922        TOTAL FREE ENERGY PREDICTED BY IDOCK:  -12.62 KCAL/MOL
REMARK 923 INTER-LIGAND FREE ENERGY PREDICTED BY IDOCK:  -11.48 KCAL/MOL
REMARK 924 INTRA-LIGAND FREE ENERGY PREDICTED BY IDOCK:   -1.14 KCAL/MOL
REMARK 927      BINDING AFFINITY PREDICTED BY RF-SCORE:    0.00 PKD
ROOT
HETATM    1  C   UNL     1     -10.246   5.076  70.358  1.00  0.00    -0.324 C  
HETATM    2  C   UNL     1     -11.254   6.177  70.071  1.00  0.00    -0.401 C  
ENDROOT
BRANCH   2   3
HETATM    3  O   UNL     1     -11.741   6.714  71.307  1.00  0.00    -0.303 OA 
BRANCH   3   4
HETATM    4  C   UNL     1     -12.160   8.019  71.249  1.00  0.00    -0.291 A  
HETATM    5  C   UNL     1     -11.272   8.924  70.668  1.00  0.00    -0.308 A  
HETATM    6  C   UNL     1     -11.527  10.301  70.709  1.00  0.00    -0.438 A  
HETATM    7  C   UNL     1     -12.681  10.795  71.340  1.00  0.00    -0.544 A  
HETATM    8  C   UNL     1     -13.628   9.868  71.801  1.00  0.00    -0.363 A  
HETATM    9  C   UNL     1     -13.372   8.490  71.751  1.00  0.00    -0.396 A  
BRANCH   7  10
HETATM   10  C   UNL     1     -12.795  12.267  71.703  1.00  0.00    -0.378 C  
BRANCH  10  11
HETATM   11  C   UNL     1     -12.367  13.322  70.708  1.00  0.00    -0.425 A  
HETATM   12  C   UNL     1     -12.372  13.005  69.343  1.00  0.00    -0.025 A  
HETATM   13  C   UNL     1     -11.974  13.928  68.341  1.00  0.00    -0.391 A  
HETATM   14 CL   UNL     1     -11.768  15.096  72.704  1.00  0.00    -0.493 Cl 
HETATM   15  C   UNL     1     -11.788  15.259  68.712  1.00  0.00    -0.332 A  
HETATM   16  C   UNL     1     -11.791  15.600  70.068  1.00  0.00    -0.381 A  
HETATM   17  C   UNL     1     -12.009  14.627  71.057  1.00  0.00    -0.339 A  
BRANCH  13  18
HETATM   18  C   UNL     1     -11.478  13.371  67.019  1.00  0.00    -0.337 C  
HETATM   19  C   UNL     1     -12.326  14.140  65.037  1.00  0.00    -0.440 C  
HETATM   20  C   UNL     1     -12.007  12.663  64.954  1.00  0.00    -0.406 C  
HETATM   21  O   UNL     1     -11.559  14.564  66.164  1.00  0.00    -0.362 OA 
HETATM   22  H   UNL     1      -8.238  13.923  66.541  1.00  0.00     0.000 HD 
HETATM   23  O   UNL     1     -12.275  12.325  66.347  1.00  0.00    -0.613 OA 
HETATM   24  C   UNL     1     -10.534  12.231  64.653  1.00  0.00    -0.303 C  
HETATM   25  O   UNL     1      -9.162  14.146  66.566  1.00  0.00    -0.268 OA 
HETATM   26  C   UNL     1      -9.749  11.894  65.946  1.00  0.00    -0.238 C  
HETATM   27  O   UNL     1      -9.883  13.210  63.843  1.00  0.00    -0.735 OA 
HETATM   28  H   UNL     1      -9.671  10.420  67.268  1.00  0.00     0.000 HD 
HETATM   29  H   UNL     1      -8.989  12.948  63.661  1.00  0.00     0.000 HD 
HETATM   30  O   UNL     1     -10.153  10.626  66.476  1.00  0.00    -0.208 OA 
HETATM   31  C   UNL     1      -9.956  13.002  66.978  1.00  0.00    -0.242 C  
BRANCH  20  32
HETATM   32  C   UNL     1     -12.884  12.082  63.822  1.00  0.00    -0.320 C  
HETATM   33  O   UNL     1     -12.145  11.339  62.848  1.00  0.00    -0.879 OA 
HETATM   34  H   UNL     1     -12.685  10.983  62.152  1.00  0.00     0.000 HD 
ENDBRANCH  20  32
ENDBRANCH  13  18
ENDBRANCH  10  11
ENDBRANCH   7  10
ENDBRANCH   3   4
ENDBRANCH   2   3
TORSDOF 6
ENDMDL
MODEL        2
REMARK 921   NORMALIZED FREE ENERGY PREDICTED BY IDOCK:   -7.98 KCAL/MOL
REMARK 922        TOTAL FREE ENERGY PREDICTED BY IDOCK:  -11.92 KCAL/MOL
REMARK 923 INTER-LIGAND FREE ENERGY PREDICTED BY IDOCK:  -10.98 KCAL/MOL
REMARK 924 INTRA-LIGAND FREE ENERGY PREDICTED BY IDOCK:   -0.94 KCAL/MOL
REMARK 927      BINDING AFFINITY PREDICTED BY RF-SCORE:    0.00 PKD
ROOT
HETATM    1  C   UNL     1     -11.236   6.187  69.157  1.00  0.00    -0.409 C  
HETATM    2  C   UNL     1     -11.286   6.240  70.676  1.00  0.00    -0.343 C  
ENDROOT
BRANCH   2   3
HETATM    3  O   UNL     1     -10.638   7.433  71.135  1.00  0.00    -0.220 OA 
BRANCH   3   4
HETATM    4  C   UNL     1     -11.451   8.533  71.241  1.00  0.00    -0.277 A  
HETATM    5  C   UNL     1     -11.024   9.680  70.573  1.00  0.00    -0.374 A  
HETATM    6  C   UNL     1     -11.689  10.900  70.753  1.00  0.00    -0.355 A  
HETATM    7  C   UNL     1     -12.798  10.990  71.612  1.00  0.00    -0.540 A  
HETATM    8  C   UNL     1     -13.295   9.803  72.170  1.00  0.00    -0.527 A  
HETATM    9  C   UNL     1     -12.631   8.582  71.982  1.00  0.00    -0.414 A  
BRANCH   7  10
HETATM   10  C   UNL     1     -13.300  12.343  72.089  1.00  0.00    -0.508 C  
BRANCH  10  11
HETATM   11  C   UNL     1     -12.770  13.608  71.453  1.00  0.00    -0.437 A  
HETATM   12  C   UNL     1     -12.716  13.691  70.055  1.00  0.00    -0.044 A  
HETATM   13  C   UNL     1     -12.221  14.834  69.374  1.00  0.00    -0.251 A  
HETATM   14 CL   UNL     1     -12.196  14.706  73.893  1.00  0.00    -0.375 Cl 
HETATM   15  C   UNL     1     -11.993  15.992  70.116  1.00  0.00    -0.213 A  
HETATM   16  C   UNL     1     -12.053  15.935  71.512  1.00  0.00    -0.533 A  
HETATM   17  C   UNL     1     -12.370  14.738  72.173  1.00  0.00    -0.328 A  
BRANCH  13  18
HETATM   18  C   UNL     1     -11.681  14.644  67.968  1.00  0.00    -0.342 C  
HETATM   19  C   UNL     1      -9.779  15.724  67.294  1.00  0.00    -0.223 C  
HETATM   20  C   UNL     1     -10.768  15.604  66.155  1.00  0.00    -0.303 C  
HETATM   21  O   UNL     1     -10.234  14.729  68.211  1.00  0.00    -0.220 OA 
HETATM   22  H   UNL     1     -10.838  11.494  67.342  1.00  0.00     0.000 HD 
HETATM   23  O   UNL     1     -11.990  15.665  66.947  1.00  0.00     0.304 OA 
HETATM   24  C   UNL     1     -10.815  14.268  65.342  1.00  0.00    -0.342 C  
HETATM   25  O   UNL     1     -10.727  12.365  67.704  1.00  0.00    -0.213 OA 
HETATM   26  C   UNL     1     -11.930  13.317  65.847  1.00  0.00    -0.419 C  
HETATM   27  O   UNL     1      -9.526  13.655  65.316  1.00  0.00    -0.507 OA 
HETATM   28  H   UNL     1     -13.905  13.189  65.737  1.00  0.00     0.000 HD 
HETATM   29  H   UNL     1      -9.555  12.844  64.823  1.00  0.00     0.000 HD 
HETATM   30  O   UNL     1     -13.222  13.772  65.428  1.00  0.00    -0.722 OA 
HETATM   31  C   UNL     1     -11.863  13.207  67.369  1.00  0.00    -0.361 C  
BRANCH  20  32
HETATM   32  C   UNL     1     -10.426  16.727  65.150  1.00  0.00    -0.047 C  
HETATM   33  O   UNL     1     -11.172  16.653  63.932  1.00  0.00    -1.440 OA 
HETATM   34  H   UNL     1     -10.962  17.344  63.314  1.00  0.00     0.000 HD 
ENDBRANCH  20  32
ENDBRANCH  13  18
ENDBRANCH  10  11
ENDBRANCH   7  10
ENDBRANCH   3   4
ENDBRANCH   2   3
TORSDOF 6
ENDMDL
MODEL        3
REMARK 921   NORMALIZED FREE ENERGY PREDICTED BY IDOCK:   -7.93 KCAL/MOL
REMARK 922        TOTAL FREE ENERGY PREDICTED BY IDOCK:  -11.85 KCAL/MOL
REMARK 923 INTER-LIGAND FREE ENERGY PREDICTED BY IDOCK:  -10.82 KCAL/MOL
REMARK 924 INTRA-LIGAND FREE ENERGY PREDICTED BY IDOCK:   -1.02 KCAL/MOL
REMARK 927      BINDING AFFINITY PREDICTED BY RF-SCORE:    0.00 PKD
ROOT
HETATM    1  C   UNL     1     -12.512  15.498  74.369  1.00  0.00    -0.768 C  
HETATM    2  C   UNL     1     -13.535  15.886  73.313  1.00  0.00    -0.509 C  
ENDROOT
BRANCH   2   3
HETATM    3  O   UNL     1     -14.007  14.707  72.649  1.00  0.00    -0.472 OA 
BRANCH   3   4
HETATM    4  C   UNL     1     -13.163  14.200  71.695  1.00  0.00    -0.353 A  
HETATM    5  C   UNL     1     -12.546  15.133  70.862  1.00  0.00    -0.441 A  
HETATM    6  C   UNL     1     -11.799  14.716  69.752  1.00  0.00    -0.366 A  
HETATM    7  C   UNL     1     -11.662  13.349  69.456  1.00  0.00    -0.385 A  
HETATM    8  C   UNL     1     -12.175  12.422  70.376  1.00  0.00    -0.370 A  
HETATM    9  C   UNL     1     -12.915  12.843  71.490  1.00  0.00    -0.388 A  
BRANCH   7  10
HETATM   10  C   UNL     1     -11.172  12.898  68.089  1.00  0.00    -0.305 C  
BRANCH  10  11
HETATM   11  C   UNL     1     -10.943  13.919  66.998  1.00  0.00    -0.301 A  
HETATM   12  C   UNL     1     -10.059  14.979  67.239  1.00  0.00    -0.235 A  
HETATM   13  C   UNL     1      -9.794  15.989  66.278  1.00  0.00    -0.331 A  
HETATM   14 CL   UNL     1     -12.778  12.719  65.361  1.00  0.00    -0.395 Cl 
HETATM   15  C   UNL     1     -10.257  15.795  64.977  1.00  0.00    -0.146 A  
HETATM   16  C   UNL     1     -11.132  14.735  64.711  1.00  0.00    -0.393 A  
HETATM   17  C   UNL     1     -11.524  13.851  65.729  1.00  0.00    -0.321 A  
BRANCH  13  18
HETATM   18  C   UNL     1      -9.309  17.337  66.779  1.00  0.00    -0.259 C  
HETATM   19  C   UNL     1      -7.191  18.065  66.307  1.00  0.00    -0.275 C  
HETATM   20  C   UNL     1      -7.627  18.518  67.683  1.00  0.00    -0.230 C  
HETATM   21  O   UNL     1      -8.431  17.747  65.674  1.00  0.00    -0.417 OA 
HETATM   22  H   UNL     1     -11.096  19.862  65.570  1.00  0.00     0.000 HD 
HETATM   23  O   UNL     1      -8.484  17.383  68.002  1.00  0.00    -0.223 OA 
HETATM   24  C   UNL     1      -8.507  19.806  67.804  1.00  0.00    -0.317 C  
HETATM   25  O   UNL     1     -10.437  19.177  65.549  1.00  0.00    -0.521 OA 
HETATM   26  C   UNL     1     -10.017  19.473  67.902  1.00  0.00    -0.395 C  
HETATM   27  O   UNL     1      -8.202  20.718  66.749  1.00  0.00    -0.555 OA 
HETATM   28  H   UNL     1     -11.273  18.761  69.259  1.00  0.00     0.000 HD 
HETATM   29  H   UNL     1      -8.736  21.499  66.822  1.00  0.00     0.000 HD 
HETATM   30  O   UNL     1     -10.348  18.965  69.200  1.00  0.00    -0.204 OA 
HETATM   31  C   UNL     1     -10.394  18.467  66.815  1.00  0.00    -0.401 C  
BRANCH  20  32
HETATM   32  C   UNL     1      -6.336  18.780  68.493  1.00  0.00    -0.228 C  
HETATM   33  O   UNL     1      -6.415  19.930  69.340  1.00  0.00    -0.318 OA 
HETATM   34  H   UNL     1      -5.622  20.091  69.838  1.00  0.00     0.000 HD 
ENDBRANCH  20  32
ENDBRANCH  13  18
ENDBRANCH  10  11
ENDBRANCH   7  10
ENDBRANCH   3   4
ENDBRANCH   2   3
TORSDOF 6
ENDMDL
MODEL        4
REMARK 921   NORMALIZED FREE ENERGY PREDICTED BY IDOCK:   -7.81 KCAL/MOL
REMARK 922        TOTAL FREE ENERGY PREDICTED BY IDOCK:  -11.69 KCAL/MOL
REMARK 923 INTER-LIGAND FREE ENERGY PREDICTED BY IDOCK:  -10.72 KCAL/MOL
REMARK 924 INTRA-LIGAND FREE ENERGY PREDICTED BY IDOCK:   -0.96 KCAL/MOL
REMARK 927      BINDING AFFINITY PREDICTED BY RF-SCORE:    0.00 PKD
ROOT
HETATM    1  C   UNL     1     -10.382   5.108  69.902  1.00  0.00    -0.347 C  
HETATM    2  C   UNL     1     -11.128   6.427  69.773  1.00  0.00    -0.396 C  
ENDROOT
BRANCH   2   3
HETATM    3  O   UNL     1     -11.374   6.966  71.078  1.00  0.00    -0.268 OA 
BRANCH   3   4
HETATM    4  C   UNL     1     -11.891   8.236  71.093  1.00  0.00    -0.275 A  
HETATM    5  C   UNL     1     -11.171   9.202  70.390  1.00  0.00    -0.279 A  
HETATM    6  C   UNL     1     -11.517  10.557  70.480  1.00  0.00    -0.433 A  
HETATM    7  C   UNL     1     -12.595  10.967  71.283  1.00  0.00    -0.517 A  
HETATM    8  C   UNL     1     -13.389   9.974  71.876  1.00  0.00    -0.516 A  
HETATM    9  C   UNL     1     -13.044   8.619  71.777  1.00  0.00    -0.396 A  
BRANCH   7  10
HETATM   10  C   UNL     1     -12.760  12.428  71.670  1.00  0.00    -0.299 C  
BRANCH  10  11
HETATM   11  C   UNL     1     -12.341  13.513  70.704  1.00  0.00    -0.432 A  
HETATM   12  C   UNL     1     -12.355  13.237  69.330  1.00  0.00    -0.086 A  
HETATM   13  C   UNL     1     -11.967  14.191  68.353  1.00  0.00    -0.366 A  
HETATM   14 CL   UNL     1     -11.729  15.227  72.748  1.00  0.00    -0.527 Cl 
HETATM   15  C   UNL     1     -11.779  15.510  68.762  1.00  0.00    -0.372 A  
HETATM   16  C   UNL     1     -11.773  15.811  70.129  1.00  0.00    -0.367 A  
HETATM   17  C   UNL     1     -11.982  14.808  71.089  1.00  0.00    -0.335 A  
BRANCH  13  18
HETATM   18  C   UNL     1     -11.479  13.675  67.011  1.00  0.00    -0.343 C  
HETATM   19  C   UNL     1     -11.113  11.440  66.683  1.00  0.00    -0.271 C  
HETATM   20  C   UNL     1     -10.111  12.272  65.915  1.00  0.00    -0.251 C  
HETATM   21  O   UNL     1     -12.161  12.374  66.947  1.00  0.00    -0.564 OA 
HETATM   22  H   UNL     1     -13.623  14.300  64.553  1.00  0.00     0.000 HD 
HETATM   23  O   UNL     1     -10.040  13.398  66.839  1.00  0.00    -0.247 OA 
HETATM   24  C   UNL     1     -10.527  12.849  64.522  1.00  0.00    -0.377 C  
HETATM   25  O   UNL     1     -13.285  13.839  65.312  1.00  0.00    -0.755 OA 
HETATM   26  C   UNL     1     -11.026  14.313  64.622  1.00  0.00    -0.367 C  
HETATM   27  O   UNL     1     -11.463  11.981  63.883  1.00  0.00    -0.373 OA 
HETATM   28  H   UNL     1     -10.238  16.113  64.878  1.00  0.00     0.000 HD 
HETATM   29  H   UNL     1     -11.716  12.331  63.037  1.00  0.00     0.000 HD 
HETATM   30  O   UNL     1      -9.932  15.216  64.817  1.00  0.00    -0.163 OA 
HETATM   31  C   UNL     1     -12.038  14.435  65.760  1.00  0.00    -0.355 C  
BRANCH  20  32
HETATM   32  C   UNL     1      -8.877  11.373  65.677  1.00  0.00    -0.076 C  
HETATM   33  O   UNL     1      -8.661  11.049  64.300  1.00  0.00    -0.371 OA 
HETATM   34  H   UNL     1      -7.902  10.496  64.154  1.00  0.00     0.000 HD 
ENDBRANCH  20  32
ENDBRANCH  13  18
ENDBRANCH  10  11
ENDBRANCH   7  10
ENDBRANCH   3   4
ENDBRANCH   2   3
TORSDOF 6
ENDMDL
MODEL        5
REMARK 921   NORMALIZED FREE ENERGY PREDICTED BY IDOCK:   -7.80 KCAL/MOL
REMARK 922        TOTAL FREE ENERGY PREDICTED BY IDOCK:  -11.67 KCAL/MOL
REMARK 923 INTER-LIGAND FREE ENERGY PREDICTED BY IDOCK:  -10.20 KCAL/MOL
REMARK 924 INTRA-LIGAND FREE ENERGY PREDICTED BY IDOCK:   -1.47 KCAL/MOL
REMARK 927      BINDING AFFINITY PREDICTED BY RF-SCORE:    0.00 PKD
ROOT
HETATM    1  C   UNL     1     -13.408   9.802  72.078  1.00  0.00    -0.547 C  
HETATM    2  C   UNL     1     -12.317   9.024  71.358  1.00  0.00    -0.318 C  
ENDROOT
BRANCH   2   3
HETATM    3  O   UNL     1     -11.228   9.903  71.048  1.00  0.00    -0.340 OA 
BRANCH   3   4
HETATM    4  C   UNL     1     -11.210  10.373  69.760  1.00  0.00    -0.293 A  
HETATM    5  C   UNL     1     -10.509   9.601  68.834  1.00  0.00    -0.234 A  
HETATM    6  C   UNL     1     -10.286  10.073  67.533  1.00  0.00    -0.260 A  
HETATM    7  C   UNL     1     -10.762  11.336  67.140  1.00  0.00    -0.297 A  
HETATM    8  C   UNL     1     -11.578  12.040  68.038  1.00  0.00    -0.407 A  
HETATM    9  C   UNL     1     -11.805  11.561  69.336  1.00  0.00    -0.417 A  
BRANCH   7  10
HETATM   10  C   UNL     1     -10.235  12.004  65.880  1.00  0.00    -0.263 C  
BRANCH  10  11
HETATM   11  C   UNL     1     -10.673  13.409  65.536  1.00  0.00    -0.301 A  
HETATM   12  C   UNL     1      -9.864  14.484  65.929  1.00  0.00    -0.347 A  
HETATM   13  C   UNL     1     -10.203  15.836  65.660  1.00  0.00    -0.407 A  
HETATM   14 CL   UNL     1     -13.005  12.511  64.421  1.00  0.00    -0.373 Cl 
HETATM   15  C   UNL     1     -11.257  16.086  64.783  1.00  0.00    -0.348 A  
HETATM   16  C   UNL     1     -12.070  15.026  64.368  1.00  0.00    -0.373 A  
HETATM   17  C   UNL     1     -11.820  13.713  64.797  1.00  0.00    -0.387 A  
BRANCH  13  18
HETATM   18  C   UNL     1      -9.620  16.908  66.563  1.00  0.00    -0.278 C  
HETATM   19  C   UNL     1      -9.938  19.126  66.097  1.00  0.00    -0.381 C  
HETATM   20  C   UNL     1      -8.573  18.889  66.703  1.00  0.00    -0.307 C  
HETATM   21  O   UNL     1     -10.655  17.948  66.467  1.00  0.00    -0.324 OA 
HETATM   22  H   UNL     1     -10.826  16.764  69.653  1.00  0.00     0.000 HD 
HETATM   23  O   UNL     1      -8.350  17.550  66.171  1.00  0.00    -0.432 OA 
HETATM   24  C   UNL     1      -8.451  18.790  68.259  1.00  0.00    -0.327 C  
HETATM   25  O   UNL     1     -10.838  16.976  68.727  1.00  0.00    -0.322 OA 
HETATM   26  C   UNL     1      -8.454  17.321  68.752  1.00  0.00    -0.233 C  
HETATM   27  O   UNL     1      -9.448  19.594  68.889  1.00  0.00    -0.371 OA 
HETATM   28  H   UNL     1      -7.202  15.785  68.783  1.00  0.00     0.000 HD 
HETATM   29  H   UNL     1      -9.374  19.533  69.834  1.00  0.00     0.000 HD 
HETATM   30  O   UNL     1      -7.199  16.686  68.480  1.00  0.00    -0.165 OA 
HETATM   31  C   UNL     1      -9.601  16.558  68.090  1.00  0.00    -0.226 C  
BRANCH  20  32
HETATM   32  C   UNL     1      -7.679  20.070  66.258  1.00  0.00    -0.300 C  
HETATM   33  O   UNL     1      -7.982  21.300  66.923  1.00  0.00    -0.625 OA 
HETATM   34  H   UNL     1      -7.433  22.025  66.649  1.00  0.00     0.000 HD 
ENDBRANCH  20  32
ENDBRANCH  13  18
ENDBRANCH  10  11
ENDBRANCH   7  10
ENDBRANCH   3   4
ENDBRANCH   2   3
TORSDOF 6
ENDMDL
MODEL        6
REMARK 921   NORMALIZED FREE ENERGY PREDICTED BY IDOCK:   -7.75 KCAL/MOL
REMARK 922        TOTAL FREE ENERGY PREDICTED BY IDOCK:  -11.61 KCAL/MOL
REMARK 923 INTER-LIGAND FREE ENERGY PREDICTED BY IDOCK:  -10.40 KCAL/MOL
REMARK 924 INTRA-LIGAND FREE ENERGY PREDICTED BY IDOCK:   -1.20 KCAL/MOL
REMARK 927      BINDING AFFINITY PREDICTED BY RF-SCORE:    0.00 PKD
ROOT
HETATM    1  C   UNL     1     -12.509  15.649  74.250  1.00  0.00    -0.804 C  
HETATM    2  C   UNL     1     -13.417  15.603  73.031  1.00  0.00    -0.562 C  
ENDROOT
BRANCH   2   3
HETATM    3  O   UNL     1     -13.717  14.239  72.709  1.00  0.00    -0.596 OA 
BRANCH   3   4
HETATM    4  C   UNL     1     -13.028  13.730  71.639  1.00  0.00    -0.364 A  
HETATM    5  C   UNL     1     -12.574  14.657  70.702  1.00  0.00    -0.419 A  
HETATM    6  C   UNL     1     -12.009  14.233  69.492  1.00  0.00    -0.384 A  
HETATM    7  C   UNL     1     -11.891  12.863  69.200  1.00  0.00    -0.353 A  
HETATM    8  C   UNL     1     -12.228  11.945  70.206  1.00  0.00    -0.353 A  
HETATM    9  C   UNL     1     -12.786  12.374  71.419  1.00  0.00    -0.360 A  
BRANCH   7  10
HETATM   10  C   UNL     1     -11.619  12.395  67.780  1.00  0.00    -0.413 C  
BRANCH  10  11
HETATM   11  C   UNL     1     -11.284  13.405  66.706  1.00  0.00    -0.332 A  
HETATM   12  C   UNL     1     -10.272  14.343  66.953  1.00  0.00    -0.265 A  
HETATM   13  C   UNL     1      -9.900  15.335  66.009  1.00  0.00    -0.357 A  
HETATM   14 CL   UNL     1     -13.279  12.479  65.079  1.00  0.00     0.262 Cl 
HETATM   15  C   UNL     1     -10.404  15.230  64.713  1.00  0.00    -0.132 A  
HETATM   16  C   UNL     1     -11.407  14.292  64.441  1.00  0.00    -0.284 A  
HETATM   17  C   UNL     1     -11.889  13.439  65.447  1.00  0.00    -0.353 A  
BRANCH  13  18
HETATM   18  C   UNL     1      -9.244  16.601  66.529  1.00  0.00    -0.270 C  
HETATM   19  C   UNL     1     -10.355  17.977  67.982  1.00  0.00    -0.387 C  
HETATM   20  C   UNL     1      -9.483  18.775  67.037  1.00  0.00    -0.301 C  
HETATM   21  O   UNL     1      -9.800  16.665  67.889  1.00  0.00    -0.240 OA 
HETATM   22  H   UNL     1      -6.488  15.983  68.275  1.00  0.00     0.000 HD 
HETATM   23  O   UNL     1      -9.577  17.887  65.885  1.00  0.00    -0.525 OA 
HETATM   24  C   UNL     1      -7.963  18.932  67.373  1.00  0.00    -0.246 C  
HETATM   25  O   UNL     1      -7.424  16.043  68.126  1.00  0.00    -0.124 OA 
HETATM   26  C   UNL     1      -7.090  17.895  66.622  1.00  0.00    -0.219 C  
HETATM   27  O   UNL     1      -7.761  18.917  68.785  1.00  0.00    -0.329 OA 
HETATM   28  H   UNL     1      -6.422  17.604  64.779  1.00  0.00     0.000 HD 
HETATM   29  H   UNL     1      -6.838  19.012  68.989  1.00  0.00     0.000 HD 
HETATM   30  O   UNL     1      -6.957  18.240  65.239  1.00  0.00    -0.516 OA 
HETATM   31  C   UNL     1      -7.700  16.502  66.776  1.00  0.00    -0.259 C  
BRANCH  20  32
HETATM   32  C   UNL     1     -10.079  20.201  66.981  1.00  0.00    -0.459 C  
HETATM   33  O   UNL     1      -9.147  21.226  67.335  1.00  0.00    -0.460 OA 
HETATM   34  H   UNL     1      -9.513  22.102  67.301  1.00  0.00     0.000 HD 
ENDBRANCH  20  32
ENDBRANCH  13  18
ENDBRANCH  10  11
ENDBRANCH   7  10
ENDBRANCH   3   4
ENDBRANCH   2   3
TORSDOF 6
ENDMDL
MODEL        7
REMARK 921   NORMALIZED FREE ENERGY PREDICTED BY IDOCK:   -7.68 KCAL/MOL
REMARK 922        TOTAL FREE ENERGY PREDICTED BY IDOCK:  -11.51 KCAL/MOL
REMARK 923 INTER-LIGAND FREE ENERGY PREDICTED BY IDOCK:  -10.18 KCAL/MOL
REMARK 924 INTRA-LIGAND FREE ENERGY PREDICTED BY IDOCK:   -1.33 KCAL/MOL
REMARK 927      BINDING AFFINITY PREDICTED BY RF-SCORE:    0.00 PKD
ROOT
HETATM    1  C   UNL     1     -11.108   7.652  72.769  1.00  0.00    -0.437 C  
HETATM    2  C   UNL     1     -12.001   8.227  71.680  1.00  0.00    -0.303 C  
ENDROOT
BRANCH   2   3
HETATM    3  O   UNL     1     -11.207   8.544  70.530  1.00  0.00    -0.258 OA 
BRANCH   3   4
HETATM    4  C   UNL     1     -11.206   9.868  70.171  1.00  0.00    -0.289 A  
HETATM    5  C   UNL     1     -12.059  10.701  70.893  1.00  0.00    -0.489 A  
HETATM    6  C   UNL     1     -12.260  12.031  70.500  1.00  0.00    -0.414 A  
HETATM    7  C   UNL     1     -11.606  12.548  69.369  1.00  0.00    -0.368 A  
HETATM    8  C   UNL     1     -10.651  11.740  68.734  1.00  0.00    -0.234 A  
HETATM    9  C   UNL     1     -10.447  10.412  69.135  1.00  0.00    -0.248 A  
BRANCH   7  10
HETATM   10  C   UNL     1     -12.073  13.847  68.730  1.00  0.00    -0.344 C  
BRANCH  10  11
HETATM   11  C   UNL     1     -11.294  14.441  67.579  1.00  0.00    -0.345 A  
HETATM   12  C   UNL     1     -10.418  15.505  67.834  1.00  0.00    -0.266 A  
HETATM   13  C   UNL     1      -9.657  16.131  66.813  1.00  0.00    -0.256 A  
HETATM   14 CL   UNL     1     -12.526  12.795  65.773  1.00  0.00    -0.384 Cl 
HETATM   15  C   UNL     1      -9.613  15.522  65.560  1.00  0.00    -0.257 A  
HETATM   16  C   UNL     1     -10.470  14.450  65.287  1.00  0.00    -0.410 A  
HETATM   17  C   UNL     1     -11.350  13.963  66.267  1.00  0.00    -0.324 A  
BRANCH  13  18
HETATM   18  C   UNL     1      -9.201  17.561  67.042  1.00  0.00    -0.248 C  
HETATM   19  C   UNL     1      -7.169  18.276  66.269  1.00  0.00    -0.262 C  
HETATM   20  C   UNL     1      -7.511  18.936  67.587  1.00  0.00    -0.226 C  
HETATM   21  O   UNL     1      -8.439  17.813  65.810  1.00  0.00    -0.519 OA 
HETATM   22  H   UNL     1     -11.206  19.783  65.604  1.00  0.00     0.000 HD 
HETATM   23  O   UNL     1      -8.281  17.839  68.162  1.00  0.00    -0.243 OA 
HETATM   24  C   UNL     1      -8.442  20.193  67.575  1.00  0.00    -0.335 C  
HETATM   25  O   UNL     1     -10.518  19.128  65.635  1.00  0.00    -0.534 OA 
HETATM   26  C   UNL     1      -9.920  19.826  67.862  1.00  0.00    -0.416 C  
HETATM   27  O   UNL     1      -8.272  20.927  66.363  1.00  0.00    -0.397 OA 
HETATM   28  H   UNL     1     -11.022  19.306  69.425  1.00  0.00     0.000 HD 
HETATM   29  H   UNL     1      -8.837  21.690  66.356  1.00  0.00     0.000 HD 
HETATM   30  O   UNL     1     -10.116  19.530  69.249  1.00  0.00    -0.406 OA 
HETATM   31  C   UNL     1     -10.335  18.641  66.992  1.00  0.00    -0.404 C  
BRANCH  20  32
HETATM   32  C   UNL     1      -6.173  19.375  68.224  1.00  0.00    -0.228 C  
HETATM   33  O   UNL     1      -6.152  20.748  68.624  1.00  0.00    -0.333 OA 
HETATM   34  H   UNL     1      -5.330  21.018  69.015  1.00  0.00     0.000 HD 
ENDBRANCH  20  32
ENDBRANCH  13  18
ENDBRANCH  10  11
ENDBRANCH   7  10
ENDBRANCH   3   4
ENDBRANCH   2   3
TORSDOF 6
ENDMDL
MODEL        8
REMARK 921   NORMALIZED FREE ENERGY PREDICTED BY IDOCK:   -7.53 KCAL/MOL
REMARK 922        TOTAL FREE ENERGY PREDICTED BY IDOCK:  -11.31 KCAL/MOL
REMARK 923 INTER-LIGAND FREE ENERGY PREDICTED BY IDOCK:  -10.40 KCAL/MOL
REMARK 924 INTRA-LIGAND FREE ENERGY PREDICTED BY IDOCK:   -0.91 KCAL/MOL
REMARK 927      BINDING AFFINITY PREDICTED BY RF-SCORE:    0.00 PKD
ROOT
HETATM    1  C   UNL     1     -11.164   6.402  68.942  1.00  0.00    -0.385 C  
HETATM    2  C   UNL     1     -11.465   6.248  70.424  1.00  0.00    -0.344 C  
ENDROOT
BRANCH   2   3
HETATM    3  O   UNL     1     -10.857   7.324  71.150  1.00  0.00    -0.238 OA 
BRANCH   3   4
HETATM    4  C   UNL     1     -11.618   8.460  71.253  1.00  0.00    -0.283 A  
HETATM    5  C   UNL     1     -11.138   9.584  70.584  1.00  0.00    -0.364 A  
HETATM    6  C   UNL     1     -11.746  10.835  70.761  1.00  0.00    -0.400 A  
HETATM    7  C   UNL     1     -12.850  10.977  71.619  1.00  0.00    -0.540 A  
HETATM    8  C   UNL     1     -13.402   9.816  72.179  1.00  0.00    -0.527 A  
HETATM    9  C   UNL     1     -12.795   8.565  71.993  1.00  0.00    -0.414 A  
BRANCH   7  10
HETATM   10  C   UNL     1     -13.289  12.353  72.093  1.00  0.00    -0.508 C  
BRANCH  10  11
HETATM   11  C   UNL     1     -12.746  13.591  71.415  1.00  0.00    -0.423 A  
HETATM   12  C   UNL     1     -12.480  13.546  70.040  1.00  0.00    -0.231 A  
HETATM   13  C   UNL     1     -11.957  14.654  69.324  1.00  0.00    -0.337 A  
HETATM   14 CL   UNL     1     -12.631  14.954  73.785  1.00  0.00    -0.634 Cl 
HETATM   15  C   UNL     1     -11.920  15.891  69.966  1.00  0.00    -0.297 A  
HETATM   16  C   UNL     1     -12.194  15.961  71.336  1.00  0.00    -0.501 A  
HETATM   17  C   UNL     1     -12.535  14.810  72.064  1.00  0.00    -0.336 A  
BRANCH  13  18
HETATM   18  C   UNL     1     -11.193  14.377  68.042  1.00  0.00    -0.280 C  
HETATM   19  C   UNL     1     -12.190  13.266  66.307  1.00  0.00    -0.377 C  
HETATM   20  C   UNL     1     -10.723  12.910  66.408  1.00  0.00    -0.270 C  
HETATM   21  O   UNL     1     -12.269  14.485  67.046  1.00  0.00    -0.362 OA 
HETATM   22  H   UNL     1     -10.236  17.160  66.503  1.00  0.00     0.000 HD 
HETATM   23  O   UNL     1     -10.587  13.044  67.854  1.00  0.00    -0.221 OA 
HETATM   24  C   UNL     1      -9.673  13.870  65.758  1.00  0.00    -0.164 C  
HETATM   25  O   UNL     1     -10.846  16.480  66.766  1.00  0.00    -0.217 OA 
HETATM   26  C   UNL     1      -9.067  14.856  66.788  1.00  0.00    -0.270 C  
HETATM   27  O   UNL     1     -10.234  14.524  64.620  1.00  0.00    -0.501 OA 
HETATM   28  H   UNL     1      -7.758  14.798  68.274  1.00  0.00     0.000 HD 
HETATM   29  H   UNL     1      -9.597  15.106  64.225  1.00  0.00     0.000 HD 
HETATM   30  O   UNL     1      -8.129  14.194  67.643  1.00  0.00    -0.151 OA 
HETATM   31  C   UNL     1     -10.187  15.496  67.608  1.00  0.00    -0.255 C  
BRANCH  20  32
HETATM   32  C   UNL     1     -10.552  11.532  65.728  1.00  0.00    -0.263 C  
HETATM   33  O   UNL     1     -10.738  11.567  64.310  1.00  0.00    -0.311 OA 
HETATM   34  H   UNL     1     -10.633  10.720  63.892  1.00  0.00     0.000 HD 
ENDBRANCH  20  32
ENDBRANCH  13  18
ENDBRANCH  10  11
ENDBRANCH   7  10
ENDBRANCH   3   4
ENDBRANCH   2   3
TORSDOF 6
ENDMDL
MODEL        9
REMARK 921   NORMALIZED FREE ENERGY PREDICTED BY IDOCK:   -7.52 KCAL/MOL
REMARK 922        TOTAL FREE ENERGY PREDICTED BY IDOCK:  -11.30 KCAL/MOL
REMARK 923 INTER-LIGAND FREE ENERGY PREDICTED BY IDOCK:   -9.94 KCAL/MOL
REMARK 924 INTRA-LIGAND FREE ENERGY PREDICTED BY IDOCK:   -1.36 KCAL/MOL
REMARK 927      BINDING AFFINITY PREDICTED BY RF-SCORE:    0.00 PKD
ROOT
HETATM    1  C   UNL     1     -10.175   3.900  72.537  1.00  0.00    -0.233 C  
HETATM    2  C   UNL     1     -10.446   5.300  72.009  1.00  0.00    -0.222 C  
ENDROOT
BRANCH   2   3
HETATM    3  O   UNL     1     -11.769   5.704  72.383  1.00  0.00    -0.277 OA 
BRANCH   3   4
HETATM    4  C   UNL     1     -12.112   6.981  72.017  1.00  0.00    -0.294 A  
HETATM    5  C   UNL     1     -11.077   7.914  72.001  1.00  0.00    -0.332 A  
HETATM    6  C   UNL     1     -11.345   9.276  71.806  1.00  0.00    -0.437 A  
HETATM    7  C   UNL     1     -12.665   9.725  71.628  1.00  0.00    -0.517 A  
HETATM    8  C   UNL     1     -13.678   8.762  71.514  1.00  0.00    -0.384 A  
HETATM    9  C   UNL     1     -13.404   7.399  71.701  1.00  0.00    -0.426 A  
BRANCH   7  10
HETATM   10  C   UNL     1     -13.007  11.200  71.772  1.00  0.00    -0.526 C  
BRANCH  10  11
HETATM   11  C   UNL     1     -12.549  12.183  70.719  1.00  0.00    -0.305 A  
HETATM   12  C   UNL     1     -12.228  11.705  69.441  1.00  0.00    -0.246 A  
HETATM   13  C   UNL     1     -11.779  12.554  68.396  1.00  0.00    -0.375 A  
HETATM   14 CL   UNL     1     -12.645  14.267  72.489  1.00  0.00    -0.348 Cl 
HETATM   15  C   UNL     1     -11.875  13.932  68.583  1.00  0.00    -0.407 A  
HETATM   16  C   UNL     1     -12.206  14.431  69.847  1.00  0.00    -0.394 A  
HETATM   17  C   UNL     1     -12.471  13.564  70.919  1.00  0.00    -0.369 A  
BRANCH  13  18
HETATM   18  C   UNL     1     -10.945  11.936  67.288  1.00  0.00    -0.268 C  
HETATM   19  C   UNL     1     -10.432  13.135  65.408  1.00  0.00    -0.296 C  
HETATM   20  C   UNL     1     -10.645  11.674  65.078  1.00  0.00    -0.289 C  
HETATM   21  O   UNL     1     -10.195  13.109  66.815  1.00  0.00    -0.245 OA 
HETATM   22  H   UNL     1      -7.901  11.086  68.308  1.00  0.00     0.000 HD 
HETATM   23  O   UNL     1     -11.636  11.382  66.107  1.00  0.00    -0.286 OA 
HETATM   24  C   UNL     1      -9.457  10.678  65.291  1.00  0.00    -0.221 C  
HETATM   25  O   UNL     1      -8.584  11.680  68.018  1.00  0.00    -0.139 OA 
HETATM   26  C   UNL     1      -9.547   9.945  66.653  1.00  0.00    -0.184 C  
HETATM   27  O   UNL     1      -8.209  11.342  65.094  1.00  0.00    -0.368 OA 
HETATM   28  H   UNL     1     -10.618   8.486  67.462  1.00  0.00     0.000 HD 
HETATM   29  H   UNL     1      -7.488  10.737  65.223  1.00  0.00     0.000 HD 
HETATM   30  O   UNL     1     -10.563   8.935  66.627  1.00  0.00    -0.216 OA 
HETATM   31  C   UNL     1      -9.818  10.957  67.765  1.00  0.00    -0.175 C  
BRANCH  20  32
HETATM   32  C   UNL     1     -11.023  11.606  63.581  1.00  0.00    -0.431 C  
HETATM   33  O   UNL     1     -10.197  10.720  62.820  1.00  0.00    -0.727 OA 
HETATM   34  H   UNL     1     -10.430  10.679  61.900  1.00  0.00     0.000 HD 
ENDBRANCH  20  32
ENDBRANCH  13  18
ENDBRANCH  10  11
ENDBRANCH   7  10
ENDBRANCH   3   4
ENDBRANCH   2   3
TORSDOF 6
ENDMDL
MODEL       10
REMARK 921   NORMALIZED FREE ENERGY PREDICTED BY IDOCK:   -7.43 KCAL/MOL
REMARK 922        TOTAL FREE ENERGY PREDICTED BY IDOCK:  -11.17 KCAL/MOL
REMARK 923 INTER-LIGAND FREE ENERGY PREDICTED BY IDOCK:   -9.77 KCAL/MOL
REMARK 924 INTRA-LIGAND FREE ENERGY PREDICTED BY IDOCK:   -1.40 KCAL/MOL
REMARK 927      BINDING AFFINITY PREDICTED BY RF-SCORE:    0.00 PKD
ROOT
HETATM    1  C   UNL     1      -7.627   9.982  62.478  1.00  0.00    -0.133 C  
HETATM    2  C   UNL     1      -9.033   9.774  63.020  1.00  0.00    -0.254 C  
ENDROOT
BRANCH   2   3
HETATM    3  O   UNL     1      -9.861  10.879  62.634  1.00  0.00    -0.246 OA 
BRANCH   3   4
HETATM    4  C   UNL     1     -10.398  11.594  63.674  1.00  0.00    -0.419 A  
HETATM    5  C   UNL     1      -9.713  11.522  64.887  1.00  0.00    -0.264 A  
HETATM    6  C   UNL     1     -10.263  12.074  66.052  1.00  0.00    -0.256 A  
HETATM    7  C   UNL     1     -11.517  12.709  66.018  1.00  0.00    -0.414 A  
HETATM    8  C   UNL     1     -12.130  12.890  64.769  1.00  0.00    -0.474 A  
HETATM    9  C   UNL     1     -11.572  12.342  63.605  1.00  0.00    -0.580 A  
BRANCH   7  10
HETATM   10  C   UNL     1     -12.277  12.990  67.305  1.00  0.00    -0.180 C  
BRANCH  10  11
HETATM   11  C   UNL     1     -11.813  14.097  68.225  1.00  0.00    -0.391 A  
HETATM   12  C   UNL     1     -11.321  15.282  67.661  1.00  0.00    -0.315 A  
HETATM   13  C   UNL     1     -10.853  16.367  68.447  1.00  0.00    -0.342 A  
HETATM   14 CL   UNL     1     -12.283  12.573  70.449  1.00  0.00    -0.411 Cl 
HETATM   15  C   UNL     1     -11.099  16.337  69.819  1.00  0.00    -0.337 A  
HETATM   16  C   UNL     1     -11.601  15.168  70.401  1.00  0.00    -0.330 A  
HETATM   17  C   UNL     1     -11.888  14.038  69.619  1.00  0.00    -0.330 A  
BRANCH  13  18
HETATM   18  C   UNL     1      -9.858  17.324  67.817  1.00  0.00    -0.281 C  
HETATM   19  C   UNL     1      -7.680  16.700  67.499  1.00  0.00    -0.165 C  
HETATM   20  C   UNL     1      -7.778  18.170  67.846  1.00  0.00    -0.235 C  
HETATM   21  O   UNL     1      -9.005  16.389  67.070  1.00  0.00    -0.199 OA 
HETATM   22  H   UNL     1     -10.698  18.175  64.718  1.00  0.00     0.000 HD 
HETATM   23  O   UNL     1      -8.958  18.092  68.699  1.00  0.00    -0.311 OA 
HETATM   24  C   UNL     1      -8.105  19.188  66.704  1.00  0.00    -0.279 C  
HETATM   25  O   UNL     1     -10.344  17.611  65.397  1.00  0.00    -0.617 OA 
HETATM   26  C   UNL     1      -9.614  19.537  66.647  1.00  0.00    -0.363 C  
HETATM   27  O   UNL     1      -7.591  18.720  65.457  1.00  0.00    -0.476 OA 
HETATM   28  H   UNL     1     -10.903  20.630  67.682  1.00  0.00     0.000 HD 
HETATM   29  H   UNL     1      -7.790  19.338  64.764  1.00  0.00     0.000 HD 
HETATM   30  O   UNL     1      -9.978  20.416  67.717  1.00  0.00    -0.406 OA 
HETATM   31  C   UNL     1     -10.441  18.253  66.697  1.00  0.00    -0.360 C  
BRANCH  20  32
HETATM   32  C   UNL     1      -6.409  18.580  68.434  1.00  0.00    -0.212 C  
HETATM   33  O   UNL     1      -5.708  19.540  67.638  1.00  0.00    -0.189 OA 
HETATM   34  H   UNL     1      -4.866  19.792  67.999  1.00  0.00     0.000 HD 
ENDBRANCH  20  32
ENDBRANCH  13  18
ENDBRANCH  10  11
ENDBRANCH   7  10
ENDBRANCH   3   4
ENDBRANCH   2   3
TORSDOF 6
ENDMDL
MODEL       11
REMARK 921   NORMALIZED FREE ENERGY PREDICTED BY IDOCK:   -7.26 KCAL/MOL
REMARK 922        TOTAL FREE ENERGY PREDICTED BY IDOCK:  -10.95 KCAL/MOL
REMARK 923 INTER-LIGAND FREE ENERGY PREDICTED BY IDOCK:   -9.84 KCAL/MOL
REMARK 924 INTRA-LIGAND FREE ENERGY PREDICTED BY IDOCK:   -1.11 KCAL/MOL
REMARK 927      BINDING AFFINITY PREDICTED BY RF-SCORE:    0.00 PKD
ROOT
HETATM    1  C   UNL     1     -11.012  15.741  64.804  1.00  0.00    -0.410 C  
HETATM    2  C   UNL     1     -12.229  15.143  64.114  1.00  0.00    -0.161 C  
ENDROOT
BRANCH   2   3
HETATM    3  O   UNL     1     -12.839  14.174  64.976  1.00  0.00    -0.687 OA 
BRANCH   3   4
HETATM    4  C   UNL     1     -12.160  12.988  65.090  1.00  0.00    -0.433 A  
HETATM    5  C   UNL     1     -11.897  12.554  66.389  1.00  0.00    -0.445 A  
HETATM    6  C   UNL     1     -11.068  11.448  66.618  1.00  0.00    -0.333 A  
HETATM    7  C   UNL     1     -10.482  10.759  65.542  1.00  0.00    -0.264 A  
HETATM    8  C   UNL     1     -10.862  11.124  64.242  1.00  0.00    -0.354 A  
HETATM    9  C   UNL     1     -11.699  12.227  64.017  1.00  0.00    -0.506 A  
BRANCH   7  10
HETATM   10  C   UNL     1      -9.322   9.804  65.773  1.00  0.00    -0.278 C  
BRANCH  10  11
HETATM   11  C   UNL     1      -9.547   8.518  66.535  1.00  0.00    -0.303 A  
HETATM   12  C   UNL     1     -10.247   8.564  67.748  1.00  0.00    -0.283 A  
HETATM   13  C   UNL     1     -10.493   7.409  68.535  1.00  0.00    -0.215 A  
HETATM   14 CL   UNL     1      -8.107   7.075  64.710  1.00  0.00    -0.122 Cl 
HETATM   15  C   UNL     1     -10.226   6.162  67.972  1.00  0.00    -0.210 A  
HETATM   16  C   UNL     1      -9.539   6.092  66.755  1.00  0.00    -0.174 A  
HETATM   17  C   UNL     1      -9.144   7.259  66.081  1.00  0.00    -0.122 A  
BRANCH  13  18
HETATM   18  C   UNL     1     -10.729   7.600  70.023  1.00  0.00    -0.241 C  
HETATM   19  C   UNL     1     -12.832   7.410  70.904  1.00  0.00    -0.082 C  
HETATM   20  C   UNL     1     -12.034   8.473  71.627  1.00  0.00    -0.316 C  
HETATM   21  O   UNL     1     -11.818   6.641  70.259  1.00  0.00    -0.395 OA 
HETATM   22  H   UNL     1      -9.101   5.367  71.865  1.00  0.00     0.000 HD 
HETATM   23  O   UNL     1     -11.218   8.908  70.500  1.00  0.00    -0.254 OA 
HETATM   24  C   UNL     1     -11.051   8.030  72.761  1.00  0.00    -0.381 C  
HETATM   25  O   UNL     1      -9.797   5.684  71.301  1.00  0.00    -0.166 OA 
HETATM   26  C   UNL     1      -9.595   7.889  72.248  1.00  0.00    -0.195 C  
HETATM   27  O   UNL     1     -11.534   6.851  73.406  1.00  0.00    -0.466 OA 
HETATM   28  H   UNL     1      -8.103   9.087  71.734  1.00  0.00     0.000 HD 
HETATM   29  H   UNL     1     -10.937   6.582  74.094  1.00  0.00     0.000 HD 
HETATM   30  O   UNL     1      -8.995   9.174  72.048  1.00  0.00    -0.337 OA 
HETATM   31  C   UNL     1      -9.581   7.078  70.954  1.00  0.00    -0.167 C  
BRANCH  20  32
HETATM   32  C   UNL     1     -13.058   9.434  72.273  1.00  0.00    -0.428 C  
HETATM   33  O   UNL     1     -13.883   8.812  73.263  1.00  0.00    -1.115 OA 
HETATM   34  H   UNL     1     -14.512   9.403  73.659  1.00  0.00     0.000 HD 
ENDBRANCH  20  32
ENDBRANCH  13  18
ENDBRANCH  10  11
ENDBRANCH   7  10
ENDBRANCH   3   4
ENDBRANCH   2   3
TORSDOF 6
ENDMDL
MODEL       12
REMARK 921   NORMALIZED FREE ENERGY PREDICTED BY IDOCK:   -7.26 KCAL/MOL
REMARK 922        TOTAL FREE ENERGY PREDICTED BY IDOCK:  -10.94 KCAL/MOL
REMARK 923 INTER-LIGAND FREE ENERGY PREDICTED BY IDOCK:   -9.61 KCAL/MOL
REMARK 924 INTRA-LIGAND FREE ENERGY PREDICTED BY IDOCK:   -1.33 KCAL/MOL
REMARK 927      BINDING AFFINITY PREDICTED BY RF-SCORE:    0.00 PKD
ROOT
HETATM    1  C   UNL     1      -9.672   8.222  71.982  1.00  0.00    -0.322 C  
HETATM    2  C   UNL     1     -10.215   9.356  71.127  1.00  0.00    -0.291 C  
ENDROOT
BRANCH   2   3
HETATM    3  O   UNL     1     -11.028   8.816  70.077  1.00  0.00    -0.245 OA 
BRANCH   3   4
HETATM    4  C   UNL     1     -11.024   9.536  68.910  1.00  0.00    -0.086 A  
HETATM    5  C   UNL     1     -10.504   8.888  67.790  1.00  0.00    -0.300 A  
HETATM    6  C   UNL     1     -10.298   9.586  66.592  1.00  0.00    -0.280 A  
HETATM    7  C   UNL     1     -10.610  10.954  66.500  1.00  0.00    -0.295 A  
HETATM    8  C   UNL     1     -11.255  11.557  67.590  1.00  0.00    -0.343 A  
HETATM    9  C   UNL     1     -11.466  10.852  68.784  1.00  0.00    -0.376 A  
BRANCH   7  10
HETATM   10  C   UNL     1     -10.073  11.794  65.352  1.00  0.00    -0.291 C  
BRANCH  10  11
HETATM   11  C   UNL     1     -10.584  13.203  65.149  1.00  0.00    -0.332 A  
HETATM   12  C   UNL     1      -9.755  14.279  65.495  1.00  0.00    -0.189 A  
HETATM   13  C   UNL     1     -10.157  15.632  65.351  1.00  0.00    -0.370 A  
HETATM   14 CL   UNL     1     -13.022  12.297  64.299  1.00  0.00    -0.383 Cl 
HETATM   15  C   UNL     1     -11.323  15.898  64.635  1.00  0.00    -0.328 A  
HETATM   16  C   UNL     1     -12.160  14.838  64.269  1.00  0.00    -0.415 A  
HETATM   17  C   UNL     1     -11.825  13.511  64.586  1.00  0.00    -0.394 A  
BRANCH  13  18
HETATM   18  C   UNL     1      -9.484  16.671  66.230  1.00  0.00    -0.293 C  
HETATM   19  C   UNL     1     -10.462  17.358  68.181  1.00  0.00    -0.389 C  
HETATM   20  C   UNL     1      -9.728  18.498  67.512  1.00  0.00    -0.300 C  
HETATM   21  O   UNL     1      -9.883  16.207  67.567  1.00  0.00    -0.232 OA 
HETATM   22  H   UNL     1      -6.530  15.660  67.362  1.00  0.00     0.000 HD 
HETATM   23  O   UNL     1      -9.925  18.076  66.131  1.00  0.00    -0.430 OA 
HETATM   24  C   UNL     1      -8.185  18.629  67.735  1.00  0.00    -0.255 C  
HETATM   25  O   UNL     1      -7.479  15.705  67.334  1.00  0.00    -0.166 OA 
HETATM   26  C   UNL     1      -7.373  17.990  66.580  1.00  0.00    -0.221 C  
HETATM   27  O   UNL     1      -7.823  18.124  69.020  1.00  0.00    -0.218 OA 
HETATM   28  H   UNL     1      -6.909  18.424  64.703  1.00  0.00     0.000 HD 
HETATM   29  H   UNL     1      -6.886  18.203  69.155  1.00  0.00     0.000 HD 
HETATM   30  O   UNL     1      -7.407  18.816  65.410  1.00  0.00    -0.491 OA 
HETATM   31  C   UNL     1      -7.919  16.597  66.275  1.00  0.00    -0.305 C  
BRANCH  20  32
HETATM   32  C   UNL     1     -10.368  19.805  68.033  1.00  0.00    -0.434 C  
HETATM   33  O   UNL     1     -10.330  19.934  69.457  1.00  0.00    -0.631 OA 
HETATM   34  H   UNL     1     -10.723  20.737  69.777  1.00  0.00     0.000 HD 
ENDBRANCH  20  32
ENDBRANCH  13  18
ENDBRANCH  10  11
ENDBRANCH   7  10
ENDBRANCH   3   4
ENDBRANCH   2   3
TORSDOF 6
ENDMDL
MODEL       13
REMARK 921   NORMALIZED FREE ENERGY PREDICTED BY IDOCK:   -7.15 KCAL/MOL
REMARK 922        TOTAL FREE ENERGY PREDICTED BY IDOCK:  -10.79 KCAL/MOL
REMARK 923 INTER-LIGAND FREE ENERGY PREDICTED BY IDOCK:   -9.29 KCAL/MOL
REMARK 924 INTRA-LIGAND FREE ENERGY PREDICTED BY IDOCK:   -1.50 KCAL/MOL
REMARK 927      BINDING AFFINITY PREDICTED BY RF-SCORE:    0.00 PKD
ROOT
HETATM    1  C   UNL     1     -13.212  10.607  71.773  1.00  0.00    -0.526 C  
HETATM    2  C   UNL     1     -13.445   9.137  72.086  1.00  0.00    -0.469 C  
ENDROOT
BRANCH   2   3
HETATM    3  O   UNL     1     -12.251   8.572  72.641  1.00  0.00    -0.379 OA 
BRANCH   3   4
HETATM    4  C   UNL     1     -11.274   8.266  71.728  1.00  0.00    -0.283 A  
HETATM    5  C   UNL     1     -10.020   8.829  71.958  1.00  0.00    -0.391 A  
HETATM    6  C   UNL     1      -9.001   8.719  71.003  1.00  0.00    -0.269 A  
HETATM    7  C   UNL     1      -9.227   8.041  69.792  1.00  0.00    -0.149 A  
HETATM    8  C   UNL     1     -10.447   7.367  69.634  1.00  0.00    -0.237 A  
HETATM    9  C   UNL     1     -11.462   7.473  70.596  1.00  0.00    -0.291 A  
BRANCH   7  10
HETATM   10  C   UNL     1      -8.277   8.214  68.619  1.00  0.00    -0.125 C  
BRANCH  10  11
HETATM   11  C   UNL     1      -8.769   8.856  67.342  1.00  0.00    -0.128 A  
HETATM   12  C   UNL     1      -8.984  10.241  67.321  1.00  0.00    -0.140 A  
HETATM   13  C   UNL     1      -9.457  10.925  66.171  1.00  0.00    -0.230 A  
HETATM   14 CL   UNL     1      -8.946   6.434  66.081  1.00  0.00    -0.165 Cl 
HETATM   15  C   UNL     1      -9.493  10.231  64.963  1.00  0.00    -0.314 A  
HETATM   16  C   UNL     1      -9.270   8.850  64.958  1.00  0.00    -0.033 A  
HETATM   17  C   UNL     1      -8.980   8.162  66.147  1.00  0.00    -0.178 A  
BRANCH  13  18
HETATM   18  C   UNL     1     -10.177  12.246  66.376  1.00  0.00    -0.225 C  
HETATM   19  C   UNL     1     -12.229  12.614  65.432  1.00  0.00    -0.459 C  
HETATM   20  C   UNL     1     -11.408  13.884  65.457  1.00  0.00    -0.308 C  
HETATM   21  O   UNL     1     -11.577  11.799  66.406  1.00  0.00    -0.462 OA 
HETATM   22  H   UNL     1     -10.870  12.835  69.570  1.00  0.00     0.000 HD 
HETATM   23  O   UNL     1     -10.092  13.271  65.318  1.00  0.00    -0.290 OA 
HETATM   24  C   UNL     1     -11.380  14.733  66.771  1.00  0.00    -0.346 C  
HETATM   25  O   UNL     1     -10.991  12.436  68.716  1.00  0.00    -0.232 OA 
HETATM   26  C   UNL     1     -10.138  14.417  67.643  1.00  0.00    -0.222 C  
HETATM   27  O   UNL     1     -12.611  14.593  67.480  1.00  0.00    -0.464 OA 
HETATM   28  H   UNL     1      -8.195  14.808  67.619  1.00  0.00     0.000 HD 
HETATM   29  H   UNL     1     -12.594  15.108  68.278  1.00  0.00     0.000 HD 
HETATM   30  O   UNL     1      -8.956  15.001  67.084  1.00  0.00    -0.194 OA 
HETATM   31  C   UNL     1      -9.979  12.904  67.784  1.00  0.00    -0.230 C  
BRANCH  20  32
HETATM   32  C   UNL     1     -11.970  14.799  64.346  1.00  0.00    -0.417 C  
HETATM   33  O   UNL     1     -12.421  14.086  63.190  1.00  0.00    -1.137 OA 
HETATM   34  H   UNL     1     -12.766  14.649  62.507  1.00  0.00     0.000 HD 
ENDBRANCH  20  32
ENDBRANCH  13  18
ENDBRANCH  10  11
ENDBRANCH   7  10
ENDBRANCH   3   4
ENDBRANCH   2   3
TORSDOF 6
ENDMDL
MODEL       14
REMARK 921   NORMALIZED FREE ENERGY PREDICTED BY IDOCK:   -7.06 KCAL/MOL
REMARK 922        TOTAL FREE ENERGY PREDICTED BY IDOCK:  -10.67 KCAL/MOL
REMARK 923 INTER-LIGAND FREE ENERGY PREDICTED BY IDOCK:   -9.70 KCAL/MOL
REMARK 924 INTRA-LIGAND FREE ENERGY PREDICTED BY IDOCK:   -0.97 KCAL/MOL
REMARK 927      BINDING AFFINITY PREDICTED BY RF-SCORE:    0.00 PKD
ROOT
HETATM    1  C   UNL     1     -11.420   6.108  69.663  1.00  0.00    -0.332 C  
HETATM    2  C   UNL     1     -10.326   6.897  70.363  1.00  0.00    -0.202 C  
ENDROOT
BRANCH   2   3
HETATM    3  O   UNL     1     -10.800   7.345  71.639  1.00  0.00    -0.219 OA 
BRANCH   3   4
HETATM    4  C   UNL     1     -11.609   8.452  71.603  1.00  0.00    -0.289 A  
HETATM    5  C   UNL     1     -11.139   9.532  70.856  1.00  0.00    -0.406 A  
HETATM    6  C   UNL     1     -11.802  10.766  70.889  1.00  0.00    -0.400 A  
HETATM    7  C   UNL     1     -12.952  10.938  71.679  1.00  0.00    -0.569 A  
HETATM    8  C   UNL     1     -13.487   9.809  72.317  1.00  0.00    -0.443 A  
HETATM    9  C   UNL     1     -12.824   8.574  72.275  1.00  0.00    -0.404 A  
BRANCH   7  10
HETATM   10  C   UNL     1     -13.466  12.331  72.004  1.00  0.00    -0.418 C  
BRANCH  10  11
HETATM   11  C   UNL     1     -12.763  13.543  71.436  1.00  0.00    -0.423 A  
HETATM   12  C   UNL     1     -12.364  13.526  70.093  1.00  0.00    -0.345 A  
HETATM   13  C   UNL     1     -11.688  14.613  69.481  1.00  0.00    -0.366 A  
HETATM   14 CL   UNL     1     -12.781  14.807  73.863  1.00  0.00    -0.472 Cl 
HETATM   15  C   UNL     1     -11.620  15.819  70.177  1.00  0.00    -0.364 A  
HETATM   16  C   UNL     1     -12.024  15.862  71.515  1.00  0.00    -0.537 A  
HETATM   17  C   UNL     1     -12.525  14.717  72.156  1.00  0.00    -0.331 A  
BRANCH  13  18
HETATM   18  C   UNL     1     -10.823  14.319  68.268  1.00  0.00    -0.246 C  
HETATM   19  C   UNL     1     -10.120  12.188  67.825  1.00  0.00    -0.199 C  
HETATM   20  C   UNL     1      -9.065  13.199  67.434  1.00  0.00    -0.208 C  
HETATM   21  O   UNL     1     -11.304  12.981  67.898  1.00  0.00    -0.255 OA 
HETATM   22  H   UNL     1     -12.345  15.057  65.410  1.00  0.00     0.000 HD 
HETATM   23  O   UNL     1      -9.363  14.198  68.452  1.00  0.00    -0.202 OA 
HETATM   24  C   UNL     1      -9.187  13.909  66.045  1.00  0.00     0.077 C  
HETATM   25  O   UNL     1     -12.153  14.535  66.181  1.00  0.00    -0.367 OA 
HETATM   26  C   UNL     1      -9.868  15.297  66.158  1.00  0.00    -0.307 C  
HETATM   27  O   UNL     1      -9.822  13.049  65.100  1.00  0.00    -0.481 OA 
HETATM   28  H   UNL     1      -9.392  17.113  66.791  1.00  0.00     0.000 HD 
HETATM   29  H   UNL     1      -9.896  13.480  64.257  1.00  0.00     0.000 HD 
HETATM   30  O   UNL     1      -8.974  16.263  66.722  1.00  0.00    -0.199 OA 
HETATM   31  C   UNL     1     -11.139  15.180  66.997  1.00  0.00    -0.328 C  
BRANCH  20  32
HETATM   32  C   UNL     1      -7.711  12.453  67.438  1.00  0.00    -0.170 C  
HETATM   33  O   UNL     1      -7.355  11.905  66.166  1.00  0.00    -0.297 OA 
HETATM   34  H   UNL     1      -6.523  11.446  66.169  1.00  0.00     0.000 HD 
ENDBRANCH  20  32
ENDBRANCH  13  18
ENDBRANCH  10  11
ENDBRANCH   7  10
ENDBRANCH   3   4
ENDBRANCH   2   3
TORSDOF 6
ENDMDL
MODEL       15
REMARK 921   NORMALIZED FREE ENERGY PREDICTED BY IDOCK:   -7.00 KCAL/MOL
REMARK 922        TOTAL FREE ENERGY PREDICTED BY IDOCK:  -10.59 KCAL/MOL
REMARK 923 INTER-LIGAND FREE ENERGY PREDICTED BY IDOCK:   -9.25 KCAL/MOL
REMARK 924 INTRA-LIGAND FREE ENERGY PREDICTED BY IDOCK:   -1.34 KCAL/MOL
REMARK 927      BINDING AFFINITY PREDICTED BY RF-SCORE:    0.00 PKD
ROOT
HETATM    1  C   UNL     1     -12.457  15.649  74.529  1.00  0.00    -0.749 C  
HETATM    2  C   UNL     1     -12.994  15.921  73.133  1.00  0.00    -0.549 C  
ENDROOT
BRANCH   2   3
HETATM    3  O   UNL     1     -11.910  16.273  72.264  1.00  0.00    -0.510 OA 
BRANCH   3   4
HETATM    4  C   UNL     1     -11.829  15.537  71.109  1.00  0.00    -0.387 A  
HETATM    5  C   UNL     1     -11.331  16.203  69.990  1.00  0.00    -0.332 A  
HETATM    6  C   UNL     1     -11.363  15.599  68.726  1.00  0.00    -0.351 A  
HETATM    7  C   UNL     1     -11.902  14.311  68.563  1.00  0.00    -0.382 A  
HETATM    8  C   UNL     1     -12.276  13.604  69.716  1.00  0.00    -0.350 A  
HETATM    9  C   UNL     1     -12.234  14.209  70.980  1.00  0.00    -0.432 A  
BRANCH   7  10
HETATM   10  C   UNL     1     -12.268  13.794  67.181  1.00  0.00    -0.352 C  
BRANCH  10  11
HETATM   11  C   UNL     1     -11.375  12.784  66.496  1.00  0.00    -0.369 A  
HETATM   12  C   UNL     1     -11.232  11.512  67.067  1.00  0.00    -0.365 A  
HETATM   13  C   UNL     1     -10.406  10.507  66.500  1.00  0.00    -0.294 A  
HETATM   14 CL   UNL     1     -10.639  14.593  64.580  1.00  0.00    -0.362 Cl 
HETATM   15  C   UNL     1      -9.900  10.719  65.219  1.00  0.00    -0.329 A  
HETATM   16  C   UNL     1     -10.042  11.978  64.624  1.00  0.00    -0.291 A  
HETATM   17  C   UNL     1     -10.712  13.018  65.288  1.00  0.00    -0.299 A  
BRANCH  13  18
HETATM   18  C   UNL     1      -9.871   9.424  67.420  1.00  0.00    -0.172 C  
HETATM   19  C   UNL     1     -10.684   7.288  67.304  1.00  0.00    -0.321 C  
HETATM   20  C   UNL     1     -10.342   7.661  68.729  1.00  0.00    -0.204 C  
HETATM   21  O   UNL     1      -9.950   8.247  66.543  1.00  0.00    -0.259 OA 
HETATM   22  H   UNL     1      -6.630   8.858  66.972  1.00  0.00     0.000 HD 
HETATM   23  O   UNL     1     -10.637   9.086  68.636  1.00  0.00    -0.212 OA 
HETATM   24  C   UNL     1      -8.857   7.531  69.201  1.00  0.00    -0.136 C  
HETATM   25  O   UNL     1      -7.556   8.798  66.770  1.00  0.00    -0.088 OA 
HETATM   26  C   UNL     1      -8.097   8.879  69.116  1.00  0.00    -0.117 C  
HETATM   27  O   UNL     1      -8.202   6.474  68.500  1.00  0.00    -0.119 OA 
HETATM   28  H   UNL     1      -8.029  10.586  70.120  1.00  0.00     0.000 HD 
HETATM   29  H   UNL     1      -7.300   6.395  68.787  1.00  0.00     0.000 HD 
HETATM   30  O   UNL     1      -8.494   9.760  70.173  1.00  0.00    -0.189 OA 
HETATM   31  C   UNL     1      -8.343   9.523  67.753  1.00  0.00    -0.118 C  
BRANCH  20  32
HETATM   32  C   UNL     1     -11.185   6.743  69.643  1.00  0.00    -0.292 C  
HETATM   33  O   UNL     1     -10.692   5.402  69.720  1.00  0.00    -0.315 OA 
HETATM   34  H   UNL     1     -11.210   4.838  70.282  1.00  0.00     0.000 HD 
ENDBRANCH  20  32
ENDBRANCH  13  18
ENDBRANCH  10  11
ENDBRANCH   7  10
ENDBRANCH   3   4
ENDBRANCH   2   3
TORSDOF 6
ENDMDL
MODEL       16
REMARK 921   NORMALIZED FREE ENERGY PREDICTED BY IDOCK:   -6.99 KCAL/MOL
REMARK 922        TOTAL FREE ENERGY PREDICTED BY IDOCK:  -10.59 KCAL/MOL
REMARK 923 INTER-LIGAND FREE ENERGY PREDICTED BY IDOCK:   -9.69 KCAL/MOL
REMARK 924 INTRA-LIGAND FREE ENERGY PREDICTED BY IDOCK:   -0.90 KCAL/MOL
REMARK 927      BINDING AFFINITY PREDICTED BY RF-SCORE:    0.00 PKD
ROOT
HETATM    1  C   UNL     1     -12.474  15.622  74.008  1.00  0.00    -0.785 C  
HETATM    2  C   UNL     1     -13.544  15.147  73.038  1.00  0.00    -0.386 C  
ENDROOT
BRANCH   2   3
HETATM    3  O   UNL     1     -13.283  13.787  72.667  1.00  0.00    -0.502 OA 
BRANCH   3   4
HETATM    4  C   UNL     1     -12.890  13.604  71.366  1.00  0.00    -0.360 A  
HETATM    5  C   UNL     1     -12.456  12.323  71.029  1.00  0.00    -0.361 A  
HETATM    6  C   UNL     1     -11.878  12.070  69.778  1.00  0.00    -0.401 A  
HETATM    7  C   UNL     1     -11.722  13.106  68.841  1.00  0.00    -0.368 A  
HETATM    8  C   UNL     1     -12.283  14.356  69.143  1.00  0.00    -0.255 A  
HETATM    9  C   UNL     1     -12.868  14.603  70.393  1.00  0.00    -0.321 A  
BRANCH   7  10
HETATM   10  C   UNL     1     -10.794  12.938  67.648  1.00  0.00    -0.252 C  
BRANCH  10  11
HETATM   11  C   UNL     1      -9.539  13.775  67.549  1.00  0.00    -0.219 A  
HETATM   12  C   UNL     1      -9.642  15.167  67.682  1.00  0.00    -0.206 A  
HETATM   13  C   UNL     1      -8.519  16.030  67.591  1.00  0.00    -0.169 A  
HETATM   14 CL   UNL     1      -8.003  11.577  67.005  1.00  0.00    -0.155 Cl 
HETATM   15  C   UNL     1      -7.249  15.457  67.591  1.00  0.00    -0.206 A  
HETATM   16  C   UNL     1      -7.122  14.068  67.471  1.00  0.00    -0.179 A  
HETATM   17  C   UNL     1      -8.256  13.246  67.381  1.00  0.00    -0.183 A  
BRANCH  13  18
HETATM   18  C   UNL     1      -8.764  17.473  67.187  1.00  0.00    -0.237 C  
HETATM   19  C   UNL     1      -7.159  18.659  66.067  1.00  0.00    -0.267 C  
HETATM   20  C   UNL     1      -7.928  19.550  67.018  1.00  0.00    -0.268 C  
HETATM   21  O   UNL     1      -8.029  17.537  65.916  1.00  0.00    -0.527 OA 
HETATM   22  H   UNL     1     -11.321  17.794  65.093  1.00  0.00     0.000 HD 
HETATM   23  O   UNL     1      -8.216  18.548  68.037  1.00  0.00    -0.256 OA 
HETATM   24  C   UNL     1      -9.301  20.136  66.551  1.00  0.00    -0.356 C  
HETATM   25  O   UNL     1     -10.428  17.590  65.346  1.00  0.00    -0.647 OA 
HETATM   26  C   UNL     1     -10.498  19.289  67.052  1.00  0.00    -0.456 C  
HETATM   27  O   UNL     1      -9.305  20.329  65.137  1.00  0.00    -0.196 OA 
HETATM   28  H   UNL     1     -11.464  18.985  68.755  1.00  0.00     0.000 HD 
HETATM   29  H   UNL     1     -10.138  20.684  64.853  1.00  0.00     0.000 HD 
HETATM   30  O   UNL     1     -10.731  19.505  68.449  1.00  0.00    -0.233 OA 
HETATM   31  C   UNL     1     -10.236  17.810  66.769  1.00  0.00    -0.351 C  
BRANCH  20  32
HETATM   32  C   UNL     1      -7.012  20.754  67.337  1.00  0.00    -0.364 C  
HETATM   33  O   UNL     1      -5.875  20.415  68.135  1.00  0.00    -0.222 OA 
HETATM   34  H   UNL     1      -5.313  21.155  68.331  1.00  0.00     0.000 HD 
ENDBRANCH  20  32
ENDBRANCH  13  18
ENDBRANCH  10  11
ENDBRANCH   7  10
ENDBRANCH   3   4
ENDBRANCH   2   3
TORSDOF 6
ENDMDL
MODEL       17
REMARK 921   NORMALIZED FREE ENERGY PREDICTED BY IDOCK:   -6.99 KCAL/MOL
REMARK 922        TOTAL FREE ENERGY PREDICTED BY IDOCK:  -10.59 KCAL/MOL
REMARK 923 INTER-LIGAND FREE ENERGY PREDICTED BY IDOCK:   -9.22 KCAL/MOL
REMARK 924 INTRA-LIGAND FREE ENERGY PREDICTED BY IDOCK:   -1.36 KCAL/MOL
REMARK 927      BINDING AFFINITY PREDICTED BY RF-SCORE:    0.00 PKD
ROOT
HETATM    1  C   UNL     1      -9.760   2.245  63.794  1.00  0.00    -0.131 C  
HETATM    2  C   UNL     1     -10.020   3.697  64.166  1.00  0.00    -0.192 C  
ENDROOT
BRANCH   2   3
HETATM    3  O   UNL     1      -8.969   4.167  65.019  1.00  0.00    -0.125 OA 
BRANCH   3   4
HETATM    4  C   UNL     1      -9.345   5.114  65.937  1.00  0.00    -0.159 A  
HETATM    5  C   UNL     1      -8.326   5.923  66.438  1.00  0.00    -0.114 A  
HETATM    6  C   UNL     1      -8.571   6.805  67.499  1.00  0.00    -0.120 A  
HETATM    7  C   UNL     1      -9.848   6.889  68.078  1.00  0.00    -0.153 A  
HETATM    8  C   UNL     1     -10.892   6.170  67.477  1.00  0.00    -0.422 A  
HETATM    9  C   UNL     1     -10.644   5.293  66.410  1.00  0.00    -0.338 A  
BRANCH   7  10
HETATM   10  C   UNL     1     -10.044   7.558  69.429  1.00  0.00    -0.190 C  
BRANCH  10  11
HETATM   11  C   UNL     1     -10.693   8.922  69.506  1.00  0.00    -0.206 A  
HETATM   12  C   UNL     1     -10.903   9.637  68.319  1.00  0.00    -0.230 A  
HETATM   13  C   UNL     1     -11.493  10.928  68.298  1.00  0.00    -0.376 A  
HETATM   14 CL   UNL     1     -10.780   8.831  72.239  1.00  0.00    -0.388 Cl 
HETATM   15  C   UNL     1     -12.083  11.399  69.469  1.00  0.00    -0.370 A  
HETATM   16  C   UNL     1     -11.896  10.694  70.663  1.00  0.00    -0.463 A  
HETATM   17  C   UNL     1     -11.149   9.506  70.690  1.00  0.00    -0.300 A  
BRANCH  13  18
HETATM   18  C   UNL     1     -11.179  11.833  67.120  1.00  0.00    -0.316 C  
HETATM   19  C   UNL     1     -11.785  14.040  67.151  1.00  0.00    -0.393 C  
HETATM   20  C   UNL     1     -11.895  13.466  65.755  1.00  0.00    -0.377 C  
HETATM   21  O   UNL     1     -10.925  13.108  67.807  1.00  0.00    -0.240 OA 
HETATM   22  H   UNL     1      -7.917  12.113  66.563  1.00  0.00     0.000 HD 
HETATM   23  O   UNL     1     -12.240  12.100  66.130  1.00  0.00    -0.611 OA 
HETATM   24  C   UNL     1     -10.604  13.387  64.874  1.00  0.00    -0.385 C  
HETATM   25  O   UNL     1      -8.740  12.292  67.004  1.00  0.00    -0.188 OA 
HETATM   26  C   UNL     1      -9.940  11.988  64.938  1.00  0.00    -0.227 C  
HETATM   27  O   UNL     1      -9.708  14.447  65.207  1.00  0.00    -0.540 OA 
HETATM   28  H   UNL     1     -10.275  10.175  64.210  1.00  0.00     0.000 HD 
HETATM   29  H   UNL     1      -8.925  14.398  64.673  1.00  0.00     0.000 HD 
HETATM   30  O   UNL     1     -10.682  11.032  64.171  1.00  0.00    -0.378 OA 
HETATM   31  C   UNL     1      -9.822  11.539  66.393  1.00  0.00    -0.205 C  
BRANCH  20  32
HETATM   32  C   UNL     1     -12.905  14.351  64.990  1.00  0.00    -0.107 C  
HETATM   33  O   UNL     1     -12.327  15.062  63.891  1.00  0.00    -0.977 OA 
HETATM   34  H   UNL     1     -12.948  15.606  63.421  1.00  0.00     0.000 HD 
ENDBRANCH  20  32
ENDBRANCH  13  18
ENDBRANCH  10  11
ENDBRANCH   7  10
ENDBRANCH   3   4
ENDBRANCH   2   3
TORSDOF 6
ENDMDL
MODEL       18
REMARK 921   NORMALIZED FREE ENERGY PREDICTED BY IDOCK:   -6.94 KCAL/MOL
REMARK 922        TOTAL FREE ENERGY PREDICTED BY IDOCK:  -10.51 KCAL/MOL
REMARK 923 INTER-LIGAND FREE ENERGY PREDICTED BY IDOCK:   -9.19 KCAL/MOL
REMARK 924 INTRA-LIGAND FREE ENERGY PREDICTED BY IDOCK:   -1.32 KCAL/MOL
REMARK 927      BINDING AFFINITY PREDICTED BY RF-SCORE:    0.00 PKD
ROOT
HETATM    1  C   UNL     1      -8.118   5.980  66.160  1.00  0.00    -0.110 C  
HETATM    2  C   UNL     1      -9.106   7.075  66.527  1.00  0.00    -0.156 C  
ENDROOT
BRANCH   2   3
HETATM    3  O   UNL     1      -8.977   8.165  65.605  1.00  0.00    -0.158 OA 
BRANCH   3   4
HETATM    4  C   UNL     1      -9.560   9.339  66.008  1.00  0.00    -0.270 A  
HETATM    5  C   UNL     1      -9.885   9.432  67.361  1.00  0.00    -0.222 A  
HETATM    6  C   UNL     1     -10.632  10.514  67.843  1.00  0.00    -0.271 A  
HETATM    7  C   UNL     1     -11.071  11.525  66.971  1.00  0.00    -0.365 A  
HETATM    8  C   UNL     1     -10.623  11.487  65.642  1.00  0.00    -0.326 A  
HETATM    9  C   UNL     1      -9.869  10.406  65.165  1.00  0.00    -0.378 A  
BRANCH   7  10
HETATM   10  C   UNL     1     -12.160  12.497  67.397  1.00  0.00    -0.121 C  
BRANCH  10  11
HETATM   11  C   UNL     1     -11.823  13.645  68.321  1.00  0.00    -0.404 A  
HETATM   12  C   UNL     1     -11.432  14.869  67.763  1.00  0.00    -0.353 A  
HETATM   13  C   UNL     1     -11.086  15.996  68.554  1.00  0.00    -0.347 A  
HETATM   14 CL   UNL     1     -12.202  12.092  70.542  1.00  0.00    -0.446 Cl 
HETATM   15  C   UNL     1     -11.361  15.948  69.920  1.00  0.00    -0.348 A  
HETATM   16  C   UNL     1     -11.765  14.739  70.496  1.00  0.00    -0.350 A  
HETATM   17  C   UNL     1     -11.926  13.584  69.714  1.00  0.00    -0.340 A  
BRANCH  13  18
HETATM   18  C   UNL     1     -10.170  17.040  67.942  1.00  0.00    -0.317 C  
HETATM   19  C   UNL     1      -7.966  17.156  68.545  1.00  0.00    -0.259 C  
HETATM   20  C   UNL     1      -8.527  18.534  68.275  1.00  0.00    -0.318 C  
HETATM   21  O   UNL     1      -8.900  16.301  67.887  1.00  0.00    -0.181 OA 
HETATM   22  H   UNL     1      -9.875  16.702  64.651  1.00  0.00     0.000 HD 
HETATM   23  O   UNL     1      -9.897  18.276  68.701  1.00  0.00    -0.350 OA 
HETATM   24  C   UNL     1      -8.595  19.038  66.795  1.00  0.00    -0.304 C  
HETATM   25  O   UNL     1      -9.703  16.496  65.563  1.00  0.00    -0.524 OA 
HETATM   26  C   UNL     1      -9.993  18.810  66.165  1.00  0.00    -0.345 C  
HETATM   27  O   UNL     1      -7.535  18.470  66.026  1.00  0.00    -0.331 OA 
HETATM   28  H   UNL     1     -11.800  19.615  66.284  1.00  0.00     0.000 HD 
HETATM   29  H   UNL     1      -7.577  18.776  65.129  1.00  0.00     0.000 HD 
HETATM   30  O   UNL     1     -10.944  19.755  66.670  1.00  0.00    -0.417 OA 
HETATM   31  C   UNL     1     -10.454  17.380  66.438  1.00  0.00    -0.267 C  
BRANCH  20  32
HETATM   32  C   UNL     1      -7.639  19.535  69.048  1.00  0.00    -0.321 C  
HETATM   33  O   UNL     1      -6.713  20.241  68.218  1.00  0.00    -0.288 OA 
HETATM   34  H   UNL     1      -6.167  20.856  68.693  1.00  0.00     0.000 HD 
ENDBRANCH  20  32
ENDBRANCH  13  18
ENDBRANCH  10  11
ENDBRANCH   7  10
ENDBRANCH   3   4
ENDBRANCH   2   3
TORSDOF 6
ENDMDL
MODEL       19
REMARK 921   NORMALIZED FREE ENERGY PREDICTED BY IDOCK:   -6.90 KCAL/MOL
REMARK 922        TOTAL FREE ENERGY PREDICTED BY IDOCK:  -10.46 KCAL/MOL
REMARK 923 INTER-LIGAND FREE ENERGY PREDICTED BY IDOCK:   -9.74 KCAL/MOL
REMARK 924 INTRA-LIGAND FREE ENERGY PREDICTED BY IDOCK:   -0.71 KCAL/MOL
REMARK 927      BINDING AFFINITY PREDICTED BY RF-SCORE:    0.00 PKD
ROOT
HETATM    1  C   UNL     1     -13.878  15.516  72.762  1.00  0.00    -0.606 C  
HETATM    2  C   UNL     1     -14.267  14.245  72.023  1.00  0.00    -0.542 C  
ENDROOT
BRANCH   2   3
HETATM    3  O   UNL     1     -13.792  13.105  72.750  1.00  0.00    -0.648 OA 
BRANCH   3   4
HETATM    4  C   UNL     1     -13.253  12.107  71.978  1.00  0.00    -0.391 A  
HETATM    5  C   UNL     1     -13.527  10.802  72.383  1.00  0.00     0.133 A  
HETATM    6  C   UNL     1     -12.890   9.715  71.768  1.00  0.00    -0.514 A  
HETATM    7  C   UNL     1     -11.961   9.923  70.734  1.00  0.00    -0.410 A  
HETATM    8  C   UNL     1     -11.797  11.229  70.250  1.00  0.00    -0.446 A  
HETATM    9  C   UNL     1     -12.442  12.313  70.862  1.00  0.00    -0.371 A  
BRANCH   7  10
HETATM   10  C   UNL     1     -11.015   8.811  70.309  1.00  0.00    -0.255 C  
BRANCH  10  11
HETATM   11  C   UNL     1     -10.627   8.671  68.854  1.00  0.00    -0.166 A  
HETATM   12  C   UNL     1     -10.404   9.830  68.099  1.00  0.00    -0.241 A  
HETATM   13  C   UNL     1     -10.049   9.793  66.726  1.00  0.00    -0.295 A  
HETATM   14 CL   UNL     1     -10.851   5.946  68.960  1.00  0.00    -0.386 Cl 
HETATM   15  C   UNL     1      -9.693   8.564  66.173  1.00  0.00    -0.259 A  
HETATM   16  C   UNL     1      -9.896   7.394  66.913  1.00  0.00    -0.284 A  
HETATM   17  C   UNL     1     -10.422   7.446  68.214  1.00  0.00    -0.189 A  
BRANCH  13  18
HETATM   18  C   UNL     1     -10.373  11.008  65.875  1.00  0.00    -0.257 C  
HETATM   19  C   UNL     1      -9.688  13.096  66.514  1.00  0.00    -0.268 C  
HETATM   20  C   UNL     1     -11.035  13.153  65.827  1.00  0.00    -0.277 C  
HETATM   21  O   UNL     1      -9.175  11.832  66.095  1.00  0.00    -0.219 OA 
HETATM   22  H   UNL     1      -9.025  10.836  62.844  1.00  0.00     0.000 HD 
HETATM   23  O   UNL     1     -11.527  11.848  66.250  1.00  0.00    -0.350 OA 
HETATM   24  C   UNL     1     -11.077  13.175  64.263  1.00  0.00    -0.396 C  
HETATM   25  O   UNL     1      -9.032  10.984  63.783  1.00  0.00    -0.156 OA 
HETATM   26  C   UNL     1     -11.309  11.763  63.667  1.00  0.00    -0.436 C  
HETATM   27  O   UNL     1      -9.914  13.818  63.742  1.00  0.00    -0.234 OA 
HETATM   28  H   UNL     1     -12.813  10.489  63.465  1.00  0.00     0.000 HD 
HETATM   29  H   UNL     1      -9.940  13.831  62.793  1.00  0.00     0.000 HD 
HETATM   30  O   UNL     1     -12.672  11.354  63.830  1.00  0.00     0.038 OA 
HETATM   31  C   UNL     1     -10.361  10.763  64.327  1.00  0.00    -0.331 C  
BRANCH  20  32
HETATM   32  C   UNL     1     -11.725  14.448  66.311  1.00  0.00    -0.385 C  
HETATM   33  O   UNL     1     -12.348  14.322  67.593  1.00  0.00    -0.598 OA 
HETATM   34  H   UNL     1     -12.773  15.118  67.890  1.00  0.00     0.000 HD 
ENDBRANCH  20  32
ENDBRANCH  13  18
ENDBRANCH  10  11
ENDBRANCH   7  10
ENDBRANCH   3   4
ENDBRANCH   2   3
TORSDOF 6
ENDMDL
MODEL       20
REMARK 921   NORMALIZED FREE ENERGY PREDICTED BY IDOCK:   -6.84 KCAL/MOL
REMARK 922        TOTAL FREE ENERGY PREDICTED BY IDOCK:  -10.37 KCAL/MOL
REMARK 923 INTER-LIGAND FREE ENERGY PREDICTED BY IDOCK:   -9.03 KCAL/MOL
REMARK 924 INTRA-LIGAND FREE ENERGY PREDICTED BY IDOCK:   -1.34 KCAL/MOL
REMARK 927      BINDING AFFINITY PREDICTED BY RF-SCORE:    0.00 PKD
ROOT
HETATM    1  C   UNL     1      -9.791  20.423  67.182  1.00  0.00    -0.601 C  
HETATM    2  C   UNL     1     -10.742  19.237  67.150  1.00  0.00    -0.480 C  
ENDROOT
BRANCH   2   3
HETATM    3  O   UNL     1     -10.418  18.335  68.215  1.00  0.00    -0.358 OA 
BRANCH   3   4
HETATM    4  C   UNL     1     -10.636  17.009  67.940  1.00  0.00    -0.365 A  
HETATM    5  C   UNL     1     -10.288  16.582  66.659  1.00  0.00    -0.298 A  
HETATM    6  C   UNL     1     -10.622  15.294  66.220  1.00  0.00    -0.312 A  
HETATM    7  C   UNL     1     -11.317  14.410  67.063  1.00  0.00    -0.357 A  
HETATM    8  C   UNL     1     -11.541  14.805  68.390  1.00  0.00    -0.350 A  
HETATM    9  C   UNL     1     -11.198  16.092  68.828  1.00  0.00    -0.365 A  
BRANCH   7  10
HETATM   10  C   UNL     1     -11.990  13.169  66.498  1.00  0.00    -0.459 C  
BRANCH  10  11
HETATM   11  C   UNL     1     -11.225  11.867  66.426  1.00  0.00    -0.387 A  
HETATM   12  C   UNL     1     -11.286  10.987  67.515  1.00  0.00    -0.372 A  
HETATM   13  C   UNL     1     -10.591   9.750  67.540  1.00  0.00    -0.335 A  
HETATM   14 CL   UNL     1     -10.168  12.512  63.986  1.00  0.00    -0.409 Cl 
HETATM   15  C   UNL     1     -10.013   9.298  66.355  1.00  0.00    -0.356 A  
HETATM   16  C   UNL     1      -9.952  10.155  65.251  1.00  0.00    -0.381 A  
HETATM   17  C   UNL     1     -10.491  11.450  65.312  1.00  0.00    -0.283 A  
BRANCH  13  18
HETATM   18  C   UNL     1     -10.251   9.152  68.894  1.00  0.00    -0.207 C  
HETATM   19  C   UNL     1      -8.132   9.316  69.742  1.00  0.00    -0.120 C  
HETATM   20  C   UNL     1      -8.770   8.000  70.127  1.00  0.00    -0.135 C  
HETATM   21  O   UNL     1      -9.257  10.118  69.384  1.00  0.00    -0.197 OA 
HETATM   22  H   UNL     1     -11.995  10.524  71.365  1.00  0.00     0.000 HD 
HETATM   23  O   UNL     1      -9.600   7.829  68.940  1.00  0.00    -0.153 OA 
HETATM   24  C   UNL     1      -9.727   7.965  71.364  1.00  0.00    -0.164 C  
HETATM   25  O   UNL     1     -11.304  10.475  70.714  1.00  0.00    -0.327 OA 
HETATM   26  C   UNL     1     -11.217   8.080  70.952  1.00  0.00    -0.266 C  
HETATM   27  O   UNL     1      -9.335   8.945  72.325  1.00  0.00    -0.360 OA 
HETATM   28  H   UNL     1     -12.602   6.922  70.133  1.00  0.00     0.000 HD 
HETATM   29  H   UNL     1      -9.916   8.923  73.075  1.00  0.00     0.000 HD 
HETATM   30  O   UNL     1     -11.689   6.852  70.385  1.00  0.00    -0.342 OA 
HETATM   31  C   UNL     1     -11.391   9.233  69.966  1.00  0.00    -0.113 C  
BRANCH  20  32
HETATM   32  C   UNL     1      -7.615   7.017  70.426  1.00  0.00    -0.090 C  
HETATM   33  O   UNL     1      -7.631   6.504  71.761  1.00  0.00    -0.092 OA 
HETATM   34  H   UNL     1      -6.921   5.900  71.945  1.00  0.00     0.000 HD 
ENDBRANCH  20  32
ENDBRANCH  13  18
ENDBRANCH  10  11
ENDBRANCH   7  10
ENDBRANCH   3   4
ENDBRANCH   2   3
TORSDOF 6
ENDMDL
MODEL       21
REMARK 921   NORMALIZED FREE ENERGY PREDICTED BY IDOCK:   -6.82 KCAL/MOL
REMARK 922        TOTAL FREE ENERGY PREDICTED BY IDOCK:  -10.35 KCAL/MOL
REMARK 923 INTER-LIGAND FREE ENERGY PREDICTED BY IDOCK:   -9.24 KCAL/MOL
REMARK 924 INTRA-LIGAND FREE ENERGY PREDICTED BY IDOCK:   -1.10 KCAL/MOL
REMARK 927      BINDING AFFINITY PREDICTED BY RF-SCORE:    0.00 PKD
ROOT
HETATM    1  C   UNL     1     -12.642  15.653  73.928  1.00  0.00    -0.767 C  
HETATM    2  C   UNL     1     -13.447  15.207  72.717  1.00  0.00    -0.501 C  
ENDROOT
BRANCH   2   3
HETATM    3  O   UNL     1     -13.149  13.836  72.424  1.00  0.00    -0.415 OA 
BRANCH   3   4
HETATM    4  C   UNL     1     -12.709  13.598  71.147  1.00  0.00    -0.353 A  
HETATM    5  C   UNL     1     -12.376  12.277  70.849  1.00  0.00    -0.363 A  
HETATM    6  C   UNL     1     -11.760  11.953  69.632  1.00  0.00    -0.413 A  
HETATM    7  C   UNL     1     -11.464  12.955  68.692  1.00  0.00    -0.346 A  
HETATM    8  C   UNL     1     -11.925  14.255  68.949  1.00  0.00    -0.356 A  
HETATM    9  C   UNL     1     -12.548  14.573  70.164  1.00  0.00    -0.339 A  
BRANCH   7  10
HETATM   10  C   UNL     1     -10.496  12.684  67.552  1.00  0.00    -0.229 C  
BRANCH  10  11
HETATM   11  C   UNL     1      -9.164  13.398  67.512  1.00  0.00    -0.219 A  
HETATM   12  C   UNL     1      -9.140  14.793  67.644  1.00  0.00    -0.185 A  
HETATM   13  C   UNL     1      -7.937  15.545  67.606  1.00  0.00    -0.168 A  
HETATM   14 CL   UNL     1      -7.821  11.062  67.033  1.00  0.00    -0.131 Cl 
HETATM   15  C   UNL     1      -6.728  14.853  67.662  1.00  0.00    -0.200 A  
HETATM   16  C   UNL     1      -6.729  13.459  67.544  1.00  0.00    -0.151 A  
HETATM   17  C   UNL     1      -7.931  12.748  67.400  1.00  0.00    -0.179 A  
BRANCH  13  18
HETATM   18  C   UNL     1      -8.025  17.004  67.196  1.00  0.00    -0.188 C  
HETATM   19  C   UNL     1      -9.754  18.317  67.917  1.00  0.00    -0.303 C  
HETATM   20  C   UNL     1      -9.335  18.695  66.513  1.00  0.00    -0.320 C  
HETATM   21  O   UNL     1      -8.620  17.599  68.401  1.00  0.00    -0.270 OA 
HETATM   22  H   UNL     1      -5.432  18.784  68.264  1.00  0.00     0.000 HD 
HETATM   23  O   UNL     1      -8.909  17.372  66.073  1.00  0.00    -0.498 OA 
HETATM   24  C   UNL     1      -8.114  19.655  66.329  1.00  0.00    -0.334 C  
HETATM   25  O   UNL     1      -6.266  18.334  68.341  1.00  0.00    -0.188 OA 
HETATM   26  C   UNL     1      -6.799  18.881  66.057  1.00  0.00    -0.252 C  
HETATM   27  O   UNL     1      -8.016  20.553  67.434  1.00  0.00    -0.328 OA 
HETATM   28  H   UNL     1      -5.965  17.899  64.551  1.00  0.00     0.000 HD 
HETATM   29  H   UNL     1      -7.274  21.136  67.322  1.00  0.00     0.000 HD 
HETATM   30  O   UNL     1      -6.771  18.373  64.718  1.00  0.00    -0.276 OA 
HETATM   31  C   UNL     1      -6.650  17.747  67.069  1.00  0.00    -0.163 C  
BRANCH  20  32
HETATM   32  C   UNL     1     -10.552  19.387  65.858  1.00  0.00    -0.459 C  
HETATM   33  O   UNL     1     -10.271  20.705  65.376  1.00  0.00    -0.346 OA 
HETATM   34  H   UNL     1     -11.019  21.130  64.974  1.00  0.00     0.000 HD 
ENDBRANCH  20  32
ENDBRANCH  13  18
ENDBRANCH  10  11
ENDBRANCH   7  10
ENDBRANCH   3   4
ENDBRANCH   2   3
TORSDOF 6
ENDMDL
MODEL       22
REMARK 921   NORMALIZED FREE ENERGY PREDICTED BY IDOCK:   -6.82 KCAL/MOL
REMARK 922        TOTAL FREE ENERGY PREDICTED BY IDOCK:  -10.34 KCAL/MOL
REMARK 923 INTER-LIGAND FREE ENERGY PREDICTED BY IDOCK:   -8.85 KCAL/MOL
REMARK 924 INTRA-LIGAND FREE ENERGY PREDICTED BY IDOCK:   -1.49 KCAL/MOL
REMARK 927      BINDING AFFINITY PREDICTED BY RF-SCORE:    0.00 PKD
ROOT
HETATM    1  C   UNL     1      -9.014   8.510  70.851  1.00  0.00    -0.206 C  
HETATM    2  C   UNL     1     -10.481   8.793  70.569  1.00  0.00    -0.209 C  
ENDROOT
BRANCH   2   3
HETATM    3  O   UNL     1     -10.851   8.198  69.318  1.00  0.00    -0.172 OA 
BRANCH   3   4
HETATM    4  C   UNL     1     -10.821   9.046  68.240  1.00  0.00    -0.017 A  
HETATM    5  C   UNL     1     -10.178   8.567  67.100  1.00  0.00    -0.355 A  
HETATM    6  C   UNL     1      -9.944   9.409  66.005  1.00  0.00    -0.352 A  
HETATM    7  C   UNL     1     -10.352  10.754  66.038  1.00  0.00    -0.300 A  
HETATM    8  C   UNL     1     -11.114  11.183  67.135  1.00  0.00    -0.352 A  
HETATM    9  C   UNL     1     -11.353  10.335  68.225  1.00  0.00    -0.245 A  
BRANCH   7  10
HETATM   10  C   UNL     1      -9.803  11.755  65.033  1.00  0.00    -0.257 C  
BRANCH  10  11
HETATM   11  C   UNL     1     -10.395  13.144  64.957  1.00  0.00    -0.346 A  
HETATM   12  C   UNL     1      -9.676  14.216  65.503  1.00  0.00    -0.166 A  
HETATM   13  C   UNL     1     -10.160  15.550  65.487  1.00  0.00    -0.406 A  
HETATM   14 CL   UNL     1     -12.685  12.206  63.788  1.00  0.00    -0.575 Cl 
HETATM   15  C   UNL     1     -11.280  15.832  64.706  1.00  0.00    -0.375 A  
HETATM   16  C   UNL     1     -12.007  14.778  64.142  1.00  0.00    -0.282 A  
HETATM   17  C   UNL     1     -11.605  13.445  64.325  1.00  0.00    -0.402 A  
BRANCH  13  18
HETATM   18  C   UNL     1      -9.637  16.508  66.542  1.00  0.00    -0.271 C  
HETATM   19  C   UNL     1      -7.451  17.184  66.523  1.00  0.00    -0.283 C  
HETATM   20  C   UNL     1      -7.962  17.041  67.939  1.00  0.00    -0.189 C  
HETATM   21  O   UNL     1      -8.654  17.274  65.761  1.00  0.00    -0.532 OA 
HETATM   22  H   UNL     1     -11.176  19.450  66.463  1.00  0.00     0.000 HD 
HETATM   23  O   UNL     1      -8.907  15.957  67.699  1.00  0.00    -0.172 OA 
HETATM   24  C   UNL     1      -8.773  18.224  68.565  1.00  0.00    -0.308 C  
HETATM   25  O   UNL     1     -10.559  18.787  66.177  1.00  0.00    -0.436 OA 
HETATM   26  C   UNL     1     -10.303  18.012  68.443  1.00  0.00    -0.368 C  
HETATM   27  O   UNL     1      -8.336  19.470  68.021  1.00  0.00    -0.304 OA 
HETATM   28  H   UNL     1     -11.699  16.899  69.304  1.00  0.00     0.000 HD 
HETATM   29  H   UNL     1      -8.828  20.188  68.401  1.00  0.00     0.000 HD 
HETATM   30  O   UNL     1     -10.761  17.029  69.379  1.00  0.00    -0.322 OA 
HETATM   31  C   UNL     1     -10.654  17.603  67.014  1.00  0.00    -0.254 C  
BRANCH  20  32
HETATM   32  C   UNL     1      -6.725  16.821  68.839  1.00  0.00    -0.195 C  
HETATM   33  O   UNL     1      -5.919  17.992  69.001  1.00  0.00    -0.200 OA 
HETATM   34  H   UNL     1      -5.158  17.856  69.554  1.00  0.00     0.000 HD 
ENDBRANCH  20  32
ENDBRANCH  13  18
ENDBRANCH  10  11
ENDBRANCH   7  10
ENDBRANCH   3   4
ENDBRANCH   2   3
TORSDOF 6
ENDMDL
MODEL       23
REMARK 921   NORMALIZED FREE ENERGY PREDICTED BY IDOCK:   -6.80 KCAL/MOL
REMARK 922        TOTAL FREE ENERGY PREDICTED BY IDOCK:  -10.32 KCAL/MOL
REMARK 923 INTER-LIGAND FREE ENERGY PREDICTED BY IDOCK:   -9.65 KCAL/MOL
REMARK 924 INTRA-LIGAND FREE ENERGY PREDICTED BY IDOCK:   -0.67 KCAL/MOL
REMARK 927      BINDING AFFINITY PREDICTED BY RF-SCORE:    0.00 PKD
ROOT
HETATM    1  C   UNL     1     -12.577  15.980  73.891  1.00  0.00    -0.730 C  
HETATM    2  C   UNL     1     -13.498  15.449  72.804  1.00  0.00    -0.538 C  
ENDROOT
BRANCH   2   3
HETATM    3  O   UNL     1     -13.831  14.083  73.084  1.00  0.00    -0.404 OA 
BRANCH   3   4
HETATM    4  C   UNL     1     -13.372  13.173  72.166  1.00  0.00    -0.524 A  
HETATM    5  C   UNL     1     -13.638  11.833  72.444  1.00  0.00     0.134 A  
HETATM    6  C   UNL     1     -13.071  10.816  71.664  1.00  0.00    -0.551 A  
HETATM    7  C   UNL     1     -12.221  11.129  70.589  1.00  0.00    -0.492 A  
HETATM    8  C   UNL     1     -12.071  12.480  70.241  1.00  0.00    -0.373 A  
HETATM    9  C   UNL     1     -12.647  13.495  71.019  1.00  0.00    -0.438 A  
BRANCH   7  10
HETATM   10  C   UNL     1     -11.332  10.064  69.970  1.00  0.00    -0.334 C  
BRANCH  10  11
HETATM   11  C   UNL     1     -10.797  10.253  68.568  1.00  0.00    -0.281 A  
HETATM   12  C   UNL     1     -10.636  11.555  68.076  1.00  0.00    -0.222 A  
HETATM   13  C   UNL     1     -10.153  11.826  66.770  1.00  0.00    -0.235 A  
HETATM   14 CL   UNL     1     -10.727   7.553  68.129  1.00  0.00    -0.190 Cl 
HETATM   15  C   UNL     1      -9.614  10.769  66.037  1.00  0.00    -0.244 A  
HETATM   16  C   UNL     1      -9.753   9.462  66.515  1.00  0.00    -0.299 A  
HETATM   17  C   UNL     1     -10.401   9.204  67.734  1.00  0.00    -0.245 A  
BRANCH  13  18
HETATM   18  C   UNL     1     -10.529  13.152  66.134  1.00  0.00    -0.281 C  
HETATM   19  C   UNL     1      -9.174  14.982  66.363  1.00  0.00    -0.295 C  
HETATM   20  C   UNL     1     -10.632  15.385  66.352  1.00  0.00    -0.307 C  
HETATM   21  O   UNL     1      -9.203  13.679  65.780  1.00  0.00     0.064 OA 
HETATM   22  H   UNL     1     -10.732  12.965  62.824  1.00  0.00     0.000 HD 
HETATM   23  O   UNL     1     -11.174  14.182  66.972  1.00  0.00    -0.299 OA 
HETATM   24  C   UNL     1     -11.352  15.553  64.973  1.00  0.00    -0.299 C  
HETATM   25  O   UNL     1     -10.291  13.029  63.664  1.00  0.00    -0.305 OA 
HETATM   26  C   UNL     1     -12.140  14.281  64.567  1.00  0.00    -0.480 C  
HETATM   27  O   UNL     1     -10.424  15.977  63.975  1.00  0.00    -0.014 OA 
HETATM   28  H   UNL     1     -13.828  13.379  65.083  1.00  0.00     0.000 HD 
HETATM   29  H   UNL     1     -10.861  16.079  63.138  1.00  0.00     0.000 HD 
HETATM   30  O   UNL     1     -13.345  14.159  65.331  1.00  0.00    -0.705 OA 
HETATM   31  C   UNL     1     -11.256  13.048  64.750  1.00  0.00    -0.317 C  
BRANCH  20  32
HETATM   32  C   UNL     1     -10.722  16.749  67.072  1.00  0.00    -0.161 C  
HETATM   33  O   UNL     1     -10.746  17.868  66.181  1.00  0.00    -0.285 OA 
HETATM   34  H   UNL     1     -10.801  18.706  66.625  1.00  0.00     0.000 HD 
ENDBRANCH  20  32
ENDBRANCH  13  18
ENDBRANCH  10  11
ENDBRANCH   7  10
ENDBRANCH   3   4
ENDBRANCH   2   3
TORSDOF 6
ENDMDL
MODEL       24
REMARK 921   NORMALIZED FREE ENERGY PREDICTED BY IDOCK:   -6.80 KCAL/MOL
REMARK 922        TOTAL FREE ENERGY PREDICTED BY IDOCK:  -10.32 KCAL/MOL
REMARK 923 INTER-LIGAND FREE ENERGY PREDICTED BY IDOCK:   -9.00 KCAL/MOL
REMARK 924 INTRA-LIGAND FREE ENERGY PREDICTED BY IDOCK:   -1.32 KCAL/MOL
REMARK 927      BINDING AFFINITY PREDICTED BY RF-SCORE:    0.00 PKD
ROOT
HETATM    1  C   UNL     1      -9.576   2.602  63.180  1.00  0.00    -0.095 C  
HETATM    2  C   UNL     1     -10.012   3.855  63.922  1.00  0.00    -0.180 C  
ENDROOT
BRANCH   2   3
HETATM    3  O   UNL     1      -8.956   4.290  64.788  1.00  0.00    -0.132 OA 
BRANCH   3   4
HETATM    4  C   UNL     1      -9.319   5.227  65.722  1.00  0.00    -0.139 A  
HETATM    5  C   UNL     1      -8.359   6.189  66.032  1.00  0.00    -0.136 A  
HETATM    6  C   UNL     1      -8.563   7.087  67.089  1.00  0.00    -0.121 A  
HETATM    7  C   UNL     1      -9.738   7.030  67.858  1.00  0.00    -0.141 A  
HETATM    8  C   UNL     1     -10.749   6.147  67.450  1.00  0.00    -0.403 A  
HETATM    9  C   UNL     1     -10.545   5.256  66.387  1.00  0.00    -0.338 A  
BRANCH   7  10
HETATM   10  C   UNL     1      -9.820   7.738  69.201  1.00  0.00    -0.173 C  
BRANCH  10  11
HETATM   11  C   UNL     1     -10.505   9.082  69.301  1.00  0.00    -0.238 A  
HETATM   12  C   UNL     1     -10.816   9.772  68.121  1.00  0.00    -0.264 A  
HETATM   13  C   UNL     1     -11.447  11.043  68.121  1.00  0.00    -0.374 A  
HETATM   14 CL   UNL     1     -10.407   9.034  72.035  1.00  0.00    -0.378 Cl 
HETATM   15  C   UNL     1     -11.972  11.515  69.323  1.00  0.00    -0.397 A  
HETATM   16  C   UNL     1     -11.684  10.836  70.512  1.00  0.00    -0.449 A  
HETATM   17  C   UNL     1     -10.900   9.671  70.505  1.00  0.00    -0.309 A  
BRANCH  13  18
HETATM   18  C   UNL     1     -11.241  11.938  66.912  1.00  0.00    -0.325 C  
HETATM   19  C   UNL     1      -9.690  13.620  66.955  1.00  0.00    -0.251 C  
HETATM   20  C   UNL     1     -10.903  14.021  66.144  1.00  0.00    -0.291 C  
HETATM   21  O   UNL     1      -9.797  12.197  66.998  1.00  0.00    -0.200 OA 
HETATM   22  H   UNL     1     -10.224  10.251  64.238  1.00  0.00     0.000 HD 
HETATM   23  O   UNL     1     -11.898  13.259  66.889  1.00  0.00    -0.364 OA 
HETATM   24  C   UNL     1     -10.993  13.557  64.653  1.00  0.00    -0.385 C  
HETATM   25  O   UNL     1     -10.129  10.680  65.081  1.00  0.00    -0.275 OA 
HETATM   26  C   UNL     1     -11.840  12.270  64.492  1.00  0.00    -0.369 C  
HETATM   27  O   UNL     1      -9.687  13.442  64.088  1.00  0.00    -0.654 OA 
HETATM   28  H   UNL     1     -13.757  11.765  64.528  1.00  0.00     0.000 HD 
HETATM   29  H   UNL     1      -9.742  13.161  63.182  1.00  0.00     0.000 HD 
HETATM   30  O   UNL     1     -13.238  12.554  64.627  1.00  0.00    -0.848 OA 
HETATM   31  C   UNL     1     -11.399  11.231  65.522  1.00  0.00     0.096 C  
BRANCH  20  32
HETATM   32  C   UNL     1     -10.940  15.566  66.136  1.00  0.00    -0.247 C  
HETATM   33  O   UNL     1     -10.620  16.140  64.866  1.00  0.00    -0.622 OA 
HETATM   34  H   UNL     1     -10.643  17.090  64.861  1.00  0.00     0.000 HD 
ENDBRANCH  20  32
ENDBRANCH  13  18
ENDBRANCH  10  11
ENDBRANCH   7  10
ENDBRANCH   3   4
ENDBRANCH   2   3
TORSDOF 6
ENDMDL
MODEL       25
REMARK 921   NORMALIZED FREE ENERGY PREDICTED BY IDOCK:   -6.79 KCAL/MOL
REMARK 922        TOTAL FREE ENERGY PREDICTED BY IDOCK:  -10.31 KCAL/MOL
REMARK 923 INTER-LIGAND FREE ENERGY PREDICTED BY IDOCK:   -9.31 KCAL/MOL
REMARK 924 INTRA-LIGAND FREE ENERGY PREDICTED BY IDOCK:   -1.00 KCAL/MOL
REMARK 927      BINDING AFFINITY PREDICTED BY RF-SCORE:    0.00 PKD
ROOT
HETATM    1  C   UNL     1     -13.990   7.809  71.700  1.00  0.00    -0.495 C  
HETATM    2  C   UNL     1     -12.969   8.827  72.181  1.00  0.00    -0.406 C  
ENDROOT
BRANCH   2   3
HETATM    3  O   UNL     1     -13.532  10.143  72.102  1.00  0.00    -0.411 OA 
BRANCH   3   4
HETATM    4  C   UNL     1     -12.918  10.985  71.210  1.00  0.00    -0.372 A  
HETATM    5  C   UNL     1     -12.956  12.343  71.522  1.00  0.00    -0.385 A  
HETATM    6  C   UNL     1     -12.510  13.301  70.601  1.00  0.00    -0.373 A  
HETATM    7  C   UNL     1     -12.019  12.908  69.344  1.00  0.00    -0.327 A  
HETATM    8  C   UNL     1     -11.863  11.535  69.098  1.00  0.00    -0.406 A  
HETATM    9  C   UNL     1     -12.303  10.581  70.026  1.00  0.00    -0.290 A  
BRANCH   7  10
HETATM   10  C   UNL     1     -11.870  13.920  68.220  1.00  0.00    -0.412 C  
BRANCH  10  11
HETATM   11  C   UNL     1     -10.490  14.347  67.771  1.00  0.00    -0.245 A  
HETATM   12  C   UNL     1     -10.009  15.602  68.167  1.00  0.00    -0.217 A  
HETATM   13  C   UNL     1      -8.733  16.089  67.782  1.00  0.00    -0.170 A  
HETATM   14 CL   UNL     1     -10.161  12.065  66.297  1.00  0.00    -0.242 Cl 
HETATM   15  C   UNL     1      -7.845  15.199  67.179  1.00  0.00    -0.240 A  
HETATM   16  C   UNL     1      -8.301  13.936  66.786  1.00  0.00     0.081 A  
HETATM   17  C   UNL     1      -9.629  13.544  67.018  1.00  0.00    -0.248 A  
BRANCH  13  18
HETATM   18  C   UNL     1      -8.523  17.593  67.760  1.00  0.00    -0.227 C  
HETATM   19  C   UNL     1      -6.493  18.479  67.186  1.00  0.00    -0.183 C  
HETATM   20  C   UNL     1      -7.167  19.314  68.252  1.00  0.00    -0.281 C  
HETATM   21  O   UNL     1      -7.578  17.727  66.642  1.00  0.00    -0.204 OA 
HETATM   22  H   UNL     1     -10.489  19.120  65.562  1.00  0.00     0.000 HD 
HETATM   23  O   UNL     1      -7.882  18.235  68.924  1.00  0.00    -0.281 OA 
HETATM   24  C   UNL     1      -8.237  20.368  67.812  1.00  0.00    -0.175 C  
HETATM   25  O   UNL     1      -9.740  18.610  65.848  1.00  0.00    -0.498 OA 
HETATM   26  C   UNL     1      -9.681  19.818  67.931  1.00  0.00    -0.389 C  
HETATM   27  O   UNL     1      -7.935  20.871  66.511  1.00  0.00    -0.523 OA 
HETATM   28  H   UNL     1     -10.985  19.430  69.372  1.00  0.00     0.000 HD 
HETATM   29  H   UNL     1      -8.584  21.511  66.245  1.00  0.00     0.000 HD 
HETATM   30  O   UNL     1     -10.100  19.767  69.300  1.00  0.00    -0.417 OA 
HETATM   31  C   UNL     1      -9.759  18.434  67.290  1.00  0.00    -0.297 C  
BRANCH  20  32
HETATM   32  C   UNL     1      -6.048  20.090  68.982  1.00  0.00    -0.296 C  
HETATM   33  O   UNL     1      -6.425  20.553  70.282  1.00  0.00    -0.381 OA 
HETATM   34  H   UNL     1      -5.737  21.030  70.731  1.00  0.00     0.000 HD 
ENDBRANCH  20  32
ENDBRANCH  13  18
ENDBRANCH  10  11
ENDBRANCH   7  10
ENDBRANCH   3   4
ENDBRANCH   2   3
TORSDOF 6
ENDMDL
MODEL       26
REMARK 921   NORMALIZED FREE ENERGY PREDICTED BY IDOCK:   -6.78 KCAL/MOL
REMARK 922        TOTAL FREE ENERGY PREDICTED BY IDOCK:  -10.30 KCAL/MOL
REMARK 923 INTER-LIGAND FREE ENERGY PREDICTED BY IDOCK:   -8.95 KCAL/MOL
REMARK 924 INTRA-LIGAND FREE ENERGY PREDICTED BY IDOCK:   -1.35 KCAL/MOL
REMARK 927      BINDING AFFINITY PREDICTED BY RF-SCORE:    0.00 PKD
ROOT
HETATM    1  C   UNL     1      -9.741  20.219  67.330  1.00  0.00    -0.590 C  
HETATM    2  C   UNL     1     -10.728  19.062  67.346  1.00  0.00    -0.473 C  
ENDROOT
BRANCH   2   3
HETATM    3  O   UNL     1     -10.412  18.179  68.429  1.00  0.00    -0.359 OA 
BRANCH   3   4
HETATM    4  C   UNL     1     -10.662  16.852  68.189  1.00  0.00    -0.375 A  
HETATM    5  C   UNL     1     -10.191  16.348  66.977  1.00  0.00    -0.282 A  
HETATM    6  C   UNL     1     -10.536  15.056  66.559  1.00  0.00    -0.305 A  
HETATM    7  C   UNL     1     -11.367  14.246  67.352  1.00  0.00    -0.349 A  
HETATM    8  C   UNL     1     -11.722  14.716  68.626  1.00  0.00    -0.362 A  
HETATM    9  C   UNL     1     -11.368  16.007  69.044  1.00  0.00    -0.363 A  
BRANCH   7  10
HETATM   10  C   UNL     1     -12.031  13.010  66.767  1.00  0.00    -0.434 C  
BRANCH  10  11
HETATM   11  C   UNL     1     -11.236  11.734  66.607  1.00  0.00    -0.383 A  
HETATM   12  C   UNL     1     -11.286  10.774  67.627  1.00  0.00    -0.328 A  
HETATM   13  C   UNL     1     -10.563   9.554  67.566  1.00  0.00    -0.338 A  
HETATM   14 CL   UNL     1     -10.171  12.585  64.234  1.00  0.00    -0.365 Cl 
HETATM   15  C   UNL     1      -9.963   9.206  66.357  1.00  0.00    -0.358 A  
HETATM   16  C   UNL     1      -9.912  10.145  65.321  1.00  0.00    -0.381 A  
HETATM   17  C   UNL     1     -10.482  11.419  65.473  1.00  0.00    -0.268 A  
BRANCH  13  18
HETATM   18  C   UNL     1     -10.221   8.865  68.875  1.00  0.00    -0.206 C  
HETATM   19  C   UNL     1      -9.199   6.818  68.884  1.00  0.00    -0.131 C  
HETATM   20  C   UNL     1     -10.171   6.944  70.036  1.00  0.00    -0.196 C  
HETATM   21  O   UNL     1      -8.973   8.178  68.513  1.00  0.00    -0.137 OA 
HETATM   22  H   UNL     1      -8.080  10.615  70.715  1.00  0.00     0.000 HD 
HETATM   23  O   UNL     1     -11.134   7.824  69.386  1.00  0.00    -0.108 OA 
HETATM   24  C   UNL     1      -9.697   7.667  71.340  1.00  0.00    -0.163 C  
HETATM   25  O   UNL     1      -8.346  10.036  70.009  1.00  0.00    -0.188 OA 
HETATM   26  C   UNL     1     -10.127   9.156  71.371  1.00  0.00    -0.322 C  
HETATM   27  O   UNL     1      -8.293   7.486  71.528  1.00  0.00    -0.105 OA 
HETATM   28  H   UNL     1     -11.789  10.192  71.671  1.00  0.00     0.000 HD 
HETATM   29  H   UNL     1      -8.006   7.925  72.319  1.00  0.00     0.000 HD 
HETATM   30  O   UNL     1     -11.526   9.280  71.652  1.00  0.00    -0.355 OA 
HETATM   31  C   UNL     1      -9.782   9.819  70.039  1.00  0.00    -0.250 C  
BRANCH  20  32
HETATM   32  C   UNL     1     -10.568   5.506  70.441  1.00  0.00    -0.280 C  
HETATM   33  O   UNL     1     -10.244   5.181  71.796  1.00  0.00    -0.196 OA 
HETATM   34  H   UNL     1     -10.488   4.298  72.044  1.00  0.00     0.000 HD 
ENDBRANCH  20  32
ENDBRANCH  13  18
ENDBRANCH  10  11
ENDBRANCH   7  10
ENDBRANCH   3   4
ENDBRANCH   2   3
TORSDOF 6
ENDMDL
MODEL       27
REMARK 921   NORMALIZED FREE ENERGY PREDICTED BY IDOCK:   -6.78 KCAL/MOL
REMARK 922        TOTAL FREE ENERGY PREDICTED BY IDOCK:  -10.29 KCAL/MOL
REMARK 923 INTER-LIGAND FREE ENERGY PREDICTED BY IDOCK:   -8.92 KCAL/MOL
REMARK 924 INTRA-LIGAND FREE ENERGY PREDICTED BY IDOCK:   -1.38 KCAL/MOL
REMARK 927      BINDING AFFINITY PREDICTED BY RF-SCORE:    0.00 PKD
ROOT
HETATM    1  C   UNL     1      -9.829  20.228  67.336  1.00  0.00    -0.586 C  
HETATM    2  C   UNL     1     -10.783  19.049  67.230  1.00  0.00    -0.470 C  
ENDROOT
BRANCH   2   3
HETATM    3  O   UNL     1     -10.572  18.161  68.335  1.00  0.00    -0.324 OA 
BRANCH   3   4
HETATM    4  C   UNL     1     -10.771  16.832  68.060  1.00  0.00    -0.355 A  
HETATM    5  C   UNL     1     -10.346  16.395  66.806  1.00  0.00    -0.293 A  
HETATM    6  C   UNL     1     -10.651  15.102  66.359  1.00  0.00    -0.305 A  
HETATM    7  C   UNL     1     -11.394  14.224  67.167  1.00  0.00    -0.352 A  
HETATM    8  C   UNL     1     -11.698  14.631  68.474  1.00  0.00    -0.348 A  
HETATM    9  C   UNL     1     -11.384  15.923  68.920  1.00  0.00    -0.377 A  
BRANCH   7  10
HETATM   10  C   UNL     1     -12.030  12.977  66.574  1.00  0.00    -0.457 C  
BRANCH  10  11
HETATM   11  C   UNL     1     -11.209  11.717  66.418  1.00  0.00    -0.349 A  
HETATM   12  C   UNL     1     -11.148  10.814  67.488  1.00  0.00    -0.374 A  
HETATM   13  C   UNL     1     -10.393   9.613  67.435  1.00  0.00    -0.306 A  
HETATM   14 CL   UNL     1     -10.363  12.463  63.925  1.00  0.00    -0.432 Cl 
HETATM   15  C   UNL     1      -9.879   9.215  66.202  1.00  0.00    -0.363 A  
HETATM   16  C   UNL     1      -9.940  10.096  65.116  1.00  0.00    -0.379 A  
HETATM   17  C   UNL     1     -10.537  11.360  65.246  1.00  0.00    -0.277 A  
BRANCH  13  18
HETATM   18  C   UNL     1      -9.927   9.008  68.747  1.00  0.00    -0.182 C  
HETATM   19  C   UNL     1     -11.333   7.702  69.993  1.00  0.00    -0.067 C  
HETATM   20  C   UNL     1     -10.427   8.525  70.882  1.00  0.00    -0.203 C  
HETATM   21  O   UNL     1     -10.653   7.730  68.739  1.00  0.00    -0.202 OA 
HETATM   22  H   UNL     1      -7.367   6.930  68.353  1.00  0.00     0.000 HD 
HETATM   23  O   UNL     1     -10.293   9.683  70.008  1.00  0.00    -0.221 OA 
HETATM   24  C   UNL     1      -8.982   7.999  71.171  1.00  0.00    -0.141 C  
HETATM   25  O   UNL     1      -8.279   7.196  68.330  1.00  0.00    -0.122 OA 
HETATM   26  C   UNL     1      -7.930   8.637  70.229  1.00  0.00    -0.106 C  
HETATM   27  O   UNL     1      -8.959   6.572  71.151  1.00  0.00    -0.144 OA 
HETATM   28  H   UNL     1      -7.011  10.381  70.030  1.00  0.00     0.000 HD 
HETATM   29  H   UNL     1      -8.082   6.252  71.327  1.00  0.00     0.000 HD 
HETATM   30  O   UNL     1      -7.656   9.990  70.608  1.00  0.00    -0.286 OA 
HETATM   31  C   UNL     1      -8.423   8.568  68.785  1.00  0.00    -0.123 C  
BRANCH  20  32
HETATM   32  C   UNL     1     -11.139   8.650  72.248  1.00  0.00    -0.325 C  
HETATM   33  O   UNL     1     -11.350   7.395  72.902  1.00  0.00    -0.448 OA 
HETATM   34  H   UNL     1     -11.788   7.472  73.741  1.00  0.00     0.000 HD 
ENDBRANCH  20  32
ENDBRANCH  13  18
ENDBRANCH  10  11
ENDBRANCH   7  10
ENDBRANCH   3   4
ENDBRANCH   2   3
TORSDOF 6
ENDMDL
MODEL       28
REMARK 921   NORMALIZED FREE ENERGY PREDICTED BY IDOCK:   -6.77 KCAL/MOL
REMARK 922        TOTAL FREE ENERGY PREDICTED BY IDOCK:  -10.28 KCAL/MOL
REMARK 923 INTER-LIGAND FREE ENERGY PREDICTED BY IDOCK:   -9.30 KCAL/MOL
REMARK 924 INTRA-LIGAND FREE ENERGY PREDICTED BY IDOCK:   -0.98 KCAL/MOL
REMARK 927      BINDING AFFINITY PREDICTED BY RF-SCORE:    0.00 PKD
ROOT
HETATM    1  C   UNL     1     -12.579  15.773  73.951  1.00  0.00    -0.754 C  
HETATM    2  C   UNL     1     -11.767  15.860  72.668  1.00  0.00    -0.421 C  
ENDROOT
BRANCH   2   3
HETATM    3  O   UNL     1     -12.652  15.847  71.541  1.00  0.00    -0.444 OA 
BRANCH   3   4
HETATM    4  C   UNL     1     -12.282  15.007  70.522  1.00  0.00    -0.337 A  
HETATM    5  C   UNL     1     -11.885  15.619  69.333  1.00  0.00    -0.391 A  
HETATM    6  C   UNL     1     -11.650  14.858  68.181  1.00  0.00    -0.356 A  
HETATM    7  C   UNL     1     -11.812  13.462  68.202  1.00  0.00    -0.396 A  
HETATM    8  C   UNL     1     -12.080  12.849  69.435  1.00  0.00    -0.254 A  
HETATM    9  C   UNL     1     -12.307  13.614  70.588  1.00  0.00    -0.440 A  
BRANCH   7  10
HETATM   10  C   UNL     1     -11.910  12.674  66.905  1.00  0.00    -0.425 C  
BRANCH  10  11
HETATM   11  C   UNL     1     -11.125  11.392  66.744  1.00  0.00    -0.343 A  
HETATM   12  C   UNL     1     -11.236  10.403  67.731  1.00  0.00    -0.309 A  
HETATM   13  C   UNL     1     -10.527   9.175  67.669  1.00  0.00    -0.323 A  
HETATM   14 CL   UNL     1      -9.940  12.294  64.449  1.00  0.00    -0.263 Cl 
HETATM   15  C   UNL     1      -9.877   8.853  66.478  1.00  0.00    -0.344 A  
HETATM   16  C   UNL     1      -9.765   9.821  65.474  1.00  0.00    -0.382 A  
HETATM   17  C   UNL     1     -10.324  11.098  65.637  1.00  0.00    -0.254 A  
BRANCH  13  18
HETATM   18  C   UNL     1     -10.257   8.443  68.971  1.00  0.00    -0.207 C  
HETATM   19  C   UNL     1     -11.574   6.688  69.618  1.00  0.00    -0.243 C  
HETATM   20  C   UNL     1     -11.119   7.495  70.814  1.00  0.00    -0.265 C  
HETATM   21  O   UNL     1     -10.642   7.072  68.607  1.00  0.00    -0.206 OA 
HETATM   22  H   UNL     1      -7.265   7.002  69.023  1.00  0.00     0.000 HD 
HETATM   23  O   UNL     1     -11.055   8.796  70.161  1.00  0.00    -0.251 OA 
HETATM   24  C   UNL     1      -9.702   7.213  71.413  1.00  0.00    -0.168 C  
HETATM   25  O   UNL     1      -8.182   7.088  68.789  1.00  0.00    -0.119 OA 
HETATM   26  C   UNL     1      -8.635   8.201  70.877  1.00  0.00    -0.135 C  
HETATM   27  O   UNL     1      -9.344   5.845  71.221  1.00  0.00    -0.155 OA 
HETATM   28  H   UNL     1      -8.126  10.096  71.154  1.00  0.00     0.000 HD 
HETATM   29  H   UNL     1      -8.483   5.674  71.585  1.00  0.00     0.000 HD 
HETATM   30  O   UNL     1      -8.780   9.491  71.482  1.00  0.00    -0.167 OA 
HETATM   31  C   UNL     1      -8.744   8.302  69.357  1.00  0.00    -0.142 C  
BRANCH  20  32
HETATM   32  C   UNL     1     -12.143   7.231  71.942  1.00  0.00    -0.314 C  
HETATM   33  O   UNL     1     -11.545   6.811  73.172  1.00  0.00    -0.491 OA 
HETATM   34  H   UNL     1     -12.174   6.649  73.865  1.00  0.00     0.000 HD 
ENDBRANCH  20  32
ENDBRANCH  13  18
ENDBRANCH  10  11
ENDBRANCH   7  10
ENDBRANCH   3   4
ENDBRANCH   2   3
TORSDOF 6
ENDMDL
MODEL       29
REMARK 921   NORMALIZED FREE ENERGY PREDICTED BY IDOCK:   -6.74 KCAL/MOL
REMARK 922        TOTAL FREE ENERGY PREDICTED BY IDOCK:  -10.24 KCAL/MOL
REMARK 923 INTER-LIGAND FREE ENERGY PREDICTED BY IDOCK:   -9.31 KCAL/MOL
REMARK 924 INTRA-LIGAND FREE ENERGY PREDICTED BY IDOCK:   -0.93 KCAL/MOL
REMARK 927      BINDING AFFINITY PREDICTED BY RF-SCORE:    0.00 PKD
ROOT
HETATM    1  C   UNL     1      -7.739  10.802  62.514  1.00  0.00    -0.126 C  
HETATM    2  C   UNL     1      -9.040  10.297  63.118  1.00  0.00    -0.271 C  
ENDROOT
BRANCH   2   3
HETATM    3  O   UNL     1      -9.823  11.412  63.564  1.00  0.00    -0.303 OA 
BRANCH   3   4
HETATM    4  C   UNL     1     -10.351  11.284  64.824  1.00  0.00    -0.307 A  
HETATM    5  C   UNL     1     -11.353  12.191  65.164  1.00  0.00    -0.379 A  
HETATM    6  C   UNL     1     -11.840  12.258  66.477  1.00  0.00    -0.378 A  
HETATM    7  C   UNL     1     -11.324  11.413  67.474  1.00  0.00    -0.362 A  
HETATM    8  C   UNL     1     -10.415  10.417  67.087  1.00  0.00    -0.311 A  
HETATM    9  C   UNL     1      -9.936  10.349  65.771  1.00  0.00    -0.334 A  
BRANCH   7  10
HETATM   10  C   UNL     1     -11.575  11.707  68.944  1.00  0.00    -0.377 C  
BRANCH  10  11
HETATM   11  C   UNL     1     -11.730  13.137  69.409  1.00  0.00    -0.386 A  
HETATM   12  C   UNL     1     -11.212  14.167  68.611  1.00  0.00    -0.291 A  
HETATM   13  C   UNL     1     -11.301  15.536  68.975  1.00  0.00    -0.331 A  
HETATM   14 CL   UNL     1     -12.921  12.350  71.743  1.00  0.00    -0.466 Cl 
HETATM   15  C   UNL     1     -12.124  15.878  70.046  1.00  0.00    -0.264 A  
HETATM   16  C   UNL     1     -12.662  14.866  70.849  1.00  0.00    -0.420 A  
HETATM   17  C   UNL     1     -12.408  13.513  70.572  1.00  0.00    -0.342 A  
BRANCH  13  18
HETATM   18  C   UNL     1     -10.275  16.493  68.395  1.00  0.00    -0.266 C  
HETATM   19  C   UNL     1     -10.153  18.657  69.128  1.00  0.00    -0.136 C  
HETATM   20  C   UNL     1      -9.841  18.566  67.650  1.00  0.00    -0.313 C  
HETATM   21  O   UNL     1      -9.961  17.314  69.573  1.00  0.00    -0.091 OA 
HETATM   22  H   UNL     1      -7.154  15.497  68.940  1.00  0.00     0.000 HD 
HETATM   23  O   UNL     1     -10.699  17.430  67.337  1.00  0.00    -0.333 OA 
HETATM   24  C   UNL     1      -8.390  18.177  67.214  1.00  0.00    -0.241 C  
HETATM   25  O   UNL     1      -7.991  15.887  69.164  1.00  0.00    -0.209 OA 
HETATM   26  C   UNL     1      -8.260  16.665  66.900  1.00  0.00    -0.212 C  
HETATM   27  O   UNL     1      -7.441  18.632  68.179  1.00  0.00    -0.254 OA 
HETATM   28  H   UNL     1      -8.786  15.422  65.449  1.00  0.00     0.000 HD 
HETATM   29  H   UNL     1      -6.560  18.396  67.914  1.00  0.00     0.000 HD 
HETATM   30  O   UNL     1      -8.866  16.348  65.642  1.00  0.00    -0.406 OA 
HETATM   31  C   UNL     1      -8.894  15.850  68.026  1.00  0.00    -0.178 C  
BRANCH  20  32
HETATM   32  C   UNL     1     -10.131  19.960  67.048  1.00  0.00    -0.446 C  
HETATM   33  O   UNL     1      -8.982  20.810  66.992  1.00  0.00    -0.575 OA 
HETATM   34  H   UNL     1      -9.161  21.667  66.622  1.00  0.00     0.000 HD 
ENDBRANCH  20  32
ENDBRANCH  13  18
ENDBRANCH  10  11
ENDBRANCH   7  10
ENDBRANCH   3   4
ENDBRANCH   2   3
TORSDOF 6
ENDMDL
MODEL       30
REMARK 921   NORMALIZED FREE ENERGY PREDICTED BY IDOCK:   -6.73 KCAL/MOL
REMARK 922        TOTAL FREE ENERGY PREDICTED BY IDOCK:  -10.23 KCAL/MOL
REMARK 923 INTER-LIGAND FREE ENERGY PREDICTED BY IDOCK:   -8.62 KCAL/MOL
REMARK 924 INTRA-LIGAND FREE ENERGY PREDICTED BY IDOCK:   -1.61 KCAL/MOL
REMARK 927      BINDING AFFINITY PREDICTED BY RF-SCORE:    0.00 PKD
ROOT
HETATM    1  C   UNL     1     -12.633  14.838  71.439  1.00  0.00    -0.394 C  
HETATM    2  C   UNL     1     -12.342  13.841  70.329  1.00  0.00    -0.337 C  
ENDROOT
BRANCH   2   3
HETATM    3  O   UNL     1     -11.365  14.391  69.436  1.00  0.00    -0.257 OA 
BRANCH   3   4
HETATM    4  C   UNL     1     -10.941  13.544  68.444  1.00  0.00    -0.266 A  
HETATM    5  C   UNL     1     -11.913  13.127  67.535  1.00  0.00    -0.367 A  
HETATM    6  C   UNL     1     -11.627  12.135  66.589  1.00  0.00    -0.416 A  
HETATM    7  C   UNL     1     -10.355  11.539  66.541  1.00  0.00    -0.269 A  
HETATM    8  C   UNL     1      -9.352  12.061  67.371  1.00  0.00    -0.178 A  
HETATM    9  C   UNL     1      -9.641  13.060  68.312  1.00  0.00    -0.213 A  
BRANCH   7  10
HETATM   10  C   UNL     1     -10.136  10.241  65.780  1.00  0.00    -0.325 C  
BRANCH  10  11
HETATM   11  C   UNL     1      -9.825   8.969  66.537  1.00  0.00    -0.338 A  
HETATM   12  C   UNL     1     -10.496   8.718  67.742  1.00  0.00    -0.292 A  
HETATM   13  C   UNL     1     -10.258   7.558  68.524  1.00  0.00    -0.216 A  
HETATM   14 CL   UNL     1      -7.898   8.253  64.731  1.00  0.00    -0.121 Cl 
HETATM   15  C   UNL     1      -9.498   6.533  67.963  1.00  0.00    -0.120 A  
HETATM   16  C   UNL     1      -8.828   6.758  66.755  1.00  0.00    -0.127 A  
HETATM   17  C   UNL     1      -8.937   7.988  66.088  1.00  0.00    -0.175 A  
BRANCH  13  18
HETATM   18  C   UNL     1     -10.569   7.626  70.008  1.00  0.00    -0.238 C  
HETATM   19  C   UNL     1     -12.729   7.511  70.755  1.00  0.00     0.042 C  
HETATM   20  C   UNL     1     -11.905   8.440  71.619  1.00  0.00    -0.304 C  
HETATM   21  O   UNL     1     -11.733   6.732  70.092  1.00  0.00    -0.357 OA 
HETATM   22  H   UNL     1      -9.211   5.118  71.709  1.00  0.00     0.000 HD 
HETATM   23  O   UNL     1     -10.995   8.917  70.584  1.00  0.00    -0.224 OA 
HETATM   24  C   UNL     1     -11.024   7.822  72.755  1.00  0.00    -0.388 C  
HETATM   25  O   UNL     1      -9.848   5.536  71.142  1.00  0.00    -0.168 OA 
HETATM   26  C   UNL     1      -9.553   7.623  72.309  1.00  0.00    -0.165 C  
HETATM   27  O   UNL     1     -11.624   6.627  73.255  1.00  0.00    -0.434 OA 
HETATM   28  H   UNL     1      -7.954   8.750  71.993  1.00  0.00     0.000 HD 
HETATM   29  H   UNL     1     -11.089   6.252  73.945  1.00  0.00     0.000 HD 
HETATM   30  O   UNL     1      -8.856   8.873  72.266  1.00  0.00    -0.397 OA 
HETATM   31  C   UNL     1      -9.518   6.937  70.944  1.00  0.00    -0.157 C  
BRANCH  20  32
HETATM   32  C   UNL     1     -12.897   9.410  72.300  1.00  0.00    -0.375 C  
HETATM   33  O   UNL     1     -13.867   8.754  73.122  1.00  0.00    -1.042 OA 
HETATM   34  H   UNL     1     -14.477   9.350  73.541  1.00  0.00     0.000 HD 
ENDBRANCH  20  32
ENDBRANCH  13  18
ENDBRANCH  10  11
ENDBRANCH   7  10
ENDBRANCH   3   4
ENDBRANCH   2   3
TORSDOF 6
ENDMDL
MODEL       31
REMARK 921   NORMALIZED FREE ENERGY PREDICTED BY IDOCK:   -6.73 KCAL/MOL
REMARK 922        TOTAL FREE ENERGY PREDICTED BY IDOCK:  -10.23 KCAL/MOL
REMARK 923 INTER-LIGAND FREE ENERGY PREDICTED BY IDOCK:   -8.78 KCAL/MOL
REMARK 924 INTRA-LIGAND FREE ENERGY PREDICTED BY IDOCK:   -1.45 KCAL/MOL
REMARK 927      BINDING AFFINITY PREDICTED BY RF-SCORE:    0.00 PKD
ROOT
HETATM    1  C   UNL     1      -9.195   4.397  69.265  1.00  0.00    -0.203 C  
HETATM    2  C   UNL     1     -10.351   5.326  69.600  1.00  0.00    -0.278 C  
ENDROOT
BRANCH   2   3
HETATM    3  O   UNL     1     -10.429   5.499  71.020  1.00  0.00    -0.229 OA 
BRANCH   3   4
HETATM    4  C   UNL     1     -10.992   6.680  71.432  1.00  0.00    -0.250 A  
HETATM    5  C   UNL     1     -12.386   6.725  71.443  1.00  0.00    -0.403 A  
HETATM    6  C   UNL     1     -13.059   7.930  71.683  1.00  0.00    -0.361 A  
HETATM    7  C   UNL     1     -12.342   9.116  71.914  1.00  0.00    -0.455 A  
HETATM    8  C   UNL     1     -10.946   9.029  72.032  1.00  0.00    -0.355 A  
HETATM    9  C   UNL     1     -10.277   7.819  71.798  1.00  0.00    -0.235 A  
BRANCH   7  10
HETATM   10  C   UNL     1     -13.030  10.469  71.822  1.00  0.00    -0.582 C  
BRANCH  10  11
HETATM   11  C   UNL     1     -12.484  11.528  70.893  1.00  0.00    -0.464 A  
HETATM   12  C   UNL     1     -11.860  11.127  69.703  1.00  0.00    -0.419 A  
HETATM   13  C   UNL     1     -11.307  12.052  68.779  1.00  0.00    -0.331 A  
HETATM   14 CL   UNL     1     -13.168  13.534  72.624  1.00  0.00    -0.550 Cl 
HETATM   15  C   UNL     1     -11.594  13.405  68.953  1.00  0.00    -0.356 A  
HETATM   16  C   UNL     1     -12.227  13.826  70.128  1.00  0.00    -0.425 A  
HETATM   17  C   UNL     1     -12.604  12.903  71.116  1.00  0.00    -0.281 A  
BRANCH  13  18
HETATM   18  C   UNL     1     -10.203  11.563  67.859  1.00  0.00    -0.184 C  
HETATM   19  C   UNL     1      -8.140  11.032  68.692  1.00  0.00    -0.149 C  
HETATM   20  C   UNL     1      -8.026  11.649  67.316  1.00  0.00    -0.157 C  
HETATM   21  O   UNL     1      -9.504  10.616  68.739  1.00  0.00    -0.168 OA 
HETATM   22  H   UNL     1     -10.985   8.719  66.331  1.00  0.00     0.000 HD 
HETATM   23  O   UNL     1      -9.186  12.528  67.398  1.00  0.00    -0.174 OA 
HETATM   24  C   UNL     1      -8.234  10.733  66.065  1.00  0.00    -0.164 C  
HETATM   25  O   UNL     1     -10.698   9.265  67.055  1.00  0.00    -0.232 OA 
HETATM   26  C   UNL     1      -9.681  10.814  65.516  1.00  0.00    -0.239 C  
HETATM   27  O   UNL     1      -7.818   9.398  66.351  1.00  0.00    -0.099 OA 
HETATM   28  H   UNL     1     -10.784  12.094  64.479  1.00  0.00     0.000 HD 
HETATM   29  H   UNL     1      -7.944   8.842  65.591  1.00  0.00     0.000 HD 
HETATM   30  O   UNL     1      -9.897  12.044  64.816  1.00  0.00    -0.239 OA 
HETATM   31  C   UNL     1     -10.676  10.664  66.665  1.00  0.00    -0.181 C  
BRANCH  20  32
HETATM   32  C   UNL     1      -6.601  12.237  67.208  1.00  0.00    -0.146 C  
HETATM   33  O   UNL     1      -5.830  11.680  66.140  1.00  0.00    -0.467 OA 
HETATM   34  H   UNL     1      -4.954  12.042  66.075  1.00  0.00     0.000 HD 
ENDBRANCH  20  32
ENDBRANCH  13  18
ENDBRANCH  10  11
ENDBRANCH   7  10
ENDBRANCH   3   4
ENDBRANCH   2   3
TORSDOF 6
ENDMDL
MODEL       32
REMARK 921   NORMALIZED FREE ENERGY PREDICTED BY IDOCK:   -6.69 KCAL/MOL
REMARK 922        TOTAL FREE ENERGY PREDICTED BY IDOCK:  -10.18 KCAL/MOL
REMARK 923 INTER-LIGAND FREE ENERGY PREDICTED BY IDOCK:   -8.76 KCAL/MOL
REMARK 924 INTRA-LIGAND FREE ENERGY PREDICTED BY IDOCK:   -1.42 KCAL/MOL
REMARK 927      BINDING AFFINITY PREDICTED BY RF-SCORE:    0.00 PKD
ROOT
HETATM    1  C   UNL     1     -12.506  15.772  74.347  1.00  0.00    -0.790 C  
HETATM    2  C   UNL     1     -13.235  15.818  73.014  1.00  0.00    -0.573 C  
ENDROOT
BRANCH   2   3
HETATM    3  O   UNL     1     -12.358  16.335  72.006  1.00  0.00    -0.440 OA 
BRANCH   3   4
HETATM    4  C   UNL     1     -12.189  15.527  70.910  1.00  0.00    -0.400 A  
HETATM    5  C   UNL     1     -12.434  14.168  71.106  1.00  0.00    -0.445 A  
HETATM    6  C   UNL     1     -12.132  13.237  70.104  1.00  0.00    -0.403 A  
HETATM    7  C   UNL     1     -11.573  13.655  68.884  1.00  0.00    -0.362 A  
HETATM    8  C   UNL     1     -11.457  15.034  68.652  1.00  0.00    -0.329 A  
HETATM    9  C   UNL     1     -11.769  15.964  69.655  1.00  0.00    -0.322 A  
BRANCH   7  10
HETATM   10  C   UNL     1     -10.920  12.652  67.947  1.00  0.00    -0.262 C  
BRANCH  10  11
HETATM   11  C   UNL     1      -9.846  11.724  68.469  1.00  0.00    -0.192 A  
HETATM   12  C   UNL     1     -10.224  10.477  68.985  1.00  0.00    -0.233 A  
HETATM   13  C   UNL     1      -9.286   9.548  69.507  1.00  0.00    -0.199 A  
HETATM   14 CL   UNL     1      -7.887  13.577  68.007  1.00  0.00    -0.132 Cl 
HETATM   15  C   UNL     1      -7.931   9.795  69.295  1.00  0.00    -0.112 A  
HETATM   16  C   UNL     1      -7.532  11.029  68.771  1.00  0.00    -0.116 A  
HETATM   17  C   UNL     1      -8.479  12.008  68.428  1.00  0.00    -0.147 A  
BRANCH  13  18
HETATM   18  C   UNL     1      -9.783   8.529  70.516  1.00  0.00    -0.177 C  
HETATM   19  C   UNL     1      -8.693   8.231  72.506  1.00  0.00    -0.217 C  
HETATM   20  C   UNL     1      -9.248   6.922  71.991  1.00  0.00    -0.140 C  
HETATM   21  O   UNL     1      -9.449   9.201  71.780  1.00  0.00    -0.312 OA 
HETATM   22  H   UNL     1     -12.848   9.202  71.603  1.00  0.00     0.000 HD 
HETATM   23  O   UNL     1      -9.130   7.206  70.566  1.00  0.00    -0.154 OA 
HETATM   24  C   UNL     1     -10.750   6.584  72.268  1.00  0.00    -0.223 C  
HETATM   25  O   UNL     1     -11.904   9.299  71.556  1.00  0.00    -0.321 OA 
HETATM   26  C   UNL     1     -11.662   6.952  71.070  1.00  0.00    -0.345 C  
HETATM   27  O   UNL     1     -11.175   7.174  73.496  1.00  0.00    -0.561 OA 
HETATM   28  H   UNL     1     -12.068   6.237  69.267  1.00  0.00     0.000 HD 
HETATM   29  H   UNL     1     -12.087   6.969  73.664  1.00  0.00     0.000 HD 
HETATM   30  O   UNL     1     -11.510   6.011  70.001  1.00  0.00    -0.372 OA 
HETATM   31  C   UNL     1     -11.340   8.368  70.594  1.00  0.00    -0.244 C  
BRANCH  20  32
HETATM   32  C   UNL     1      -8.409   5.798  72.640  1.00  0.00    -0.116 C  
HETATM   33  O   UNL     1      -9.137   5.016  73.591  1.00  0.00    -0.120 OA 
HETATM   34  H   UNL     1      -8.621   4.325  73.991  1.00  0.00     0.000 HD 
ENDBRANCH  20  32
ENDBRANCH  13  18
ENDBRANCH  10  11
ENDBRANCH   7  10
ENDBRANCH   3   4
ENDBRANCH   2   3
TORSDOF 6
ENDMDL
MODEL       33
REMARK 921   NORMALIZED FREE ENERGY PREDICTED BY IDOCK:   -6.60 KCAL/MOL
REMARK 922        TOTAL FREE ENERGY PREDICTED BY IDOCK:  -10.06 KCAL/MOL
REMARK 923 INTER-LIGAND FREE ENERGY PREDICTED BY IDOCK:   -8.78 KCAL/MOL
REMARK 924 INTRA-LIGAND FREE ENERGY PREDICTED BY IDOCK:   -1.28 KCAL/MOL
REMARK 927      BINDING AFFINITY PREDICTED BY RF-SCORE:    0.00 PKD
ROOT
HETATM    1  C   UNL     1     -10.063   5.011  68.653  1.00  0.00    -0.191 C  
HETATM    2  C   UNL     1      -9.871   5.709  69.990  1.00  0.00    -0.186 C  
ENDROOT
BRANCH   2   3
HETATM    3  O   UNL     1     -11.085   5.635  70.747  1.00  0.00    -0.241 OA 
BRANCH   3   4
HETATM    4  C   UNL     1     -11.531   6.831  71.248  1.00  0.00    -0.302 A  
HETATM    5  C   UNL     1     -12.914   7.009  71.272  1.00  0.00    -0.357 A  
HETATM    6  C   UNL     1     -13.468   8.252  71.605  1.00  0.00    -0.358 A  
HETATM    7  C   UNL     1     -12.639   9.343  71.919  1.00  0.00    -0.481 A  
HETATM    8  C   UNL     1     -11.259   9.113  72.020  1.00  0.00    -0.310 A  
HETATM    9  C   UNL     1     -10.709   7.865  71.694  1.00  0.00    -0.268 A  
BRANCH   7  10
HETATM   10  C   UNL     1     -13.194  10.759  71.931  1.00  0.00    -0.524 C  
BRANCH  10  11
HETATM   11  C   UNL     1     -12.626  11.797  70.990  1.00  0.00    -0.409 A  
HETATM   12  C   UNL     1     -11.944  11.368  69.843  1.00  0.00    -0.434 A  
HETATM   13  C   UNL     1     -11.369  12.271  68.912  1.00  0.00    -0.337 A  
HETATM   14 CL   UNL     1     -13.418  13.846  72.622  1.00  0.00    -0.649 Cl 
HETATM   15  C   UNL     1     -11.685  13.624  69.028  1.00  0.00    -0.375 A  
HETATM   16  C   UNL     1     -12.376  14.073  70.159  1.00  0.00    -0.409 A  
HETATM   17  C   UNL     1     -12.779  13.176  71.162  1.00  0.00    -0.300 A  
BRANCH  13  18
HETATM   18  C   UNL     1     -10.218  11.773  68.057  1.00  0.00    -0.193 C  
HETATM   19  C   UNL     1     -10.591  10.311  66.336  1.00  0.00    -0.107 C  
HETATM   20  C   UNL     1      -9.265  10.030  67.009  1.00  0.00    -0.146 C  
HETATM   21  O   UNL     1     -10.875  11.648  66.748  1.00  0.00    -0.251 OA 
HETATM   22  H   UNL     1      -8.679  14.229  66.436  1.00  0.00     0.000 HD 
HETATM   23  O   UNL     1      -9.635  10.450  68.356  1.00  0.00    -0.141 OA 
HETATM   24  C   UNL     1      -8.019  10.877  66.591  1.00  0.00    -0.148 C  
HETATM   25  O   UNL     1      -9.368  13.595  66.597  1.00  0.00    -0.262 OA 
HETATM   26  C   UNL     1      -7.772  12.066  67.554  1.00  0.00    -0.155 C  
HETATM   27  O   UNL     1      -8.123  11.277  65.225  1.00  0.00    -0.354 OA 
HETATM   28  H   UNL     1      -7.064  12.344  69.384  1.00  0.00     0.000 HD 
HETATM   29  H   UNL     1      -7.367  11.791  64.971  1.00  0.00     0.000 HD 
HETATM   30  O   UNL     1      -7.215  11.615  68.794  1.00  0.00    -0.103 OA 
HETATM   31  C   UNL     1      -9.081  12.818  67.790  1.00  0.00    -0.197 C  
BRANCH  20  32
HETATM   32  C   UNL     1      -8.921   8.552  66.714  1.00  0.00    -0.146 C  
HETATM   33  O   UNL     1      -9.978   7.836  66.069  1.00  0.00    -0.447 OA 
HETATM   34  H   UNL     1      -9.767   6.927  65.888  1.00  0.00     0.000 HD 
ENDBRANCH  20  32
ENDBRANCH  13  18
ENDBRANCH  10  11
ENDBRANCH   7  10
ENDBRANCH   3   4
ENDBRANCH   2   3
TORSDOF 6
ENDMDL
MODEL       34
REMARK 921   NORMALIZED FREE ENERGY PREDICTED BY IDOCK:   -6.60 KCAL/MOL
REMARK 922        TOTAL FREE ENERGY PREDICTED BY IDOCK:  -10.05 KCAL/MOL
REMARK 923 INTER-LIGAND FREE ENERGY PREDICTED BY IDOCK:   -9.05 KCAL/MOL
REMARK 924 INTRA-LIGAND FREE ENERGY PREDICTED BY IDOCK:   -1.00 KCAL/MOL
REMARK 927      BINDING AFFINITY PREDICTED BY RF-SCORE:    0.00 PKD
ROOT
HETATM    1  C   UNL     1     -12.416  16.433  74.255  1.00  0.00    -0.552 C  
HETATM    2  C   UNL     1     -13.383  15.852  73.236  1.00  0.00    -0.564 C  
ENDROOT
BRANCH   2   3
HETATM    3  O   UNL     1     -12.707  15.670  71.985  1.00  0.00    -0.375 OA 
BRANCH   3   4
HETATM    4  C   UNL     1     -12.714  14.386  71.502  1.00  0.00    -0.345 A  
HETATM    5  C   UNL     1     -13.320  13.428  72.314  1.00  0.00    -0.641 A  
HETATM    6  C   UNL     1     -13.235  12.066  71.996  1.00  0.00    -0.481 A  
HETATM    7  C   UNL     1     -12.533  11.641  70.854  1.00  0.00    -0.440 A  
HETATM    8  C   UNL     1     -12.045  12.623  69.979  1.00  0.00    -0.339 A  
HETATM    9  C   UNL     1     -12.139  13.985  70.297  1.00  0.00    -0.425 A  
BRANCH   7  10
HETATM   10  C   UNL     1     -12.132  10.184  70.690  1.00  0.00    -0.411 C  
BRANCH  10  11
HETATM   11  C   UNL     1     -10.717   9.835  70.286  1.00  0.00    -0.358 A  
HETATM   12  C   UNL     1     -10.236  10.288  69.049  1.00  0.00    -0.225 A  
HETATM   13  C   UNL     1      -8.927   9.998  68.584  1.00  0.00    -0.136 A  
HETATM   14 CL   UNL     1     -10.339   8.340  72.546  1.00  0.00    -0.396 Cl 
HETATM   15  C   UNL     1      -8.021   9.436  69.482  1.00  0.00    -0.098 A  
HETATM   16  C   UNL     1      -8.477   8.989  70.727  1.00  0.00    -0.238 A  
HETATM   17  C   UNL     1      -9.825   9.125  71.094  1.00  0.00    -0.301 A  
BRANCH  13  18
HETATM   18  C   UNL     1      -8.685  10.020  67.085  1.00  0.00    -0.128 C  
HETATM   19  C   UNL     1      -9.217  11.867  65.845  1.00  0.00    -0.141 C  
HETATM   20  C   UNL     1      -9.460  10.598  65.059  1.00  0.00    -0.243 C  
HETATM   21  O   UNL     1      -8.335  11.433  66.879  1.00  0.00    -0.147 OA 
HETATM   22  H   UNL     1      -5.473   9.679  66.311  1.00  0.00     0.000 HD 
HETATM   23  O   UNL     1      -9.816   9.737  66.181  1.00  0.00    -0.225 OA 
HETATM   24  C   UNL     1      -8.251   9.924  64.331  1.00  0.00    -0.164 C  
HETATM   25  O   UNL     1      -6.251  10.142  66.602  1.00  0.00    -0.065 OA 
HETATM   26  C   UNL     1      -7.628   8.780  65.170  1.00  0.00    -0.096 C  
HETATM   27  O   UNL     1      -7.297  10.909  63.933  1.00  0.00    -0.305 OA 
HETATM   28  H   UNL     1      -8.079   6.914  65.663  1.00  0.00     0.000 HD 
HETATM   29  H   UNL     1      -6.563  10.500  63.491  1.00  0.00     0.000 HD 
HETATM   30  O   UNL     1      -8.461   7.615  65.148  1.00  0.00    -0.125 OA 
HETATM   31  C   UNL     1      -7.403   9.257  66.604  1.00  0.00    -0.086 C  
BRANCH  20  32
HETATM   32  C   UNL     1     -10.503  10.942  63.971  1.00  0.00    -0.309 C  
HETATM   33  O   UNL     1     -10.196  10.388  62.688  1.00  0.00    -0.687 OA 
HETATM   34  H   UNL     1     -10.837  10.600  62.019  1.00  0.00     0.000 HD 
ENDBRANCH  20  32
ENDBRANCH  13  18
ENDBRANCH  10  11
ENDBRANCH   7  10
ENDBRANCH   3   4
ENDBRANCH   2   3
TORSDOF 6
ENDMDL
MODEL       35
REMARK 921   NORMALIZED FREE ENERGY PREDICTED BY IDOCK:   -6.56 KCAL/MOL
REMARK 922        TOTAL FREE ENERGY PREDICTED BY IDOCK:  -10.00 KCAL/MOL
REMARK 923 INTER-LIGAND FREE ENERGY PREDICTED BY IDOCK:   -8.65 KCAL/MOL
REMARK 924 INTRA-LIGAND FREE ENERGY PREDICTED BY IDOCK:   -1.34 KCAL/MOL
REMARK 927      BINDING AFFINITY PREDICTED BY RF-SCORE:    0.00 PKD
ROOT
HETATM    1  C   UNL     1      -8.954   5.381  66.509  1.00  0.00    -0.120 C  
HETATM    2  C   UNL     1      -9.814   6.616  66.730  1.00  0.00    -0.173 C  
ENDROOT
BRANCH   2   3
HETATM    3  O   UNL     1      -9.189   7.750  66.116  1.00  0.00    -0.174 OA 
BRANCH   3   4
HETATM    4  C   UNL     1      -9.696   8.967  66.492  1.00  0.00    -0.244 A  
HETATM    5  C   UNL     1     -10.190   9.052  67.793  1.00  0.00    -0.284 A  
HETATM    6  C   UNL     1     -10.880  10.193  68.223  1.00  0.00    -0.297 A  
HETATM    7  C   UNL     1     -11.089  11.273  67.349  1.00  0.00    -0.358 A  
HETATM    8  C   UNL     1     -10.472  11.229  66.089  1.00  0.00    -0.305 A  
HETATM    9  C   UNL     1      -9.776  10.087  65.666  1.00  0.00    -0.336 A  
BRANCH   7  10
HETATM   10  C   UNL     1     -12.119  12.343  67.672  1.00  0.00    -0.076 C  
BRANCH  10  11
HETATM   11  C   UNL     1     -11.767  13.462  68.626  1.00  0.00    -0.384 A  
HETATM   12  C   UNL     1     -11.331  14.686  68.100  1.00  0.00    -0.321 A  
HETATM   13  C   UNL     1     -10.968  15.786  68.920  1.00  0.00    -0.283 A  
HETATM   14 CL   UNL     1     -12.227  11.875  70.807  1.00  0.00    -0.457 Cl 
HETATM   15  C   UNL     1     -11.267  15.718  70.280  1.00  0.00    -0.377 A  
HETATM   16  C   UNL     1     -11.715  14.509  70.824  1.00  0.00    -0.325 A  
HETATM   17  C   UNL     1     -11.895  13.376  70.015  1.00  0.00    -0.294 A  
BRANCH  13  18
HETATM   18  C   UNL     1     -10.013  16.816  68.345  1.00  0.00    -0.268 C  
HETATM   19  C   UNL     1     -10.264  19.038  68.827  1.00  0.00    -0.274 C  
HETATM   20  C   UNL     1      -9.765  18.844  67.413  1.00  0.00    -0.312 C  
HETATM   21  O   UNL     1      -9.955  17.789  69.445  1.00  0.00    -0.155 OA 
HETATM   22  H   UNL     1      -6.878  16.337  69.333  1.00  0.00     0.000 HD 
HETATM   23  O   UNL     1     -10.424  17.571  67.145  1.00  0.00    -0.335 OA 
HETATM   24  C   UNL     1      -8.233  18.624  67.183  1.00  0.00    -0.252 C  
HETATM   25  O   UNL     1      -7.780  16.624  69.419  1.00  0.00    -0.185 OA 
HETATM   26  C   UNL     1      -7.871  17.122  67.064  1.00  0.00    -0.198 C  
HETATM   27  O   UNL     1      -7.477  19.305  68.183  1.00  0.00    -0.269 OA 
HETATM   28  H   UNL     1      -8.049  15.675  65.721  1.00  0.00     0.000 HD 
HETATM   29  H   UNL     1      -6.547  19.172  68.043  1.00  0.00     0.000 HD 
HETATM   30  O   UNL     1      -8.272  16.596  65.794  1.00  0.00    -0.344 OA 
HETATM   31  C   UNL     1      -8.525  16.343  68.203  1.00  0.00    -0.188 C  
BRANCH  20  32
HETATM   32  C   UNL     1     -10.159  20.113  66.624  1.00  0.00    -0.454 C  
HETATM   33  O   UNL     1      -9.438  21.283  67.023  1.00  0.00    -0.609 OA 
HETATM   34  H   UNL     1      -9.680  22.063  66.538  1.00  0.00     0.000 HD 
ENDBRANCH  20  32
ENDBRANCH  13  18
ENDBRANCH  10  11
ENDBRANCH   7  10
ENDBRANCH   3   4
ENDBRANCH   2   3
TORSDOF 6
ENDMDL
MODEL       36
REMARK 921   NORMALIZED FREE ENERGY PREDICTED BY IDOCK:   -6.54 KCAL/MOL
REMARK 922        TOTAL FREE ENERGY PREDICTED BY IDOCK:   -9.97 KCAL/MOL
REMARK 923 INTER-LIGAND FREE ENERGY PREDICTED BY IDOCK:   -8.75 KCAL/MOL
REMARK 924 INTRA-LIGAND FREE ENERGY PREDICTED BY IDOCK:   -1.22 KCAL/MOL
REMARK 927      BINDING AFFINITY PREDICTED BY RF-SCORE:    0.00 PKD
ROOT
HETATM    1  C   UNL     1      -6.286  10.727  66.071  1.00  0.00    -0.134 C  
HETATM    2  C   UNL     1      -7.798  10.587  65.993  1.00  0.00    -0.147 C  
ENDROOT
BRANCH   2   3
HETATM    3  O   UNL     1      -8.217   9.477  66.796  1.00  0.00    -0.112 OA 
BRANCH   3   4
HETATM    4  C   UNL     1      -9.214   9.754  67.696  1.00  0.00    -0.130 A  
HETATM    5  C   UNL     1     -10.430  10.170  67.157  1.00  0.00    -0.305 A  
HETATM    6  C   UNL     1     -11.458  10.637  67.987  1.00  0.00    -0.289 A  
HETATM    7  C   UNL     1     -11.279  10.699  69.380  1.00  0.00    -0.329 A  
HETATM    8  C   UNL     1     -10.103  10.153  69.916  1.00  0.00    -0.268 A  
HETATM    9  C   UNL     1      -9.080   9.679  69.082  1.00  0.00    -0.154 A  
BRANCH   7  10
HETATM   10  C   UNL     1     -12.221  11.519  70.246  1.00  0.00    -0.415 C  
BRANCH  10  11
HETATM   11  C   UNL     1     -12.236  13.025  70.123  1.00  0.00    -0.342 A  
HETATM   12  C   UNL     1     -11.646  13.617  68.998  1.00  0.00    -0.356 A  
HETATM   13  C   UNL     1     -11.603  15.022  68.805  1.00  0.00    -0.357 A  
HETATM   14 CL   UNL     1     -13.440  13.308  72.564  1.00  0.00    -0.669 Cl 
HETATM   15  C   UNL     1     -12.368  15.824  69.651  1.00  0.00    -0.115 A  
HETATM   16  C   UNL     1     -12.976  15.252  70.774  1.00  0.00    -0.492 A  
HETATM   17  C   UNL     1     -12.851  13.880  71.042  1.00  0.00    -0.324 A  
BRANCH  13  18
HETATM   18  C   UNL     1     -10.509  15.585  67.916  1.00  0.00    -0.266 C  
HETATM   19  C   UNL     1      -8.809  16.832  68.805  1.00  0.00    -0.258 C  
HETATM   20  C   UNL     1      -9.189  17.335  67.430  1.00  0.00    -0.231 C  
HETATM   21  O   UNL     1      -9.350  15.511  68.818  1.00  0.00    -0.187 OA 
HETATM   22  H   UNL     1      -8.770  13.209  66.379  1.00  0.00     0.000 HD 
HETATM   23  O   UNL     1     -10.604  16.991  67.479  1.00  0.00    -0.333 OA 
HETATM   24  C   UNL     1      -8.586  16.618  66.178  1.00  0.00    -0.289 C  
HETATM   25  O   UNL     1      -9.025  13.763  67.108  1.00  0.00    -0.216 OA 
HETATM   26  C   UNL     1      -9.552  15.558  65.591  1.00  0.00    -0.293 C  
HETATM   27  O   UNL     1      -7.294  16.090  66.479  1.00  0.00    -0.151 OA 
HETATM   28  H   UNL     1     -11.221  15.532  64.521  1.00  0.00     0.000 HD 
HETATM   29  H   UNL     1      -6.928  15.655  65.719  1.00  0.00     0.000 HD 
HETATM   30  O   UNL     1     -10.628  16.182  64.881  1.00  0.00    -0.622 OA 
HETATM   31  C   UNL     1     -10.088  14.672  66.714  1.00  0.00    -0.265 C  
BRANCH  20  32
HETATM   32  C   UNL     1      -8.741  18.813  67.358  1.00  0.00    -0.273 C  
HETATM   33  O   UNL     1      -8.713  19.339  66.029  1.00  0.00    -0.431 OA 
HETATM   34  H   UNL     1      -8.437  20.247  65.985  1.00  0.00     0.000 HD 
ENDBRANCH  20  32
ENDBRANCH  13  18
ENDBRANCH  10  11
ENDBRANCH   7  10
ENDBRANCH   3   4
ENDBRANCH   2   3
TORSDOF 6
ENDMDL
MODEL       37
REMARK 921   NORMALIZED FREE ENERGY PREDICTED BY IDOCK:   -6.54 KCAL/MOL
REMARK 922        TOTAL FREE ENERGY PREDICTED BY IDOCK:   -9.97 KCAL/MOL
REMARK 923 INTER-LIGAND FREE ENERGY PREDICTED BY IDOCK:   -8.55 KCAL/MOL
REMARK 924 INTRA-LIGAND FREE ENERGY PREDICTED BY IDOCK:   -1.42 KCAL/MOL
REMARK 927      BINDING AFFINITY PREDICTED BY RF-SCORE:    0.00 PKD
ROOT
HETATM    1  C   UNL     1     -10.194   2.950  73.575  1.00  0.00    -0.199 C  
HETATM    2  C   UNL     1     -10.852   4.310  73.405  1.00  0.00    -0.253 C  
ENDROOT
BRANCH   2   3
HETATM    3  O   UNL     1      -9.999   5.161  72.629  1.00  0.00    -0.158 OA 
BRANCH   3   4
HETATM    4  C   UNL     1     -10.454   5.443  71.366  1.00  0.00    -0.226 A  
HETATM    5  C   UNL     1      -9.771   4.832  70.316  1.00  0.00    -0.296 A  
HETATM    6  C   UNL     1     -10.043   5.182  68.987  1.00  0.00    -0.257 A  
HETATM    7  C   UNL     1     -11.009   6.159  68.689  1.00  0.00    -0.415 A  
HETATM    8  C   UNL     1     -11.779   6.666  69.746  1.00  0.00    -0.279 A  
HETATM    9  C   UNL     1     -11.508   6.307  71.074  1.00  0.00    -0.370 A  
BRANCH   7  10
HETATM   10  C   UNL     1     -11.065   6.797  67.310  1.00  0.00    -0.394 C  
BRANCH  10  11
HETATM   11  C   UNL     1     -10.094   7.899  66.952  1.00  0.00    -0.362 A  
HETATM   12  C   UNL     1     -10.395   9.214  67.331  1.00  0.00    -0.330 A  
HETATM   13  C   UNL     1      -9.549  10.312  67.027  1.00  0.00    -0.205 A  
HETATM   14 CL   UNL     1      -8.467   6.159  65.606  1.00  0.00    -0.149 Cl 
HETATM   15  C   UNL     1      -8.274  10.040  66.533  1.00  0.00    -0.119 A  
HETATM   16  C   UNL     1      -7.947   8.732  66.159  1.00  0.00    -0.103 A  
HETATM   17  C   UNL     1      -8.874   7.688  66.303  1.00  0.00    -0.156 A  
BRANCH  13  18
HETATM   18  C   UNL     1     -10.174  11.694  66.958  1.00  0.00    -0.212 C  
HETATM   19  C   UNL     1     -11.702  12.203  65.332  1.00  0.00    -0.321 C  
HETATM   20  C   UNL     1     -10.836  13.400  65.657  1.00  0.00    -0.283 C  
HETATM   21  O   UNL     1     -11.523  11.366  66.475  1.00  0.00    -0.384 OA 
HETATM   22  H   UNL     1     -11.923  12.437  69.681  1.00  0.00     0.000 HD 
HETATM   23  O   UNL     1      -9.620  12.675  66.004  1.00  0.00    -0.247 OA 
HETATM   24  C   UNL     1     -11.211  14.283  66.892  1.00  0.00    -0.326 C  
HETATM   25  O   UNL     1     -11.760  12.023  68.841  1.00  0.00    -0.285 OA 
HETATM   26  C   UNL     1     -10.404  13.892  68.156  1.00  0.00    -0.247 C  
HETATM   27  O   UNL     1     -12.623  14.269  67.103  1.00  0.00    -0.546 OA 
HETATM   28  H   UNL     1      -8.558  14.119  68.841  1.00  0.00     0.000 HD 
HETATM   29  H   UNL     1     -12.851  14.806  67.853  1.00  0.00     0.000 HD 
HETATM   30  O   UNL     1      -9.053  14.358  68.066  1.00  0.00    -0.176 OA 
HETATM   31  C   UNL     1     -10.442  12.376  68.343  1.00  0.00    -0.235 C  
BRANCH  20  32
HETATM   32  C   UNL     1     -10.873  14.324  64.418  1.00  0.00    -0.150 C  
HETATM   33  O   UNL     1     -12.187  14.523  63.890  1.00  0.00    -0.872 OA 
HETATM   34  H   UNL     1     -12.210  15.090  63.129  1.00  0.00     0.000 HD 
ENDBRANCH  20  32
ENDBRANCH  13  18
ENDBRANCH  10  11
ENDBRANCH   7  10
ENDBRANCH   3   4
ENDBRANCH   2   3
TORSDOF 6
ENDMDL
MODEL       38
REMARK 921   NORMALIZED FREE ENERGY PREDICTED BY IDOCK:   -6.52 KCAL/MOL
REMARK 922        TOTAL FREE ENERGY PREDICTED BY IDOCK:   -9.95 KCAL/MOL
REMARK 923 INTER-LIGAND FREE ENERGY PREDICTED BY IDOCK:   -8.43 KCAL/MOL
REMARK 924 INTRA-LIGAND FREE ENERGY PREDICTED BY IDOCK:   -1.52 KCAL/MOL
REMARK 927      BINDING AFFINITY PREDICTED BY RF-SCORE:    0.00 PKD
ROOT
HETATM    1  C   UNL     1     -12.419  15.776  74.317  1.00  0.00    -0.800 C  
HETATM    2  C   UNL     1     -13.158  15.782  72.988  1.00  0.00    -0.543 C  
ENDROOT
BRANCH   2   3
HETATM    3  O   UNL     1     -12.264  16.192  71.946  1.00  0.00    -0.472 OA 
BRANCH   3   4
HETATM    4  C   UNL     1     -12.222  15.360  70.856  1.00  0.00    -0.373 A  
HETATM    5  C   UNL     1     -12.465  14.010  71.103  1.00  0.00    -0.447 A  
HETATM    6  C   UNL     1     -12.281  13.054  70.095  1.00  0.00    -0.342 A  
HETATM    7  C   UNL     1     -11.846  13.440  68.815  1.00  0.00    -0.386 A  
HETATM    8  C   UNL     1     -11.735  14.813  68.545  1.00  0.00    -0.347 A  
HETATM    9  C   UNL     1     -11.927  15.766  69.555  1.00  0.00    -0.326 A  
BRANCH   7  10
HETATM   10  C   UNL     1     -11.308  12.409  67.837  1.00  0.00    -0.344 C  
BRANCH  10  11
HETATM   11  C   UNL     1     -10.140  11.534  68.234  1.00  0.00    -0.205 A  
HETATM   12  C   UNL     1     -10.396  10.237  68.699  1.00  0.00    -0.203 A  
HETATM   13  C   UNL     1      -9.364   9.351  69.105  1.00  0.00    -0.159 A  
HETATM   14 CL   UNL     1      -8.347  13.544  67.751  1.00  0.00    -0.166 Cl 
HETATM   15  C   UNL     1      -8.046   9.705  68.820  1.00  0.00    -0.097 A  
HETATM   16  C   UNL     1      -7.769  10.991  68.342  1.00  0.00    -0.119 A  
HETATM   17  C   UNL     1      -8.801  11.916  68.119  1.00  0.00    -0.178 A  
BRANCH  13  18
HETATM   18  C   UNL     1      -9.719   8.247  70.084  1.00  0.00    -0.176 C  
HETATM   19  C   UNL     1     -11.369   6.740  69.594  1.00  0.00    -0.272 C  
HETATM   20  C   UNL     1     -11.346   7.056  71.073  1.00  0.00    -0.287 C  
HETATM   21  O   UNL     1     -10.075   7.159  69.162  1.00  0.00    -0.174 OA 
HETATM   22  H   UNL     1      -7.177   6.189  70.659  1.00  0.00     0.000 HD 
HETATM   23  O   UNL     1     -10.883   8.435  70.972  1.00  0.00    -0.226 OA 
HETATM   24  C   UNL     1     -10.327   6.297  71.986  1.00  0.00    -0.202 C  
HETATM   25  O   UNL     1      -7.908   6.548  70.170  1.00  0.00    -0.103 OA 
HETATM   26  C   UNL     1      -9.033   7.117  72.223  1.00  0.00    -0.131 C  
HETATM   27  O   UNL     1     -10.074   4.990  71.470  1.00  0.00    -0.182 OA 
HETATM   28  H   UNL     1      -8.472   8.689  73.292  1.00  0.00     0.000 HD 
HETATM   29  H   UNL     1      -9.456   4.530  72.024  1.00  0.00     0.000 HD 
HETATM   30  O   UNL     1      -9.265   8.187  73.146  1.00  0.00    -0.261 OA 
HETATM   31  C   UNL     1      -8.513   7.655  70.891  1.00  0.00    -0.124 C  
BRANCH  20  32
HETATM   32  C   UNL     1     -12.757   6.739  71.618  1.00  0.00    -0.312 C  
HETATM   33  O   UNL     1     -12.766   5.738  72.639  1.00  0.00    -0.473 OA 
HETATM   34  H   UNL     1     -13.633   5.542  72.974  1.00  0.00     0.000 HD 
ENDBRANCH  20  32
ENDBRANCH  13  18
ENDBRANCH  10  11
ENDBRANCH   7  10
ENDBRANCH   3   4
ENDBRANCH   2   3
TORSDOF 6
ENDMDL
MODEL       39
REMARK 921   NORMALIZED FREE ENERGY PREDICTED BY IDOCK:   -6.51 KCAL/MOL
REMARK 922        TOTAL FREE ENERGY PREDICTED BY IDOCK:   -9.93 KCAL/MOL
REMARK 923 INTER-LIGAND FREE ENERGY PREDICTED BY IDOCK:   -8.64 KCAL/MOL
REMARK 924 INTRA-LIGAND FREE ENERGY PREDICTED BY IDOCK:   -1.29 KCAL/MOL
REMARK 927      BINDING AFFINITY PREDICTED BY RF-SCORE:    0.00 PKD
ROOT
HETATM    1  C   UNL     1      -7.854   2.723  66.202  1.00  0.00    -0.081 C  
HETATM    2  C   UNL     1      -7.527   3.880  65.271  1.00  0.00    -0.080 C  
ENDROOT
BRANCH   2   3
HETATM    3  O   UNL     1      -8.739   4.537  64.879  1.00  0.00    -0.128 OA 
BRANCH   3   4
HETATM    4  C   UNL     1      -9.213   5.463  65.773  1.00  0.00    -0.138 A  
HETATM    5  C   UNL     1      -8.320   6.467  66.148  1.00  0.00    -0.128 A  
HETATM    6  C   UNL     1      -8.643   7.362  67.177  1.00  0.00    -0.118 A  
HETATM    7  C   UNL     1      -9.872   7.262  67.851  1.00  0.00    -0.172 A  
HETATM    8  C   UNL     1     -10.811   6.335  67.374  1.00  0.00    -0.448 A  
HETATM    9  C   UNL     1     -10.487   5.446  66.338  1.00  0.00    -0.324 A  
BRANCH   7  10
HETATM   10  C   UNL     1     -10.089   7.974  69.177  1.00  0.00    -0.202 C  
BRANCH  10  11
HETATM   11  C   UNL     1     -10.778   9.320  69.202  1.00  0.00    -0.202 A  
HETATM   12  C   UNL     1     -10.857  10.061  68.016  1.00  0.00    -0.311 A  
HETATM   13  C   UNL     1     -11.474  11.337  67.950  1.00  0.00    -0.360 A  
HETATM   14 CL   UNL     1     -11.203   9.156  71.901  1.00  0.00    -0.440 Cl 
HETATM   15  C   UNL     1     -12.218  11.764  69.049  1.00  0.00    -0.132 A  
HETATM   16  C   UNL     1     -12.163  11.033  70.241  1.00  0.00    -0.447 A  
HETATM   17  C   UNL     1     -11.394   9.862  70.334  1.00  0.00    -0.307 A  
BRANCH  13  18
HETATM   18  C   UNL     1     -11.040  12.280  66.842  1.00  0.00    -0.290 C  
HETATM   19  C   UNL     1     -11.770  11.971  64.695  1.00  0.00    -0.287 C  
HETATM   20  C   UNL     1     -10.352  12.499  64.716  1.00  0.00    -0.307 C  
HETATM   21  O   UNL     1     -12.246  12.297  66.001  1.00  0.00    -0.646 OA 
HETATM   22  H   UNL     1     -12.031  15.406  67.369  1.00  0.00     0.000 HD 
HETATM   23  O   UNL     1      -9.927  11.874  65.962  1.00  0.00    -0.220 OA 
HETATM   24  C   UNL     1     -10.130  14.039  64.877  1.00  0.00    -0.256 C  
HETATM   25  O   UNL     1     -12.131  14.496  67.112  1.00  0.00    -0.397 OA 
HETATM   26  C   UNL     1      -9.847  14.437  66.348  1.00  0.00    -0.295 C  
HETATM   27  O   UNL     1     -11.217  14.763  64.301  1.00  0.00    -0.614 OA 
HETATM   28  H   UNL     1      -8.344  14.315  67.634  1.00  0.00     0.000 HD 
HETATM   29  H   UNL     1     -11.082  15.698  64.398  1.00  0.00     0.000 HD 
HETATM   30  O   UNL     1      -8.517  14.071  66.732  1.00  0.00    -0.141 OA 
HETATM   31  C   UNL     1     -10.876  13.780  67.266  1.00  0.00    -0.285 C  
BRANCH  20  32
HETATM   32  C   UNL     1      -9.707  12.092  63.372  1.00  0.00    -0.182 C  
HETATM   33  O   UNL     1     -10.230  10.876  62.830  1.00  0.00    -0.699 OA 
HETATM   34  H   UNL     1      -9.833  10.625  62.004  1.00  0.00     0.000 HD 
ENDBRANCH  20  32
ENDBRANCH  13  18
ENDBRANCH  10  11
ENDBRANCH   7  10
ENDBRANCH   3   4
ENDBRANCH   2   3
TORSDOF 6
ENDMDL
MODEL       40
REMARK 921   NORMALIZED FREE ENERGY PREDICTED BY IDOCK:   -6.50 KCAL/MOL
REMARK 922        TOTAL FREE ENERGY PREDICTED BY IDOCK:   -9.92 KCAL/MOL
REMARK 923 INTER-LIGAND FREE ENERGY PREDICTED BY IDOCK:   -8.77 KCAL/MOL
REMARK 924 INTRA-LIGAND FREE ENERGY PREDICTED BY IDOCK:   -1.15 KCAL/MOL
REMARK 927      BINDING AFFINITY PREDICTED BY RF-SCORE:    0.00 PKD
ROOT
HETATM    1  C   UNL     1     -11.070   3.262  73.535  1.00  0.00    -0.314 C  
HETATM    2  C   UNL     1     -11.338   4.724  73.214  1.00  0.00    -0.322 C  
ENDROOT
BRANCH   2   3
HETATM    3  O   UNL     1     -10.120   5.354  72.797  1.00  0.00    -0.173 OA 
BRANCH   3   4
HETATM    4  C   UNL     1     -10.091   5.752  71.485  1.00  0.00    -0.196 A  
HETATM    5  C   UNL     1     -10.479   7.067  71.233  1.00  0.00    -0.224 A  
HETATM    6  C   UNL     1     -10.646   7.523  69.918  1.00  0.00    -0.243 A  
HETATM    7  C   UNL     1     -10.429   6.660  68.830  1.00  0.00    -0.241 A  
HETATM    8  C   UNL     1      -9.911   5.384  69.095  1.00  0.00    -0.242 A  
HETATM    9  C   UNL     1      -9.737   4.934  70.412  1.00  0.00    -0.284 A  
BRANCH   7  10
HETATM   10  C   UNL     1     -10.939   7.019  67.444  1.00  0.00    -0.336 C  
BRANCH  10  11
HETATM   11  C   UNL     1     -10.159   7.987  66.583  1.00  0.00    -0.329 A  
HETATM   12  C   UNL     1     -10.514   9.343  66.599  1.00  0.00    -0.238 A  
HETATM   13  C   UNL     1      -9.846  10.318  65.814  1.00  0.00    -0.320 A  
HETATM   14 CL   UNL     1      -8.638   5.971  65.529  1.00  0.00    -0.154 Cl 
HETATM   15  C   UNL     1      -8.660   9.951  65.181  1.00  0.00    -0.166 A  
HETATM   16  C   UNL     1      -8.280   8.605  65.162  1.00  0.00    -0.152 A  
HETATM   17  C   UNL     1      -9.061   7.626  65.798  1.00  0.00     0.009 A  
BRANCH  13  18
HETATM   18  C   UNL     1     -10.605  11.584  65.457  1.00  0.00    -0.281 C  
HETATM   19  C   UNL     1     -10.151  13.556  66.525  1.00  0.00    -0.282 C  
HETATM   20  C   UNL     1     -11.624  13.443  66.198  1.00  0.00    -0.346 C  
HETATM   21  O   UNL     1      -9.559  12.600  65.647  1.00  0.00    -0.190 OA 
HETATM   22  H   UNL     1     -10.148  12.493  62.296  1.00  0.00     0.000 HD 
HETATM   23  O   UNL     1     -11.739  11.994  66.308  1.00  0.00    -0.504 OA 
HETATM   24  C   UNL     1     -12.104  13.832  64.761  1.00  0.00    -0.410 C  
HETATM   25  O   UNL     1      -9.919  12.403  63.214  1.00  0.00    -0.392 OA 
HETATM   26  C   UNL     1     -12.238  12.596  63.836  1.00  0.00    -0.481 C  
HETATM   27  O   UNL     1     -11.266  14.851  64.215  1.00  0.00    -0.629 OA 
HETATM   28  H   UNL     1     -13.488  11.077  63.596  1.00  0.00     0.000 HD 
HETATM   29  H   UNL     1     -11.558  15.087  63.343  1.00  0.00     0.000 HD 
HETATM   30  O   UNL     1     -13.406  11.834  64.163  1.00  0.00    -0.521 OA 
HETATM   31  C   UNL     1     -10.982  11.733  63.944  1.00  0.00    -0.407 C  
BRANCH  20  32
HETATM   32  C   UNL     1     -12.371  14.368  67.185  1.00  0.00    -0.071 C  
HETATM   33  O   UNL     1     -11.786  14.406  68.490  1.00  0.00    -0.326 OA 
HETATM   34  H   UNL     1     -12.246  14.974  69.097  1.00  0.00     0.000 HD 
ENDBRANCH  20  32
ENDBRANCH  13  18
ENDBRANCH  10  11
ENDBRANCH   7  10
ENDBRANCH   3   4
ENDBRANCH   2   3
TORSDOF 6
ENDMDL
MODEL       41
REMARK 921   NORMALIZED FREE ENERGY PREDICTED BY IDOCK:   -6.46 KCAL/MOL
REMARK 922        TOTAL FREE ENERGY PREDICTED BY IDOCK:   -9.86 KCAL/MOL
REMARK 923 INTER-LIGAND FREE ENERGY PREDICTED BY IDOCK:   -9.05 KCAL/MOL
REMARK 924 INTRA-LIGAND FREE ENERGY PREDICTED BY IDOCK:   -0.81 KCAL/MOL
REMARK 927      BINDING AFFINITY PREDICTED BY RF-SCORE:    0.00 PKD
ROOT
HETATM    1  C   UNL     1     -13.661   7.390  71.410  1.00  0.00    -0.410 C  
HETATM    2  C   UNL     1     -12.666   8.249  72.175  1.00  0.00    -0.329 C  
ENDROOT
BRANCH   2   3
HETATM    3  O   UNL     1     -13.259   9.520  72.470  1.00  0.00    -0.408 OA 
BRANCH   3   4
HETATM    4  C   UNL     1     -12.820  10.560  71.691  1.00  0.00    -0.475 A  
HETATM    5  C   UNL     1     -13.241  11.834  72.074  1.00  0.00    -0.460 A  
HETATM    6  C   UNL     1     -12.990  12.944  71.256  1.00  0.00    -0.317 A  
HETATM    7  C   UNL     1     -12.314  12.793  70.034  1.00  0.00    -0.182 A  
HETATM    8  C   UNL     1     -11.782  11.531  69.728  1.00  0.00    -0.426 A  
HETATM    9  C   UNL     1     -12.028  10.424  70.552  1.00  0.00    -0.427 A  
BRANCH   7  10
HETATM   10  C   UNL     1     -12.347  13.896  68.988  1.00  0.00    -0.122 C  
BRANCH  10  11
HETATM   11  C   UNL     1     -11.148  14.123  68.096  1.00  0.00    -0.276 A  
HETATM   12  C   UNL     1     -10.275  15.179  68.393  1.00  0.00    -0.221 A  
HETATM   13  C   UNL     1      -9.133  15.473  67.604  1.00  0.00    -0.183 A  
HETATM   14 CL   UNL     1     -11.901  12.104  66.411  1.00  0.00    -0.394 Cl 
HETATM   15  C   UNL     1      -8.747  14.546  66.637  1.00  0.00    -0.162 A  
HETATM   16  C   UNL     1      -9.598  13.477  66.333  1.00  0.00    -0.268 A  
HETATM   17  C   UNL     1     -10.817  13.311  67.008  1.00  0.00    -0.269 A  
BRANCH  13  18
HETATM   18  C   UNL     1      -8.591  16.891  67.638  1.00  0.00    -0.208 C  
HETATM   19  C   UNL     1      -9.760  18.561  68.676  1.00  0.00    -0.365 C  
HETATM   20  C   UNL     1      -9.038  19.083  67.454  1.00  0.00    -0.293 C  
HETATM   21  O   UNL     1      -9.071  17.342  68.952  1.00  0.00    -0.252 OA 
HETATM   22  H   UNL     1      -5.687  17.106  69.235  1.00  0.00     0.000 HD 
HETATM   23  O   UNL     1      -9.099  17.866  66.654  1.00  0.00    -0.254 OA 
HETATM   24  C   UNL     1      -7.527  19.470  67.585  1.00  0.00    -0.256 C  
HETATM   25  O   UNL     1      -6.632  17.035  69.159  1.00  0.00    -0.206 OA 
HETATM   26  C   UNL     1      -6.590  18.324  67.125  1.00  0.00    -0.186 C  
HETATM   27  O   UNL     1      -7.243  19.928  68.907  1.00  0.00    -0.319 OA 
HETATM   28  H   UNL     1      -6.001  17.513  65.416  1.00  0.00     0.000 HD 
HETATM   29  H   UNL     1      -6.327  20.162  68.986  1.00  0.00     0.000 HD 
HETATM   30  O   UNL     1      -6.575  18.215  65.697  1.00  0.00    -0.267 OA 
HETATM   31  C   UNL     1      -7.034  17.009  67.763  1.00  0.00    -0.145 C  
BRANCH  20  32
HETATM   32  C   UNL     1      -9.788  20.358  67.005  1.00  0.00    -0.453 C  
HETATM   33  O   UNL     1     -10.259  20.300  65.656  1.00  0.00    -0.510 OA 
HETATM   34  H   UNL     1     -10.720  21.084  65.380  1.00  0.00     0.000 HD 
ENDBRANCH  20  32
ENDBRANCH  13  18
ENDBRANCH  10  11
ENDBRANCH   7  10
ENDBRANCH   3   4
ENDBRANCH   2   3
TORSDOF 6
ENDMDL
MODEL       42
REMARK 921   NORMALIZED FREE ENERGY PREDICTED BY IDOCK:   -6.45 KCAL/MOL
REMARK 922        TOTAL FREE ENERGY PREDICTED BY IDOCK:   -9.84 KCAL/MOL
REMARK 923 INTER-LIGAND FREE ENERGY PREDICTED BY IDOCK:   -8.88 KCAL/MOL
REMARK 924 INTRA-LIGAND FREE ENERGY PREDICTED BY IDOCK:   -0.96 KCAL/MOL
REMARK 927      BINDING AFFINITY PREDICTED BY RF-SCORE:    0.00 PKD
ROOT
HETATM    1  C   UNL     1     -11.059   5.922  71.644  1.00  0.00    -0.319 C  
HETATM    2  C   UNL     1     -10.796   6.962  72.721  1.00  0.00    -0.272 C  
ENDROOT
BRANCH   2   3
HETATM    3  O   UNL     1     -11.895   7.880  72.778  1.00  0.00    -0.340 OA 
BRANCH   3   4
HETATM    4  C   UNL     1     -11.753   9.004  72.005  1.00  0.00    -0.347 A  
HETATM    5  C   UNL     1     -12.814   9.908  72.037  1.00  0.00    -0.488 A  
HETATM    6  C   UNL     1     -12.847  11.002  71.160  1.00  0.00    -0.491 A  
HETATM    7  C   UNL     1     -11.812  11.204  70.231  1.00  0.00    -0.455 A  
HETATM    8  C   UNL     1     -10.690  10.364  70.303  1.00  0.00    -0.249 A  
HETATM    9  C   UNL     1     -10.658   9.276  71.187  1.00  0.00    -0.402 A  
BRANCH   7  10
HETATM   10  C   UNL     1     -11.999  12.153  69.058  1.00  0.00    -0.302 C  
BRANCH  10  11
HETATM   11  C   UNL     1     -10.808  12.550  68.216  1.00  0.00    -0.258 A  
HETATM   12  C   UNL     1     -10.249  13.823  68.393  1.00  0.00    -0.248 A  
HETATM   13  C   UNL     1      -9.140  14.284  67.638  1.00  0.00    -0.192 A  
HETATM   14 CL   UNL     1     -10.881  10.190  66.832  1.00  0.00    -0.230 Cl 
HETATM   15  C   UNL     1      -8.448  13.360  66.856  1.00  0.00    -0.066 A  
HETATM   16  C   UNL     1      -8.981  12.079  66.676  1.00  0.00    -0.204 A  
HETATM   17  C   UNL     1     -10.185  11.704  67.294  1.00  0.00    -0.201 A  
BRANCH  13  18
HETATM   18  C   UNL     1      -8.963  15.783  67.477  1.00  0.00    -0.194 C  
HETATM   19  C   UNL     1      -6.895  16.678  67.077  1.00  0.00    -0.209 C  
HETATM   20  C   UNL     1      -7.724  17.596  67.948  1.00  0.00    -0.216 C  
HETATM   21  O   UNL     1      -7.881  15.833  66.483  1.00  0.00    -0.220 OA 
HETATM   22  H   UNL     1     -10.654  16.995  64.889  1.00  0.00     0.000 HD 
HETATM   23  O   UNL     1      -8.497  16.569  68.637  1.00  0.00    -0.220 OA 
HETATM   24  C   UNL     1      -8.749  18.557  67.260  1.00  0.00    -0.266 C  
HETATM   25  O   UNL     1      -9.937  16.546  65.323  1.00  0.00    -0.531 OA 
HETATM   26  C   UNL     1     -10.183  17.970  67.251  1.00  0.00    -0.364 C  
HETATM   27  O   UNL     1      -8.288  18.930  65.962  1.00  0.00    -0.460 OA 
HETATM   28  H   UNL     1     -11.658  17.689  68.544  1.00  0.00     0.000 HD 
HETATM   29  H   UNL     1      -8.911  19.513  65.545  1.00  0.00     0.000 HD 
HETATM   30  O   UNL     1     -10.779  18.049  68.551  1.00  0.00    -0.244 OA 
HETATM   31  C   UNL     1     -10.144  16.523  66.761  1.00  0.00    -0.288 C  
BRANCH  20  32
HETATM   32  C   UNL     1      -6.729  18.486  68.728  1.00  0.00    -0.266 C  
HETATM   33  O   UNL     1      -7.348  19.593  69.390  1.00  0.00    -0.337 OA 
HETATM   34  H   UNL     1      -6.736  20.140  69.869  1.00  0.00     0.000 HD 
ENDBRANCH  20  32
ENDBRANCH  13  18
ENDBRANCH  10  11
ENDBRANCH   7  10
ENDBRANCH   3   4
ENDBRANCH   2   3
TORSDOF 6
ENDMDL
MODEL       43
REMARK 921   NORMALIZED FREE ENERGY PREDICTED BY IDOCK:   -6.43 KCAL/MOL
REMARK 922        TOTAL FREE ENERGY PREDICTED BY IDOCK:   -9.82 KCAL/MOL
REMARK 923 INTER-LIGAND FREE ENERGY PREDICTED BY IDOCK:   -8.57 KCAL/MOL
REMARK 924 INTRA-LIGAND FREE ENERGY PREDICTED BY IDOCK:   -1.25 KCAL/MOL
REMARK 927      BINDING AFFINITY PREDICTED BY RF-SCORE:    0.00 PKD
ROOT
HETATM    1  C   UNL     1     -12.644  15.526  70.530  1.00  0.00    -0.462 C  
HETATM    2  C   UNL     1     -11.358  15.696  69.736  1.00  0.00    -0.327 C  
ENDROOT
BRANCH   2   3
HETATM    3  O   UNL     1     -11.647  15.613  68.335  1.00  0.00    -0.365 OA 
BRANCH   3   4
HETATM    4  C   UNL     1     -11.514  14.362  67.787  1.00  0.00    -0.336 A  
HETATM    5  C   UNL     1     -10.540  13.543  68.357  1.00  0.00    -0.258 A  
HETATM    6  C   UNL     1     -10.208  12.315  67.770  1.00  0.00    -0.206 A  
HETATM    7  C   UNL     1     -10.847  11.889  66.593  1.00  0.00    -0.315 A  
HETATM    8  C   UNL     1     -11.914  12.660  66.109  1.00  0.00    -0.458 A  
HETATM    9  C   UNL     1     -12.249  13.884  66.704  1.00  0.00    -0.465 A  
BRANCH   7  10
HETATM   10  C   UNL     1     -10.264  10.758  65.761  1.00  0.00    -0.319 C  
BRANCH  10  11
HETATM   11  C   UNL     1      -9.971   9.423  66.406  1.00  0.00    -0.346 A  
HETATM   12  C   UNL     1     -10.585   9.114  67.628  1.00  0.00    -0.307 A  
HETATM   13  C   UNL     1     -10.360   7.891  68.311  1.00  0.00    -0.239 A  
HETATM   14 CL   UNL     1      -8.186   8.758  64.443  1.00  0.00    -0.163 Cl 
HETATM   15  C   UNL     1      -9.682   6.877  67.635  1.00  0.00    -0.151 A  
HETATM   16  C   UNL     1      -9.071   7.160  66.408  1.00  0.00    -0.189 A  
HETATM   17  C   UNL     1      -9.158   8.440  65.837  1.00  0.00    -0.171 A  
BRANCH  13  18
HETATM   18  C   UNL     1     -10.583   7.863  69.812  1.00  0.00    -0.242 C  
HETATM   19  C   UNL     1      -9.813   6.117  71.074  1.00  0.00    -0.182 C  
HETATM   20  C   UNL     1     -11.125   6.640  71.615  1.00  0.00    -0.250 C  
HETATM   21  O   UNL     1      -9.352   7.200  70.266  1.00  0.00    -0.156 OA 
HETATM   22  H   UNL     1      -9.126  10.414  71.362  1.00  0.00     0.000 HD 
HETATM   23  O   UNL     1     -11.704   7.067  70.347  1.00  0.00    -0.316 OA 
HETATM   24  C   UNL     1     -11.104   7.891  72.553  1.00  0.00    -0.362 C  
HETATM   25  O   UNL     1      -9.163   9.567  70.932  1.00  0.00    -0.217 OA 
HETATM   26  C   UNL     1     -11.387   9.204  71.781  1.00  0.00    -0.381 C  
HETATM   27  O   UNL     1      -9.888   7.933  73.300  1.00  0.00    -0.293 OA 
HETATM   28  H   UNL     1     -12.949  10.119  70.974  1.00  0.00     0.000 HD 
HETATM   29  H   UNL     1      -9.875   8.692  73.870  1.00  0.00     0.000 HD 
HETATM   30  O   UNL     1     -12.776   9.314  71.447  1.00  0.00    -0.315 OA 
HETATM   31  C   UNL     1     -10.522   9.259  70.523  1.00  0.00    -0.255 C  
BRANCH  20  32
HETATM   32  C   UNL     1     -11.764   5.486  72.422  1.00  0.00    -0.117 C  
HETATM   33  O   UNL     1     -11.337   5.435  73.786  1.00  0.00    -0.407 OA 
HETATM   34  H   UNL     1     -11.730   4.726  74.281  1.00  0.00     0.000 HD 
ENDBRANCH  20  32
ENDBRANCH  13  18
ENDBRANCH  10  11
ENDBRANCH   7  10
ENDBRANCH   3   4
ENDBRANCH   2   3
TORSDOF 6
ENDMDL
MODEL       44
REMARK 921   NORMALIZED FREE ENERGY PREDICTED BY IDOCK:   -6.42 KCAL/MOL
REMARK 922        TOTAL FREE ENERGY PREDICTED BY IDOCK:   -9.81 KCAL/MOL
REMARK 923 INTER-LIGAND FREE ENERGY PREDICTED BY IDOCK:   -8.33 KCAL/MOL
REMARK 924 INTRA-LIGAND FREE ENERGY PREDICTED BY IDOCK:   -1.48 KCAL/MOL
REMARK 927      BINDING AFFINITY PREDICTED BY RF-SCORE:    0.00 PKD
ROOT
HETATM    1  C   UNL     1      -9.132   5.978  71.343  1.00  0.00    -0.149 C  
HETATM    2  C   UNL     1      -8.843   7.470  71.277  1.00  0.00    -0.133 C  
ENDROOT
BRANCH   2   3
HETATM    3  O   UNL     1      -8.299   7.795  69.992  1.00  0.00    -0.126 OA 
BRANCH   3   4
HETATM    4  C   UNL     1      -9.042   8.679  69.253  1.00  0.00    -0.149 A  
HETATM    5  C   UNL     1      -8.742  10.029  69.427  1.00  0.00    -0.195 A  
HETATM    6  C   UNL     1      -9.548  11.020  68.851  1.00  0.00    -0.174 A  
HETATM    7  C   UNL     1     -10.677  10.670  68.090  1.00  0.00    -0.267 A  
HETATM    8  C   UNL     1     -10.888   9.311  67.813  1.00  0.00    -0.192 A  
HETATM    9  C   UNL     1     -10.074   8.323  68.385  1.00  0.00    -0.227 A  
BRANCH   7  10
HETATM   10  C   UNL     1     -11.743  11.704  67.765  1.00  0.00    -0.315 C  
BRANCH  10  11
HETATM   11  C   UNL     1     -11.725  13.046  68.460  1.00  0.00    -0.377 A  
HETATM   12  C   UNL     1     -11.251  14.163  67.760  1.00  0.00    -0.307 A  
HETATM   13  C   UNL     1     -11.187  15.458  68.337  1.00  0.00    -0.318 A  
HETATM   14 CL   UNL     1     -12.628  11.951  70.800  1.00  0.00    -0.368 Cl 
HETATM   15  C   UNL     1     -11.823  15.664  69.561  1.00  0.00    -0.387 A  
HETATM   16  C   UNL     1     -12.314  14.563  70.272  1.00  0.00    -0.408 A  
HETATM   17  C   UNL     1     -12.203  13.262  69.756  1.00  0.00    -0.222 A  
BRANCH  13  18
HETATM   18  C   UNL     1     -10.186  16.444  67.762  1.00  0.00    -0.274 C  
HETATM   19  C   UNL     1      -7.938  16.043  67.908  1.00  0.00    -0.137 C  
HETATM   20  C   UNL     1      -8.234  17.522  68.030  1.00  0.00    -0.239 C  
HETATM   21  O   UNL     1      -9.127  15.533  67.305  1.00  0.00    -0.193 OA 
HETATM   22  H   UNL     1     -10.517  16.824  64.479  1.00  0.00     0.000 HD 
HETATM   23  O   UNL     1      -9.538  17.408  68.672  1.00  0.00    -0.279 OA 
HETATM   24  C   UNL     1      -8.439  18.355  66.722  1.00  0.00    -0.264 C  
HETATM   25  O   UNL     1     -10.244  16.389  65.279  1.00  0.00    -0.575 OA 
HETATM   26  C   UNL     1      -9.937  18.518  66.362  1.00  0.00    -0.379 C  
HETATM   27  O   UNL     1      -7.664  17.807  65.656  1.00  0.00    -0.545 OA 
HETATM   28  H   UNL     1     -11.491  19.568  67.005  1.00  0.00     0.000 HD 
HETATM   29  H   UNL     1      -7.788  18.313  64.862  1.00  0.00     0.000 HD 
HETATM   30  O   UNL     1     -10.572  19.469  67.225  1.00  0.00    -0.445 OA 
HETATM   31  C   UNL     1     -10.637  17.162  66.444  1.00  0.00    -0.172 C  
BRANCH  20  32
HETATM   32  C   UNL     1      -7.040  18.153  68.781  1.00  0.00    -0.279 C  
HETATM   33  O   UNL     1      -6.558  19.358  68.181  1.00  0.00    -0.235 OA 
HETATM   34  H   UNL     1      -5.824  19.746  68.642  1.00  0.00     0.000 HD 
ENDBRANCH  20  32
ENDBRANCH  13  18
ENDBRANCH  10  11
ENDBRANCH   7  10
ENDBRANCH   3   4
ENDBRANCH   2   3
TORSDOF 6
ENDMDL
MODEL       45
REMARK 921   NORMALIZED FREE ENERGY PREDICTED BY IDOCK:   -6.39 KCAL/MOL
REMARK 922        TOTAL FREE ENERGY PREDICTED BY IDOCK:   -9.77 KCAL/MOL
REMARK 923 INTER-LIGAND FREE ENERGY PREDICTED BY IDOCK:   -8.71 KCAL/MOL
REMARK 924 INTRA-LIGAND FREE ENERGY PREDICTED BY IDOCK:   -1.06 KCAL/MOL
REMARK 927      BINDING AFFINITY PREDICTED BY RF-SCORE:    0.00 PKD
ROOT
HETATM    1  C   UNL     1     -12.490  15.688  74.324  1.00  0.00    -0.804 C  
HETATM    2  C   UNL     1     -13.066  15.242  72.989  1.00  0.00    -0.506 C  
ENDROOT
BRANCH   2   3
HETATM    3  O   UNL     1     -12.364  15.895  71.924  1.00  0.00    -0.413 OA 
BRANCH   3   4
HETATM    4  C   UNL     1     -12.099  15.107  70.833  1.00  0.00    -0.334 A  
HETATM    5  C   UNL     1     -11.552  15.754  69.726  1.00  0.00    -0.359 A  
HETATM    6  C   UNL     1     -11.400  15.080  68.507  1.00  0.00    -0.317 A  
HETATM    7  C   UNL     1     -11.800  13.739  68.378  1.00  0.00    -0.411 A  
HETATM    8  C   UNL     1     -12.223  13.064  69.533  1.00  0.00    -0.198 A  
HETATM    9  C   UNL     1     -12.366  13.741  70.753  1.00  0.00    -0.451 A  
BRANCH   7  10
HETATM   10  C   UNL     1     -11.974  13.111  67.004  1.00  0.00    -0.412 C  
BRANCH  10  11
HETATM   11  C   UNL     1     -11.184  11.876  66.637  1.00  0.00    -0.384 A  
HETATM   12  C   UNL     1     -11.114  10.820  67.556  1.00  0.00    -0.374 A  
HETATM   13  C   UNL     1     -10.386   9.629  67.301  1.00  0.00    -0.310 A  
HETATM   14 CL   UNL     1     -10.386  12.978  64.263  1.00  0.00    -0.418 Cl 
HETATM   15  C   UNL     1      -9.912   9.414  66.007  1.00  0.00    -0.352 A  
HETATM   16  C   UNL     1      -9.982  10.451  65.070  1.00  0.00    -0.399 A  
HETATM   17  C   UNL     1     -10.549  11.690  65.406  1.00  0.00    -0.280 A  
BRANCH  13  18
HETATM   18  C   UNL     1      -9.900   8.824  68.492  1.00  0.00    -0.168 C  
HETATM   19  C   UNL     1      -7.680   8.327  68.738  1.00  0.00    -0.114 C  
HETATM   20  C   UNL     1      -8.548   7.195  69.242  1.00  0.00    -0.137 C  
HETATM   21  O   UNL     1      -8.582   9.433  68.723  1.00  0.00    -0.123 OA 
HETATM   22  H   UNL     1     -10.499  10.343  71.384  1.00  0.00     0.000 HD 
HETATM   23  O   UNL     1      -9.663   7.377  68.320  1.00  0.00    -0.148 OA 
HETATM   24  C   UNL     1      -9.131   7.286  70.690  1.00  0.00    -0.157 C  
HETATM   25  O   UNL     1     -10.037  10.180  70.570  1.00  0.00    -0.142 OA 
HETATM   26  C   UNL     1     -10.579   7.837  70.703  1.00  0.00    -0.222 C  
HETATM   27  O   UNL     1      -8.247   8.020  71.538  1.00  0.00    -0.101 OA 
HETATM   28  H   UNL     1     -12.397   7.183  70.256  1.00  0.00     0.000 HD 
HETATM   29  H   UNL     1      -8.601   8.075  72.417  1.00  0.00     0.000 HD 
HETATM   30  O   UNL     1     -11.509   6.846  70.248  1.00  0.00    -0.311 OA 
HETATM   31  C   UNL     1     -10.661   9.092  69.836  1.00  0.00    -0.230 C  
BRANCH  20  32
HETATM   32  C   UNL     1      -7.684   5.915  69.186  1.00  0.00    -0.091 C  
HETATM   33  O   UNL     1      -6.627   5.894  70.150  1.00  0.00    -0.043 OA 
HETATM   34  H   UNL     1      -6.096   5.107  70.116  1.00  0.00     0.000 HD 
ENDBRANCH  20  32
ENDBRANCH  13  18
ENDBRANCH  10  11
ENDBRANCH   7  10
ENDBRANCH   3   4
ENDBRANCH   2   3
TORSDOF 6
ENDMDL
MODEL       46
REMARK 921   NORMALIZED FREE ENERGY PREDICTED BY IDOCK:   -6.39 KCAL/MOL
REMARK 922        TOTAL FREE ENERGY PREDICTED BY IDOCK:   -9.77 KCAL/MOL
REMARK 923 INTER-LIGAND FREE ENERGY PREDICTED BY IDOCK:   -8.32 KCAL/MOL
REMARK 924 INTRA-LIGAND FREE ENERGY PREDICTED BY IDOCK:   -1.44 KCAL/MOL
REMARK 927      BINDING AFFINITY PREDICTED BY RF-SCORE:    0.00 PKD
ROOT
HETATM    1  C   UNL     1      -7.288   7.987  74.518  1.00  0.00    -0.224 C  
HETATM    2  C   UNL     1      -6.330   6.983  73.896  1.00  0.00    -0.066 C  
ENDROOT
BRANCH   2   3
HETATM    3  O   UNL     1      -5.871   7.479  72.632  1.00  0.00    -0.040 OA 
BRANCH   3   4
HETATM    4  C   UNL     1      -6.811   7.479  71.633  1.00  0.00    -0.053 A  
HETATM    5  C   UNL     1      -6.921   8.657  70.894  1.00  0.00    -0.064 A  
HETATM    6  C   UNL     1      -7.958   8.823  69.966  1.00  0.00    -0.108 A  
HETATM    7  C   UNL     1      -8.907   7.807  69.766  1.00  0.00    -0.139 A  
HETATM    8  C   UNL     1      -8.706   6.580  70.417  1.00  0.00    -0.147 A  
HETATM    9  C   UNL     1      -7.662   6.415  71.339  1.00  0.00    -0.099 A  
BRANCH   7  10
HETATM   10  C   UNL     1     -10.214   8.099  69.046  1.00  0.00    -0.228 C  
BRANCH  10  11
HETATM   11  C   UNL     1     -10.898   9.433  69.242  1.00  0.00    -0.190 A  
HETATM   12  C   UNL     1     -11.108  10.255  68.126  1.00  0.00    -0.324 A  
HETATM   13  C   UNL     1     -11.729  11.527  68.217  1.00  0.00    -0.371 A  
HETATM   14 CL   UNL     1     -11.024   9.078  71.952  1.00  0.00    -0.438 Cl 
HETATM   15  C   UNL     1     -12.348  11.870  69.418  1.00  0.00    -0.056 A  
HETATM   16  C   UNL     1     -12.162  11.058  70.543  1.00  0.00    -0.472 A  
HETATM   17  C   UNL     1     -11.387   9.890  70.469  1.00  0.00    -0.327 A  
BRANCH  13  18
HETATM   18  C   UNL     1     -11.420  12.548  67.137  1.00  0.00    -0.351 C  
HETATM   19  C   UNL     1      -9.524  13.824  67.246  1.00  0.00    -0.236 C  
HETATM   20  C   UNL     1     -10.672  14.608  66.650  1.00  0.00    -0.305 C  
HETATM   21  O   UNL     1      -9.953  12.471  67.091  1.00  0.00    -0.212 OA 
HETATM   22  H   UNL     1     -11.040  11.160  64.144  1.00  0.00     0.000 HD 
HETATM   23  O   UNL     1     -11.753  13.965  67.386  1.00  0.00    -0.345 OA 
HETATM   24  C   UNL     1     -10.987  14.435  65.128  1.00  0.00    -0.373 C  
HETATM   25  O   UNL     1     -10.781  11.409  65.024  1.00  0.00    -0.292 OA 
HETATM   26  C   UNL     1     -12.119  13.407  64.880  1.00  0.00    -0.392 C  
HETATM   27  O   UNL     1      -9.793  14.138  64.403  1.00  0.00    -0.623 OA 
HETATM   28  H   UNL     1     -14.091  13.328  65.065  1.00  0.00     0.000 HD 
HETATM   29  H   UNL     1      -9.985  14.033  63.479  1.00  0.00     0.000 HD 
HETATM   30  O   UNL     1     -13.397  13.959  65.217  1.00  0.00    -0.732 OA 
HETATM   31  C   UNL     1     -11.848  12.138  65.687  1.00  0.00    -0.276 C  
BRANCH  20  32
HETATM   32  C   UNL     1     -10.351  16.104  66.873  1.00  0.00    -0.297 C  
HETATM   33  O   UNL     1     -10.243  16.854  65.660  1.00  0.00    -0.542 OA 
HETATM   34  H   UNL     1     -10.045  17.773  65.798  1.00  0.00     0.000 HD 
ENDBRANCH  20  32
ENDBRANCH  13  18
ENDBRANCH  10  11
ENDBRANCH   7  10
ENDBRANCH   3   4
ENDBRANCH   2   3
TORSDOF 6
ENDMDL
MODEL       47
REMARK 921   NORMALIZED FREE ENERGY PREDICTED BY IDOCK:   -6.39 KCAL/MOL
REMARK 922        TOTAL FREE ENERGY PREDICTED BY IDOCK:   -9.76 KCAL/MOL
REMARK 923 INTER-LIGAND FREE ENERGY PREDICTED BY IDOCK:   -8.41 KCAL/MOL
REMARK 924 INTRA-LIGAND FREE ENERGY PREDICTED BY IDOCK:   -1.35 KCAL/MOL
REMARK 927      BINDING AFFINITY PREDICTED BY RF-SCORE:    0.00 PKD
ROOT
HETATM    1  C   UNL     1      -7.853   7.149  63.226  1.00  0.00    -0.114 C  
HETATM    2  C   UNL     1      -8.284   8.363  62.418  1.00  0.00    -0.181 C  
ENDROOT
BRANCH   2   3
HETATM    3  O   UNL     1      -7.661   9.538  62.951  1.00  0.00    -0.110 OA 
BRANCH   3   4
HETATM    4  C   UNL     1      -8.522  10.463  63.483  1.00  0.00    -0.171 A  
HETATM    5  C   UNL     1      -8.540  10.557  64.874  1.00  0.00    -0.179 A  
HETATM    6  C   UNL     1      -9.498  11.346  65.525  1.00  0.00    -0.251 A  
HETATM    7  C   UNL     1     -10.462  12.053  64.786  1.00  0.00    -0.335 A  
HETATM    8  C   UNL     1     -10.349  12.054  63.388  1.00  0.00    -0.468 A  
HETATM    9  C   UNL     1      -9.383  11.270  62.741  1.00  0.00    -0.362 A  
BRANCH   7  10
HETATM   10  C   UNL     1     -11.702  12.612  65.465  1.00  0.00    -0.446 C  
BRANCH  10  11
HETATM   11  C   UNL     1     -11.569  13.365  66.770  1.00  0.00    -0.404 A  
HETATM   12  C   UNL     1     -11.179  14.710  66.737  1.00  0.00    -0.344 A  
HETATM   13  C   UNL     1     -11.016  15.490  67.912  1.00  0.00    -0.316 A  
HETATM   14 CL   UNL     1     -12.159  11.127  68.230  1.00  0.00    -0.170 Cl 
HETATM   15  C   UNL     1     -11.476  14.962  69.118  1.00  0.00    -0.324 A  
HETATM   16  C   UNL     1     -11.882  13.624  69.171  1.00  0.00    -0.394 A  
HETATM   17  C   UNL     1     -11.861  12.817  68.022  1.00  0.00    -0.336 A  
BRANCH  13  18
HETATM   18  C   UNL     1     -10.089  16.690  67.846  1.00  0.00    -0.270 C  
HETATM   19  C   UNL     1     -10.719  18.701  68.739  1.00  0.00     0.417 C  
HETATM   20  C   UNL     1      -9.886  18.898  67.491  1.00  0.00    -0.327 C  
HETATM   21  O   UNL     1     -10.408  17.359  69.116  1.00  0.00    -0.342 OA 
HETATM   22  H   UNL     1      -7.233  16.182  69.463  1.00  0.00     0.000 HD 
HETATM   23  O   UNL     1     -10.303  17.692  66.784  1.00  0.00    -0.332 OA 
HETATM   24  C   UNL     1      -8.328  18.842  67.614  1.00  0.00    -0.271 C  
HETATM   25  O   UNL     1      -8.159  16.380  69.380  1.00  0.00    -0.190 OA 
HETATM   26  C   UNL     1      -7.764  17.443  67.255  1.00  0.00    -0.200 C  
HETATM   27  O   UNL     1      -7.913  19.298  68.901  1.00  0.00    -0.349 OA 
HETATM   28  H   UNL     1      -7.448  16.369  65.620  1.00  0.00     0.000 HD 
HETATM   29  H   UNL     1      -6.967  19.264  68.975  1.00  0.00     0.000 HD 
HETATM   30  O   UNL     1      -7.793  17.226  65.840  1.00  0.00    -0.505 OA 
HETATM   31  C   UNL     1      -8.563  16.364  67.984  1.00  0.00    -0.185 C  
BRANCH  20  32
HETATM   32  C   UNL     1     -10.242  20.296  66.937  1.00  0.00    -0.366 C  
HETATM   33  O   UNL     1      -9.536  20.634  65.739  1.00  0.00    -0.588 OA 
HETATM   34  H   UNL     1      -9.754  21.494  65.399  1.00  0.00     0.000 HD 
ENDBRANCH  20  32
ENDBRANCH  13  18
ENDBRANCH  10  11
ENDBRANCH   7  10
ENDBRANCH   3   4
ENDBRANCH   2   3
TORSDOF 6
ENDMDL
MODEL       48
REMARK 921   NORMALIZED FREE ENERGY PREDICTED BY IDOCK:   -6.37 KCAL/MOL
REMARK 922        TOTAL FREE ENERGY PREDICTED BY IDOCK:   -9.74 KCAL/MOL
REMARK 923 INTER-LIGAND FREE ENERGY PREDICTED BY IDOCK:   -8.78 KCAL/MOL
REMARK 924 INTRA-LIGAND FREE ENERGY PREDICTED BY IDOCK:   -0.96 KCAL/MOL
REMARK 927      BINDING AFFINITY PREDICTED BY RF-SCORE:    0.00 PKD
ROOT
HETATM    1  C   UNL     1      -9.111  17.314  67.855  1.00  0.00    -0.239 C  
HETATM    2  C   UNL     1     -10.573  17.214  68.261  1.00  0.00    -0.375 C  
ENDROOT
BRANCH   2   3
HETATM    3  O   UNL     1     -10.662  16.917  69.660  1.00  0.00    -0.318 OA 
BRANCH   3   4
HETATM    4  C   UNL     1     -11.411  15.811  69.973  1.00  0.00    -0.351 A  
HETATM    5  C   UNL     1     -11.805  15.693  71.305  1.00  0.00    -0.473 A  
HETATM    6  C   UNL     1     -12.426  14.524  71.765  1.00  0.00    -0.420 A  
HETATM    7  C   UNL     1     -12.659  13.447  70.892  1.00  0.00    -0.406 A  
HETATM    8  C   UNL     1     -12.378  13.633  69.530  1.00  0.00    -0.232 A  
HETATM    9  C   UNL     1     -11.764  14.807  69.072  1.00  0.00    -0.343 A  
BRANCH   7  10
HETATM   10  C   UNL     1     -12.995  12.068  71.436  1.00  0.00    -0.362 C  
BRANCH  10  11
HETATM   11  C   UNL     1     -12.222  10.862  70.953  1.00  0.00    -0.485 A  
HETATM   12  C   UNL     1     -11.221  11.042  69.988  1.00  0.00    -0.303 A  
HETATM   13  C   UNL     1     -10.456   9.965  69.469  1.00  0.00    -0.261 A  
HETATM   14 CL   UNL     1     -13.730   9.166  72.483  1.00  0.00    -0.519 Cl 
HETATM   15  C   UNL     1     -10.551   8.727  70.101  1.00  0.00    -0.237 A  
HETATM   16  C   UNL     1     -11.536   8.528  71.076  1.00  0.00    -0.313 A  
HETATM   17  C   UNL     1     -12.406   9.566  71.445  1.00  0.00    -0.364 A  
BRANCH  13  18
HETATM   18  C   UNL     1      -9.833  10.135  68.095  1.00  0.00    -0.144 C  
HETATM   19  C   UNL     1      -9.824  12.176  67.061  1.00  0.00    -0.203 C  
HETATM   20  C   UNL     1      -9.990  11.059  66.055  1.00  0.00    -0.237 C  
HETATM   21  O   UNL     1      -9.292  11.498  68.199  1.00  0.00    -0.171 OA 
HETATM   22  H   UNL     1      -6.586   9.437  68.075  1.00  0.00     0.000 HD 
HETATM   23  O   UNL     1     -10.715  10.128  66.912  1.00  0.00    -0.226 OA 
HETATM   24  C   UNL     1      -8.713  10.314  65.545  1.00  0.00    -0.162 C  
HETATM   25  O   UNL     1      -7.358   9.967  68.238  1.00  0.00    -0.078 OA 
HETATM   26  C   UNL     1      -8.455   8.999  66.324  1.00  0.00    -0.125 C  
HETATM   27  O   UNL     1      -7.589  11.194  65.546  1.00  0.00    -0.363 OA 
HETATM   28  H   UNL     1      -9.215   7.170  66.401  1.00  0.00     0.000 HD 
HETATM   29  H   UNL     1      -6.814  10.741  65.236  1.00  0.00     0.000 HD 
HETATM   30  O   UNL     1      -9.374   7.976  65.924  1.00  0.00    -0.136 OA 
HETATM   31  C   UNL     1      -8.559   9.262  67.826  1.00  0.00    -0.117 C  
BRANCH  20  32
HETATM   32  C   UNL     1     -10.672  11.678  64.813  1.00  0.00    -0.309 C  
HETATM   33  O   UNL     1      -9.756  12.045  63.779  1.00  0.00    -0.505 OA 
HETATM   34  H   UNL     1     -10.175  12.426  63.016  1.00  0.00     0.000 HD 
ENDBRANCH  20  32
ENDBRANCH  13  18
ENDBRANCH  10  11
ENDBRANCH   7  10
ENDBRANCH   3   4
ENDBRANCH   2   3
TORSDOF 6
ENDMDL
MODEL       49
REMARK 921   NORMALIZED FREE ENERGY PREDICTED BY IDOCK:   -6.35 KCAL/MOL
REMARK 922        TOTAL FREE ENERGY PREDICTED BY IDOCK:   -9.71 KCAL/MOL
REMARK 923 INTER-LIGAND FREE ENERGY PREDICTED BY IDOCK:   -8.79 KCAL/MOL
REMARK 924 INTRA-LIGAND FREE ENERGY PREDICTED BY IDOCK:   -0.93 KCAL/MOL
REMARK 927      BINDING AFFINITY PREDICTED BY RF-SCORE:    0.00 PKD
ROOT
HETATM    1  C   UNL     1      -9.342  17.379  67.761  1.00  0.00    -0.255 C  
HETATM    2  C   UNL     1     -10.676  17.613  68.453  1.00  0.00    -0.242 C  
ENDROOT
BRANCH   2   3
HETATM    3  O   UNL     1     -10.590  17.183  69.817  1.00  0.00    -0.200 OA 
BRANCH   3   4
HETATM    4  C   UNL     1     -11.364  16.096  70.134  1.00  0.00    -0.340 A  
HETATM    5  C   UNL     1     -11.642  15.913  71.488  1.00  0.00    -0.537 A  
HETATM    6  C   UNL     1     -12.280  14.749  71.935  1.00  0.00    -0.415 A  
HETATM    7  C   UNL     1     -12.647  13.741  71.027  1.00  0.00    -0.446 A  
HETATM    8  C   UNL     1     -12.481  13.998  69.657  1.00  0.00    -0.204 A  
HETATM    9  C   UNL     1     -11.850  15.169  69.213  1.00  0.00    -0.347 A  
BRANCH   7  10
HETATM   10  C   UNL     1     -13.004  12.348  71.518  1.00  0.00    -0.385 C  
BRANCH  10  11
HETATM   11  C   UNL     1     -12.309  11.141  70.930  1.00  0.00    -0.500 A  
HETATM   12  C   UNL     1     -11.427  11.327  69.856  1.00  0.00    -0.373 A  
HETATM   13  C   UNL     1     -10.741  10.252  69.233  1.00  0.00    -0.265 A  
HETATM   14 CL   UNL     1     -13.642   9.437  72.603  1.00  0.00    -0.425 Cl 
HETATM   15  C   UNL     1     -10.775   9.005  69.855  1.00  0.00    -0.240 A  
HETATM   16  C   UNL     1     -11.639   8.800  70.936  1.00  0.00    -0.320 A  
HETATM   17  C   UNL     1     -12.447   9.841  71.421  1.00  0.00    -0.387 A  
BRANCH  13  18
HETATM   18  C   UNL     1     -10.283  10.437  67.798  1.00  0.00    -0.193 C  
HETATM   19  C   UNL     1     -10.244   8.666  66.349  1.00  0.00    -0.154 C  
HETATM   20  C   UNL     1      -9.098   9.616  66.077  1.00  0.00    -0.171 C  
HETATM   21  O   UNL     1     -11.149   9.473  67.102  1.00  0.00    -0.078 OA 
HETATM   22  H   UNL     1     -12.210  12.552  66.110  1.00  0.00     0.000 HD 
HETATM   23  O   UNL     1      -8.896  10.078  67.445  1.00  0.00    -0.128 OA 
HETATM   24  C   UNL     1      -9.367  10.883  65.200  1.00  0.00    -0.218 C  
HETATM   25  O   UNL     1     -11.974  11.721  66.507  1.00  0.00    -0.545 OA 
HETATM   26  C   UNL     1      -9.645  12.141  66.062  1.00  0.00    -0.231 C  
HETATM   27  O   UNL     1     -10.396  10.620  64.247  1.00  0.00    -0.360 OA 
HETATM   28  H   UNL     1      -8.607  13.410  67.176  1.00  0.00     0.000 HD 
HETATM   29  H   UNL     1     -10.560  11.389  63.715  1.00  0.00     0.000 HD 
HETATM   30  O   UNL     1      -8.436  12.639  66.647  1.00  0.00    -0.110 OA 
HETATM   31  C   UNL     1     -10.671  11.807  67.143  1.00  0.00    -0.241 C  
BRANCH  20  32
HETATM   32  C   UNL     1      -8.004   8.796  65.355  1.00  0.00    -0.112 C  
HETATM   33  O   UNL     1      -8.433   8.237  64.111  1.00  0.00    -0.363 OA 
HETATM   34  H   UNL     1      -7.761   7.733  63.668  1.00  0.00     0.000 HD 
ENDBRANCH  20  32
ENDBRANCH  13  18
ENDBRANCH  10  11
ENDBRANCH   7  10
ENDBRANCH   3   4
ENDBRANCH   2   3
TORSDOF 6
ENDMDL
MODEL       50
REMARK 921   NORMALIZED FREE ENERGY PREDICTED BY IDOCK:   -6.34 KCAL/MOL
REMARK 922        TOTAL FREE ENERGY PREDICTED BY IDOCK:   -9.70 KCAL/MOL
REMARK 923 INTER-LIGAND FREE ENERGY PREDICTED BY IDOCK:   -8.41 KCAL/MOL
REMARK 924 INTRA-LIGAND FREE ENERGY PREDICTED BY IDOCK:   -1.28 KCAL/MOL
REMARK 927      BINDING AFFINITY PREDICTED BY RF-SCORE:    0.00 PKD
ROOT
HETATM    1  C   UNL     1      -8.696   4.029  72.869  1.00  0.00    -0.103 C  
HETATM    2  C   UNL     1      -9.806   4.996  73.251  1.00  0.00    -0.152 C  
ENDROOT
BRANCH   2   3
HETATM    3  O   UNL     1      -9.242   6.282  73.538  1.00  0.00    -0.131 OA 
BRANCH   3   4
HETATM    4  C   UNL     1      -9.825   7.333  72.877  1.00  0.00    -0.196 A  
HETATM    5  C   UNL     1     -11.218   7.321  72.814  1.00  0.00    -0.348 A  
HETATM    6  C   UNL     1     -11.905   8.252  72.023  1.00  0.00    -0.408 A  
HETATM    7  C   UNL     1     -11.201   9.213  71.276  1.00  0.00    -0.407 A  
HETATM    8  C   UNL     1      -9.812   9.296  71.455  1.00  0.00    -0.296 A  
HETATM    9  C   UNL     1      -9.129   8.367  72.254  1.00  0.00    -0.313 A  
BRANCH   7  10
HETATM   10  C   UNL     1     -11.888   9.981  70.159  1.00  0.00    -0.245 C  
BRANCH  10  11
HETATM   11  C   UNL     1     -11.160  10.228  68.858  1.00  0.00    -0.278 A  
HETATM   12  C   UNL     1     -11.002  11.547  68.411  1.00  0.00    -0.267 A  
HETATM   13  C   UNL     1     -10.343  11.871  67.196  1.00  0.00    -0.235 A  
HETATM   14 CL   UNL     1     -10.865   7.545  68.405  1.00  0.00    -0.101 Cl 
HETATM   15  C   UNL     1      -9.639  10.861  66.543  1.00  0.00    -0.224 A  
HETATM   16  C   UNL     1      -9.772   9.538  66.979  1.00  0.00    -0.229 A  
HETATM   17  C   UNL     1     -10.580   9.220  68.082  1.00  0.00    -0.198 A  
BRANCH  13  18
HETATM   18  C   UNL     1     -10.696  13.186  66.525  1.00  0.00    -0.279 C  
HETATM   19  C   UNL     1      -9.379  15.034  66.818  1.00  0.00    -0.251 C  
HETATM   20  C   UNL     1     -10.839  15.419  66.713  1.00  0.00    -0.306 C  
HETATM   21  O   UNL     1      -9.357  13.726  66.247  1.00  0.00    -0.239 OA 
HETATM   22  H   UNL     1     -10.694  12.965  63.211  1.00  0.00     0.000 HD 
HETATM   23  O   UNL     1     -11.403  14.215  67.312  1.00  0.00    -0.303 OA 
HETATM   24  C   UNL     1     -11.475  15.565  65.292  1.00  0.00    -0.099 C  
HETATM   25  O   UNL     1     -10.306  13.042  64.076  1.00  0.00    -0.419 OA 
HETATM   26  C   UNL     1     -12.221  14.279  64.852  1.00  0.00    -0.440 C  
HETATM   27  O   UNL     1     -10.493  15.991  64.348  1.00  0.00    -0.599 OA 
HETATM   28  H   UNL     1     -13.927  13.361  65.273  1.00  0.00     0.000 HD 
HETATM   29  H   UNL     1     -10.879  16.080  63.485  1.00  0.00     0.000 HD 
HETATM   30  O   UNL     1     -13.469  14.149  65.542  1.00  0.00    -0.643 OA 
HETATM   31  C   UNL     1     -11.336  13.059  65.100  1.00  0.00    -0.291 C  
BRANCH  20  32
HETATM   32  C   UNL     1     -10.988  16.789  67.413  1.00  0.00    -0.092 C  
HETATM   33  O   UNL     1     -10.588  17.895  66.600  1.00  0.00    -0.324 OA 
HETATM   34  H   UNL     1     -10.679  18.737  67.030  1.00  0.00     0.000 HD 
ENDBRANCH  20  32
ENDBRANCH  13  18
ENDBRANCH  10  11
ENDBRANCH   7  10
ENDBRANCH   3   4
ENDBRANCH   2   3
TORSDOF 6
ENDMDL
MODEL       51
REMARK 921   NORMALIZED FREE ENERGY PREDICTED BY IDOCK:   -6.33 KCAL/MOL
REMARK 922        TOTAL FREE ENERGY PREDICTED BY IDOCK:   -9.69 KCAL/MOL
REMARK 923 INTER-LIGAND FREE ENERGY PREDICTED BY IDOCK:   -8.61 KCAL/MOL
REMARK 924 INTRA-LIGAND FREE ENERGY PREDICTED BY IDOCK:   -1.08 KCAL/MOL
REMARK 927      BINDING AFFINITY PREDICTED BY RF-SCORE:    0.00 PKD
ROOT
HETATM    1  C   UNL     1      -5.924  20.916  68.107  1.00  0.00    -0.388 C  
HETATM    2  C   UNL     1      -7.169  20.769  67.246  1.00  0.00    -0.360 C  
ENDROOT
BRANCH   2   3
HETATM    3  O   UNL     1      -6.976  19.706  66.305  1.00  0.00    -0.212 OA 
BRANCH   3   4
HETATM    4  C   UNL     1      -7.933  18.723  66.334  1.00  0.00    -0.282 A  
HETATM    5  C   UNL     1      -9.249  19.153  66.497  1.00  0.00    -0.374 A  
HETATM    6  C   UNL     1     -10.281  18.229  66.708  1.00  0.00    -0.393 A  
HETATM    7  C   UNL     1     -10.007  16.851  66.763  1.00  0.00    -0.291 A  
HETATM    8  C   UNL     1      -8.703  16.428  66.465  1.00  0.00    -0.324 A  
HETATM    9  C   UNL     1      -7.675  17.356  66.246  1.00  0.00    -0.340 A  
BRANCH   7  10
HETATM   10  C   UNL     1     -11.027  15.880  67.335  1.00  0.00    -0.257 C  
BRANCH  10  11
HETATM   11  C   UNL     1     -11.277  14.559  66.644  1.00  0.00    -0.346 A  
HETATM   12  C   UNL     1     -11.019  13.372  67.342  1.00  0.00    -0.287 A  
HETATM   13  C   UNL     1     -11.213  12.088  66.768  1.00  0.00    -0.376 A  
HETATM   14 CL   UNL     1     -11.978  15.804  64.310  1.00  0.00    -0.230 Cl 
HETATM   15  C   UNL     1     -11.891  12.008  65.553  1.00  0.00    -0.250 A  
HETATM   16  C   UNL     1     -12.169  13.182  64.844  1.00  0.00    -0.477 A  
HETATM   17  C   UNL     1     -11.802  14.437  65.354  1.00  0.00    -0.366 A  
BRANCH  13  18
HETATM   18  C   UNL     1     -10.414  10.928  67.336  1.00  0.00    -0.224 C  
HETATM   19  C   UNL     1      -9.568   9.309  65.958  1.00  0.00    -0.270 C  
HETATM   20  C   UNL     1      -9.998   8.722  67.284  1.00  0.00    -0.220 C  
HETATM   21  O   UNL     1      -9.445  10.700  66.255  1.00  0.00    -0.168 OA 
HETATM   22  H   UNL     1      -7.641  11.922  68.870  1.00  0.00     0.000 HD 
HETATM   23  O   UNL     1     -11.098   9.639  67.558  1.00  0.00    -0.206 OA 
HETATM   24  C   UNL     1      -9.014   8.812  68.497  1.00  0.00    -0.138 C  
HETATM   25  O   UNL     1      -8.191  11.709  68.124  1.00  0.00    -0.136 OA 
HETATM   26  C   UNL     1      -9.327  10.021  69.414  1.00  0.00    -0.223 C  
HETATM   27  O   UNL     1      -7.661   8.790  68.043  1.00  0.00    -0.095 OA 
HETATM   28  H   UNL     1     -10.685  10.517  70.770  1.00  0.00     0.000 HD 
HETATM   29  H   UNL     1      -7.064   8.844  68.779  1.00  0.00     0.000 HD 
HETATM   30  O   UNL     1     -10.494   9.775  70.208  1.00  0.00    -0.251 OA 
HETATM   31  C   UNL     1      -9.507  11.279  68.565  1.00  0.00    -0.191 C  
BRANCH  20  32
HETATM   32  C   UNL     1     -10.270   7.221  67.038  1.00  0.00    -0.278 C  
HETATM   33  O   UNL     1     -11.653   6.867  67.120  1.00  0.00    -0.653 OA 
HETATM   34  H   UNL     1     -11.820   5.944  66.969  1.00  0.00     0.000 HD 
ENDBRANCH  20  32
ENDBRANCH  13  18
ENDBRANCH  10  11
ENDBRANCH   7  10
ENDBRANCH   3   4
ENDBRANCH   2   3
TORSDOF 6
ENDMDL
MODEL       52
REMARK 921   NORMALIZED FREE ENERGY PREDICTED BY IDOCK:   -6.33 KCAL/MOL
REMARK 922        TOTAL FREE ENERGY PREDICTED BY IDOCK:   -9.68 KCAL/MOL
REMARK 923 INTER-LIGAND FREE ENERGY PREDICTED BY IDOCK:   -8.77 KCAL/MOL
REMARK 924 INTRA-LIGAND FREE ENERGY PREDICTED BY IDOCK:   -0.91 KCAL/MOL
REMARK 927      BINDING AFFINITY PREDICTED BY RF-SCORE:    0.00 PKD
ROOT
HETATM    1  C   UNL     1     -11.898  13.068  63.652  1.00  0.00    -0.580 C  
HETATM    2  C   UNL     1     -12.508  12.730  65.003  1.00  0.00    -0.506 C  
ENDROOT
BRANCH   2   3
HETATM    3  O   UNL     1     -11.965  13.600  66.004  1.00  0.00    -0.368 OA 
BRANCH   3   4
HETATM    4  C   UNL     1     -11.783  13.026  67.236  1.00  0.00    -0.375 A  
HETATM    5  C   UNL     1     -11.588  11.645  67.248  1.00  0.00    -0.316 A  
HETATM    6  C   UNL     1     -11.560  10.938  68.457  1.00  0.00    -0.360 A  
HETATM    7  C   UNL     1     -11.731  11.609  69.681  1.00  0.00    -0.418 A  
HETATM    8  C   UNL     1     -11.791  13.010  69.660  1.00  0.00    -0.385 A  
HETATM    9  C   UNL     1     -11.811  13.715  68.448  1.00  0.00    -0.407 A  
BRANCH   7  10
HETATM   10  C   UNL     1     -12.056  10.836  70.949  1.00  0.00    -0.475 C  
BRANCH  10  11
HETATM   11  C   UNL     1     -11.929   9.329  70.963  1.00  0.00    -0.369 A  
HETATM   12  C   UNL     1     -10.793   8.741  70.392  1.00  0.00    -0.256 A  
HETATM   13  C   UNL     1     -10.597   7.336  70.350  1.00  0.00    -0.240 A  
HETATM   14 CL   UNL     1     -14.390   9.040  72.124  1.00  0.00    -0.404 Cl 
HETATM   15  C   UNL     1     -11.454   6.531  71.098  1.00  0.00    -0.380 A  
HETATM   16  C   UNL     1     -12.589   7.099  71.688  1.00  0.00    -0.410 A  
HETATM   17  C   UNL     1     -12.857   8.472  71.561  1.00  0.00    -0.311 A  
BRANCH  13  18
HETATM   18  C   UNL     1      -9.688   6.777  69.270  1.00  0.00    -0.151 C  
HETATM   19  C   UNL     1      -9.971   7.378  67.080  1.00  0.00    -0.215 C  
HETATM   20  C   UNL     1      -9.522   5.938  67.194  1.00  0.00    -0.117 C  
HETATM   21  O   UNL     1      -9.610   7.921  68.350  1.00  0.00    -0.147 OA 
HETATM   22  H   UNL     1      -6.508   7.623  69.720  1.00  0.00     0.000 HD 
HETATM   23  O   UNL     1     -10.162   5.632  68.468  1.00  0.00    -0.164 OA 
HETATM   24  C   UNL     1      -7.996   5.640  67.364  1.00  0.00    -0.102 C  
HETATM   25  O   UNL     1      -7.412   7.756  69.459  1.00  0.00    -0.089 OA 
HETATM   26  C   UNL     1      -7.604   5.434  68.849  1.00  0.00    -0.079 C  
HETATM   27  O   UNL     1      -7.217   6.644  66.714  1.00  0.00    -0.074 OA 
HETATM   28  H   UNL     1      -7.802   4.029  70.233  1.00  0.00     0.000 HD 
HETATM   29  H   UNL     1      -6.291   6.463  66.818  1.00  0.00     0.000 HD 
HETATM   30  O   UNL     1      -8.042   4.155  69.323  1.00  0.00    -0.060 OA 
HETATM   31  C   UNL     1      -8.197   6.557  69.699  1.00  0.00    -0.126 C  
BRANCH  20  32
HETATM   32  C   UNL     1      -9.975   5.228  65.897  1.00  0.00    -0.073 C  
HETATM   33  O   UNL     1     -11.392   5.065  65.797  1.00  0.00    -0.818 OA 
HETATM   34  H   UNL     1     -11.670   4.628  65.001  1.00  0.00     0.000 HD 
ENDBRANCH  20  32
ENDBRANCH  13  18
ENDBRANCH  10  11
ENDBRANCH   7  10
ENDBRANCH   3   4
ENDBRANCH   2   3
TORSDOF 6
ENDMDL
MODEL       53
REMARK 921   NORMALIZED FREE ENERGY PREDICTED BY IDOCK:   -6.28 KCAL/MOL
REMARK 922        TOTAL FREE ENERGY PREDICTED BY IDOCK:   -9.62 KCAL/MOL
REMARK 923 INTER-LIGAND FREE ENERGY PREDICTED BY IDOCK:   -7.97 KCAL/MOL
REMARK 924 INTRA-LIGAND FREE ENERGY PREDICTED BY IDOCK:   -1.65 KCAL/MOL
REMARK 927      BINDING AFFINITY PREDICTED BY RF-SCORE:    0.00 PKD
ROOT
HETATM    1  C   UNL     1      -6.162   8.190  65.157  1.00  0.00    -0.045 C  
HETATM    2  C   UNL     1      -6.227   9.627  64.665  1.00  0.00    -0.089 C  
ENDROOT
BRANCH   2   3
HETATM    3  O   UNL     1      -6.459  10.503  65.775  1.00  0.00    -0.115 OA 
BRANCH   3   4
HETATM    4  C   UNL     1      -7.776  10.664  66.123  1.00  0.00    -0.145 A  
HETATM    5  C   UNL     1      -8.614  11.178  65.135  1.00  0.00     0.069 A  
HETATM    6  C   UNL     1      -9.934  11.539  65.435  1.00  0.00    -0.288 A  
HETATM    7  C   UNL     1     -10.437  11.391  66.739  1.00  0.00    -0.284 A  
HETATM    8  C   UNL     1      -9.626  10.750  67.688  1.00  0.00    -0.174 A  
HETATM    9  C   UNL     1      -8.307  10.384  67.381  1.00  0.00    -0.121 A  
BRANCH   7  10
HETATM   10  C   UNL     1     -11.718  12.093  67.160  1.00  0.00    -0.372 C  
BRANCH  10  11
HETATM   11  C   UNL     1     -11.649  13.321  68.039  1.00  0.00    -0.371 A  
HETATM   12  C   UNL     1     -11.238  14.535  67.472  1.00  0.00    -0.333 A  
HETATM   13  C   UNL     1     -11.132  15.734  68.224  1.00  0.00    -0.342 A  
HETATM   14 CL   UNL     1     -12.352  11.886  70.260  1.00  0.00    -0.324 Cl 
HETATM   15  C   UNL     1     -11.666  15.751  69.512  1.00  0.00    -0.369 A  
HETATM   16  C   UNL     1     -12.094  14.552  70.093  1.00  0.00    -0.394 A  
HETATM   17  C   UNL     1     -12.019  13.341  69.386  1.00  0.00    -0.301 A  
BRANCH  13  18
HETATM   18  C   UNL     1     -10.186  16.809  67.719  1.00  0.00    -0.303 C  
HETATM   19  C   UNL     1      -7.927  16.447  67.675  1.00  0.00    -0.149 C  
HETATM   20  C   UNL     1      -8.238  17.890  68.003  1.00  0.00    -0.257 C  
HETATM   21  O   UNL     1      -9.143  15.988  67.085  1.00  0.00    -0.199 OA 
HETATM   22  H   UNL     1     -10.732  17.593  64.538  1.00  0.00     0.000 HD 
HETATM   23  O   UNL     1      -9.497  17.665  68.704  1.00  0.00    -0.283 OA 
HETATM   24  C   UNL     1      -8.539  18.877  66.827  1.00  0.00    -0.299 C  
HETATM   25  O   UNL     1     -10.401  17.067  65.257  1.00  0.00    -0.626 OA 
HETATM   26  C   UNL     1     -10.060  19.048  66.583  1.00  0.00    -0.392 C  
HETATM   27  O   UNL     1      -7.825  18.487  65.654  1.00  0.00    -0.491 OA 
HETATM   28  H   UNL     1     -11.586  19.971  67.448  1.00  0.00     0.000 HD 
HETATM   29  H   UNL     1      -8.008  19.086  64.940  1.00  0.00     0.000 HD 
HETATM   30  O   UNL     1     -10.654  19.867  67.598  1.00  0.00    -0.405 OA 
HETATM   31  C   UNL     1     -10.731  17.677  66.534  1.00  0.00    -0.097 C  
BRANCH  20  32
HETATM   32  C   UNL     1      -7.009  18.450  68.754  1.00  0.00    -0.277 C  
HETATM   33  O   UNL     1      -5.990  18.958  67.888  1.00  0.00    -0.195 OA 
HETATM   34  H   UNL     1      -5.235  19.302  68.350  1.00  0.00     0.000 HD 
ENDBRANCH  20  32
ENDBRANCH  13  18
ENDBRANCH  10  11
ENDBRANCH   7  10
ENDBRANCH   3   4
ENDBRANCH   2   3
TORSDOF 6
ENDMDL
MODEL       54
REMARK 921   NORMALIZED FREE ENERGY PREDICTED BY IDOCK:   -6.27 KCAL/MOL
REMARK 922        TOTAL FREE ENERGY PREDICTED BY IDOCK:   -9.61 KCAL/MOL
REMARK 923 INTER-LIGAND FREE ENERGY PREDICTED BY IDOCK:   -8.12 KCAL/MOL
REMARK 924 INTRA-LIGAND FREE ENERGY PREDICTED BY IDOCK:   -1.49 KCAL/MOL
REMARK 927      BINDING AFFINITY PREDICTED BY RF-SCORE:    0.00 PKD
ROOT
HETATM    1  C   UNL     1     -12.355  15.499  74.289  1.00  0.00    -0.815 C  
HETATM    2  C   UNL     1     -13.373  15.810  73.203  1.00  0.00    -0.587 C  
ENDROOT
BRANCH   2   3
HETATM    3  O   UNL     1     -13.952  14.590  72.726  1.00  0.00    -0.541 OA 
BRANCH   3   4
HETATM    4  C   UNL     1     -13.231  13.944  71.755  1.00  0.00    -0.376 A  
HETATM    5  C   UNL     1     -12.734  14.743  70.725  1.00  0.00    -0.422 A  
HETATM    6  C   UNL     1     -12.130  14.165  69.601  1.00  0.00    -0.400 A  
HETATM    7  C   UNL     1     -12.018  12.768  69.489  1.00  0.00    -0.338 A  
HETATM    8  C   UNL     1     -12.400  11.987  70.590  1.00  0.00    -0.394 A  
HETATM    9  C   UNL     1     -12.996  12.570  71.717  1.00  0.00    -0.419 A  
BRANCH   7  10
HETATM   10  C   UNL     1     -11.700  12.122  68.150  1.00  0.00    -0.402 C  
BRANCH  10  11
HETATM   11  C   UNL     1     -10.444  11.294  67.994  1.00  0.00    -0.215 A  
HETATM   12  C   UNL     1     -10.546   9.897  68.037  1.00  0.00    -0.288 A  
HETATM   13  C   UNL     1      -9.420   9.043  67.912  1.00  0.00    -0.159 A  
HETATM   14 CL   UNL     1      -8.872  13.531  67.876  1.00  0.00    -0.179 Cl 
HETATM   15  C   UNL     1      -8.209   9.608  67.511  1.00  0.00    -0.114 A  
HETATM   16  C   UNL     1      -8.089  11.000  67.450  1.00  0.00    -0.122 A  
HETATM   17  C   UNL     1      -9.177  11.833  67.756  1.00  0.00    -0.181 A  
BRANCH  13  18
HETATM   18  C   UNL     1      -9.513   7.652  68.511  1.00  0.00    -0.147 C  
HETATM   19  C   UNL     1      -8.186   5.956  67.736  1.00  0.00    -0.105 C  
HETATM   20  C   UNL     1      -9.549   5.438  68.140  1.00  0.00    -0.124 C  
HETATM   21  O   UNL     1      -8.114   7.210  68.413  1.00  0.00    -0.121 OA 
HETATM   22  H   UNL     1      -8.728   7.602  71.738  1.00  0.00     0.000 HD 
HETATM   23  O   UNL     1     -10.319   6.632  67.812  1.00  0.00    -0.159 OA 
HETATM   24  C   UNL     1      -9.813   5.121  69.649  1.00  0.00    -0.216 C  
HETATM   25  O   UNL     1      -8.555   7.629  70.804  1.00  0.00    -0.131 OA 
HETATM   26  C   UNL     1     -10.515   6.296  70.377  1.00  0.00    -0.222 C  
HETATM   27  O   UNL     1      -8.607   4.707  70.289  1.00  0.00    -0.080 OA 
HETATM   28  H   UNL     1     -12.328   7.092  70.460  1.00  0.00     0.000 HD 
HETATM   29  H   UNL     1      -8.767   4.515  71.205  1.00  0.00     0.000 HD 
HETATM   30  O   UNL     1     -11.898   6.372  70.013  1.00  0.00    -0.404 OA 
HETATM   31  C   UNL     1      -9.798   7.605  70.052  1.00  0.00    -0.180 C  
BRANCH  20  32
HETATM   32  C   UNL     1      -9.772   4.121  67.361  1.00  0.00    -0.154 C  
HETATM   33  O   UNL     1      -8.965   3.036  67.826  1.00  0.00    -0.123 OA 
HETATM   34  H   UNL     1      -9.102   2.227  67.347  1.00  0.00     0.000 HD 
ENDBRANCH  20  32
ENDBRANCH  13  18
ENDBRANCH  10  11
ENDBRANCH   7  10
ENDBRANCH   3   4
ENDBRANCH   2   3
TORSDOF 6
ENDMDL
MODEL       55
REMARK 921   NORMALIZED FREE ENERGY PREDICTED BY IDOCK:   -6.26 KCAL/MOL
REMARK 922        TOTAL FREE ENERGY PREDICTED BY IDOCK:   -9.60 KCAL/MOL
REMARK 923 INTER-LIGAND FREE ENERGY PREDICTED BY IDOCK:   -8.38 KCAL/MOL
REMARK 924 INTRA-LIGAND FREE ENERGY PREDICTED BY IDOCK:   -1.22 KCAL/MOL
REMARK 927      BINDING AFFINITY PREDICTED BY RF-SCORE:    0.00 PKD
ROOT
HETATM    1  C   UNL     1      -9.725   6.676  68.962  1.00  0.00    -0.142 C  
HETATM    2  C   UNL     1      -8.774   7.859  68.871  1.00  0.00    -0.135 C  
ENDROOT
BRANCH   2   3
HETATM    3  O   UNL     1      -8.882   8.651  70.061  1.00  0.00    -0.134 OA 
BRANCH   3   4
HETATM    4  C   UNL     1     -10.024   9.404  70.156  1.00  0.00    -0.229 A  
HETATM    5  C   UNL     1     -10.228  10.342  69.145  1.00  0.00    -0.239 A  
HETATM    6  C   UNL     1     -11.271  11.274  69.235  1.00  0.00    -0.336 A  
HETATM    7  C   UNL     1     -12.129  11.281  70.348  1.00  0.00    -0.474 A  
HETATM    8  C   UNL     1     -11.994  10.249  71.289  1.00  0.00    -0.457 A  
HETATM    9  C   UNL     1     -10.954   9.314  71.191  1.00  0.00    -0.409 A  
BRANCH   7  10
HETATM   10  C   UNL     1     -13.019  12.480  70.632  1.00  0.00     0.132 C  
BRANCH  10  11
HETATM   11  C   UNL     1     -12.427  13.872  70.634  1.00  0.00    -0.436 A  
HETATM   12  C   UNL     1     -11.890  14.379  69.444  1.00  0.00    -0.369 A  
HETATM   13  C   UNL     1     -11.303  15.668  69.356  1.00  0.00    -0.332 A  
HETATM   14 CL   UNL     1     -12.870  14.158  73.319  1.00  0.00    -0.343 Cl 
HETATM   15  C   UNL     1     -11.470  16.539  70.432  1.00  0.00     0.009 A  
HETATM   16  C   UNL     1     -12.016  16.057  71.627  1.00  0.00    -0.569 A  
HETATM   17  C   UNL     1     -12.425  14.719  71.745  1.00  0.00    -0.343 A  
BRANCH  13  18
HETATM   18  C   UNL     1     -10.283  15.912  68.259  1.00  0.00    -0.227 C  
HETATM   19  C   UNL     1      -8.293  16.941  68.724  1.00  0.00    -0.240 C  
HETATM   20  C   UNL     1      -8.795  17.327  67.350  1.00  0.00    -0.218 C  
HETATM   21  O   UNL     1      -9.026  15.749  69.003  1.00  0.00    -0.211 OA 
HETATM   22  H   UNL     1      -9.196  13.093  66.882  1.00  0.00     0.000 HD 
HETATM   23  O   UNL     1     -10.223  17.247  67.632  1.00  0.00    -0.307 OA 
HETATM   24  C   UNL     1      -8.511  16.362  66.151  1.00  0.00    -0.294 C  
HETATM   25  O   UNL     1      -9.246  13.770  67.546  1.00  0.00    -0.199 OA 
HETATM   26  C   UNL     1      -9.710  15.425  65.859  1.00  0.00    -0.357 C  
HETATM   27  O   UNL     1      -7.287  15.657  66.358  1.00  0.00    -0.182 OA 
HETATM   28  H   UNL     1     -11.506  15.561  65.031  1.00  0.00     0.000 HD 
HETATM   29  H   UNL     1      -7.115  15.072  65.630  1.00  0.00     0.000 HD 
HETATM   30  O   UNL     1     -10.771  16.136  65.209  1.00  0.00    -0.409 OA 
HETATM   31  C   UNL     1     -10.200  14.796  67.162  1.00  0.00    -0.245 C  
BRANCH  20  32
HETATM   32  C   UNL     1      -8.136  18.681  67.000  1.00  0.00    -0.252 C  
HETATM   33  O   UNL     1      -7.399  18.661  65.775  1.00  0.00    -0.435 OA 
HETATM   34  H   UNL     1      -6.994  19.493  65.561  1.00  0.00     0.000 HD 
ENDBRANCH  20  32
ENDBRANCH  13  18
ENDBRANCH  10  11
ENDBRANCH   7  10
ENDBRANCH   3   4
ENDBRANCH   2   3
TORSDOF 6
ENDMDL
MODEL       56
REMARK 921   NORMALIZED FREE ENERGY PREDICTED BY IDOCK:   -6.25 KCAL/MOL
REMARK 922        TOTAL FREE ENERGY PREDICTED BY IDOCK:   -9.58 KCAL/MOL
REMARK 923 INTER-LIGAND FREE ENERGY PREDICTED BY IDOCK:   -8.50 KCAL/MOL
REMARK 924 INTRA-LIGAND FREE ENERGY PREDICTED BY IDOCK:   -1.08 KCAL/MOL
REMARK 927      BINDING AFFINITY PREDICTED BY RF-SCORE:    0.00 PKD
ROOT
HETATM    1  C   UNL     1      -9.768  20.215  67.184  1.00  0.00    -0.576 C  
HETATM    2  C   UNL     1     -10.206  19.094  68.114  1.00  0.00    -0.403 C  
ENDROOT
BRANCH   2   3
HETATM    3  O   UNL     1     -10.622  17.964  67.338  1.00  0.00    -0.386 OA 
BRANCH   3   4
HETATM    4  C   UNL     1     -10.825  16.811  68.053  1.00  0.00    -0.341 A  
HETATM    5  C   UNL     1     -11.161  15.679  67.311  1.00  0.00    -0.238 A  
HETATM    6  C   UNL     1     -11.552  14.495  67.951  1.00  0.00    -0.371 A  
HETATM    7  C   UNL     1     -11.616  14.429  69.354  1.00  0.00    -0.349 A  
HETATM    8  C   UNL     1     -11.147  15.531  70.086  1.00  0.00    -0.337 A  
HETATM    9  C   UNL     1     -10.749  16.710  69.441  1.00  0.00    -0.331 A  
BRANCH   7  10
HETATM   10  C   UNL     1     -12.363  13.299  70.043  1.00  0.00    -0.269 C  
BRANCH  10  11
HETATM   11  C   UNL     1     -11.763  11.912  70.078  1.00  0.00    -0.366 A  
HETATM   12  C   UNL     1     -10.786  11.575  69.130  1.00  0.00    -0.241 A  
HETATM   13  C   UNL     1     -10.178  10.293  69.081  1.00  0.00    -0.234 A  
HETATM   14 CL   UNL     1     -13.402  11.151  72.132  1.00  0.00    -0.459 Cl 
HETATM   15  C   UNL     1     -10.398   9.421  70.146  1.00  0.00    -0.273 A  
HETATM   16  C   UNL     1     -11.359   9.743  71.110  1.00  0.00    -0.459 A  
HETATM   17  C   UNL     1     -12.082  10.945  71.035  1.00  0.00    -0.320 A  
BRANCH  13  18
HETATM   18  C   UNL     1      -9.594   9.835  67.757  1.00  0.00    -0.135 C  
HETATM   19  C   UNL     1     -10.369   7.940  66.734  1.00  0.00    -0.287 C  
HETATM   20  C   UNL     1      -8.883   8.110  66.507  1.00  0.00    -0.149 C  
HETATM   21  O   UNL     1     -10.781   9.253  67.114  1.00  0.00    -0.251 OA 
HETATM   22  H   UNL     1     -10.044  12.056  65.329  1.00  0.00     0.000 HD 
HETATM   23  O   UNL     1      -8.566   8.775  67.765  1.00  0.00    -0.128 OA 
HETATM   24  C   UNL     1      -8.404   9.055  65.356  1.00  0.00    -0.144 C  
HETATM   25  O   UNL     1     -10.296  11.359  65.924  1.00  0.00    -0.236 OA 
HETATM   26  C   UNL     1      -8.056  10.474  65.873  1.00  0.00    -0.154 C  
HETATM   27  O   UNL     1      -9.355   9.065  64.292  1.00  0.00    -0.367 OA 
HETATM   28  H   UNL     1      -6.593  11.343  66.889  1.00  0.00     0.000 HD 
HETATM   29  H   UNL     1      -9.065   9.639  63.593  1.00  0.00     0.000 HD 
HETATM   30  O   UNL     1      -6.806  10.473  66.572  1.00  0.00    -0.098 OA 
HETATM   31  C   UNL     1      -9.179  10.983  66.775  1.00  0.00    -0.161 C  
BRANCH  20  32
HETATM   32  C   UNL     1      -8.317   6.705  66.197  1.00  0.00    -0.130 C  
HETATM   33  O   UNL     1      -8.556   6.275  64.854  1.00  0.00    -0.315 OA 
HETATM   34  H   UNL     1      -8.208   5.411  64.664  1.00  0.00     0.000 HD 
ENDBRANCH  20  32
ENDBRANCH  13  18
ENDBRANCH  10  11
ENDBRANCH   7  10
ENDBRANCH   3   4
ENDBRANCH   2   3
TORSDOF 6
ENDMDL
MODEL       57
REMARK 921   NORMALIZED FREE ENERGY PREDICTED BY IDOCK:   -6.24 KCAL/MOL
REMARK 922        TOTAL FREE ENERGY PREDICTED BY IDOCK:   -9.57 KCAL/MOL
REMARK 923 INTER-LIGAND FREE ENERGY PREDICTED BY IDOCK:   -8.15 KCAL/MOL
REMARK 924 INTRA-LIGAND FREE ENERGY PREDICTED BY IDOCK:   -1.41 KCAL/MOL
REMARK 927      BINDING AFFINITY PREDICTED BY RF-SCORE:    0.00 PKD
ROOT
HETATM    1  C   UNL     1     -12.407  15.379  74.235  1.00  0.00    -0.807 C  
HETATM    2  C   UNL     1     -13.319  15.807  73.095  1.00  0.00    -0.587 C  
ENDROOT
BRANCH   2   3
HETATM    3  O   UNL     1     -14.054  14.673  72.618  1.00  0.00    -0.491 OA 
BRANCH   3   4
HETATM    4  C   UNL     1     -13.327  13.782  71.871  1.00  0.00    -0.414 A  
HETATM    5  C   UNL     1     -12.591  14.322  70.816  1.00  0.00    -0.427 A  
HETATM    6  C   UNL     1     -11.951  13.486  69.891  1.00  0.00    -0.416 A  
HETATM    7  C   UNL     1     -12.042  12.089  70.008  1.00  0.00    -0.355 A  
HETATM    8  C   UNL     1     -12.672  11.563  71.146  1.00  0.00    -0.458 A  
HETATM    9  C   UNL     1     -13.305  12.403  72.074  1.00  0.00    -0.511 A  
BRANCH   7  10
HETATM   10  C   UNL     1     -11.667  11.188  68.842  1.00  0.00    -0.406 C  
BRANCH  10  11
HETATM   11  C   UNL     1     -10.416  10.342  68.918  1.00  0.00    -0.231 A  
HETATM   12  C   UNL     1     -10.452   9.149  69.653  1.00  0.00    -0.230 A  
HETATM   13  C   UNL     1      -9.323   8.299  69.789  1.00  0.00    -0.158 A  
HETATM   14 CL   UNL     1      -8.976  12.172  67.483  1.00  0.00    -0.170 Cl 
HETATM   15  C   UNL     1      -8.214   8.548  68.983  1.00  0.00    -0.116 A  
HETATM   16  C   UNL     1      -8.162   9.727  68.231  1.00  0.00    -0.105 A  
HETATM   17  C   UNL     1      -9.224  10.646  68.256  1.00  0.00    -0.153 A  
BRANCH  13  18
HETATM   18  C   UNL     1      -9.265   7.383  70.999  1.00  0.00    -0.153 C  
HETATM   19  C   UNL     1      -7.480   5.988  71.320  1.00  0.00    -0.089 C  
HETATM   20  C   UNL     1      -8.763   5.345  71.797  1.00  0.00    -0.135 C  
HETATM   21  O   UNL     1      -7.821   7.374  71.273  1.00  0.00    -0.093 OA 
HETATM   22  H   UNL     1      -9.242   9.060  73.865  1.00  0.00     0.000 HD 
HETATM   23  O   UNL     1      -9.665   5.972  70.838  1.00  0.00    -0.170 OA 
HETATM   24  C   UNL     1      -9.294   5.701  73.225  1.00  0.00    -0.135 C  
HETATM   25  O   UNL     1      -8.871   8.701  73.067  1.00  0.00    -0.355 OA 
HETATM   26  C   UNL     1     -10.367   6.818  73.186  1.00  0.00    -0.247 C  
HETATM   27  O   UNL     1      -8.207   5.999  74.100  1.00  0.00    -0.106 OA 
HETATM   28  H   UNL     1     -12.275   6.998  72.680  1.00  0.00     0.000 HD 
HETATM   29  H   UNL     1      -8.529   6.215  74.967  1.00  0.00     0.000 HD 
HETATM   30  O   UNL     1     -11.617   6.313  72.703  1.00  0.00    -0.252 OA 
HETATM   31  C   UNL     1      -9.877   7.973  72.315  1.00  0.00    -0.236 C  
BRANCH  20  32
HETATM   32  C   UNL     1      -8.530   3.817  71.773  1.00  0.00    -0.089 C  
HETATM   33  O   UNL     1      -7.619   3.361  72.778  1.00  0.00    -0.056 OA 
HETATM   34  H   UNL     1      -7.476   2.422  72.763  1.00  0.00     0.000 HD 
ENDBRANCH  20  32
ENDBRANCH  13  18
ENDBRANCH  10  11
ENDBRANCH   7  10
ENDBRANCH   3   4
ENDBRANCH   2   3
TORSDOF 6
ENDMDL
MODEL       58
REMARK 921   NORMALIZED FREE ENERGY PREDICTED BY IDOCK:   -6.24 KCAL/MOL
REMARK 922        TOTAL FREE ENERGY PREDICTED BY IDOCK:   -9.57 KCAL/MOL
REMARK 923 INTER-LIGAND FREE ENERGY PREDICTED BY IDOCK:   -8.15 KCAL/MOL
REMARK 924 INTRA-LIGAND FREE ENERGY PREDICTED BY IDOCK:   -1.42 KCAL/MOL
REMARK 927      BINDING AFFINITY PREDICTED BY RF-SCORE:    0.00 PKD
ROOT
HETATM    1  C   UNL     1      -9.750   2.892  64.327  1.00  0.00    -0.149 C  
HETATM    2  C   UNL     1      -9.245   4.130  65.052  1.00  0.00    -0.154 C  
ENDROOT
BRANCH   2   3
HETATM    3  O   UNL     1     -10.316   4.712  65.806  1.00  0.00    -0.261 OA 
BRANCH   3   4
HETATM    4  C   UNL     1      -9.925   5.567  66.805  1.00  0.00    -0.183 A  
HETATM    5  C   UNL     1     -10.706   6.710  66.976  1.00  0.00    -0.437 A  
HETATM    6  C   UNL     1     -10.301   7.727  67.850  1.00  0.00    -0.276 A  
HETATM    7  C   UNL     1      -9.098   7.615  68.569  1.00  0.00    -0.131 A  
HETATM    8  C   UNL     1      -8.393   6.405  68.487  1.00  0.00    -0.113 A  
HETATM    9  C   UNL     1      -8.806   5.386  67.617  1.00  0.00    -0.105 A  
BRANCH   7  10
HETATM   10  C   UNL     1      -8.476   8.834  69.231  1.00  0.00    -0.122 C  
BRANCH  10  11
HETATM   11  C   UNL     1      -8.116  10.042  68.397  1.00  0.00    -0.101 A  
HETATM   12  C   UNL     1      -9.031  11.099  68.308  1.00  0.00    -0.166 A  
HETATM   13  C   UNL     1      -8.783  12.265  67.538  1.00  0.00    -0.177 A  
HETATM   14 CL   UNL     1      -5.760   8.904  67.596  1.00  0.00    -0.039 Cl 
HETATM   15  C   UNL     1      -7.496  12.459  67.038  1.00  0.00    -0.037 A  
HETATM   16  C   UNL     1      -6.562  11.421  67.125  1.00  0.00    -0.118 A  
HETATM   17  C   UNL     1      -6.894  10.201  67.737  1.00  0.00    -0.075 A  
BRANCH  13  18
HETATM   18  C   UNL     1      -9.979  13.060  67.046  1.00  0.00    -0.242 C  
HETATM   19  C   UNL     1     -10.150  13.669  64.848  1.00  0.00    -0.266 C  
HETATM   20  C   UNL     1     -10.724  14.737  65.752  1.00  0.00    -0.326 C  
HETATM   21  O   UNL     1     -10.137  12.517  65.690  1.00  0.00    -0.265 OA 
HETATM   22  H   UNL     1     -12.843  11.428  67.444  1.00  0.00     0.000 HD 
HETATM   23  O   UNL     1      -9.843  14.522  66.894  1.00  0.00    -0.249 OA 
HETATM   24  C   UNL     1     -12.191  14.572  66.269  1.00  0.00    -0.250 C  
HETATM   25  O   UNL     1     -12.016  11.639  67.026  1.00  0.00    -0.593 OA 
HETATM   26  C   UNL     1     -12.244  13.944  67.685  1.00  0.00    -0.197 C  
HETATM   27  O   UNL     1     -12.979  13.863  65.313  1.00  0.00    -0.747 OA 
HETATM   28  H   UNL     1     -11.892  14.511  69.551  1.00  0.00     0.000 HD 
HETATM   29  H   UNL     1     -13.870  13.763  65.626  1.00  0.00     0.000 HD 
HETATM   30  O   UNL     1     -11.859  14.896  68.683  1.00  0.00    -0.325 OA 
HETATM   31  C   UNL     1     -11.342  12.712  67.736  1.00  0.00    -0.297 C  
BRANCH  20  32
HETATM   32  C   UNL     1     -10.674  16.064  64.961  1.00  0.00    -0.378 C  
HETATM   33  O   UNL     1     -11.640  16.140  63.909  1.00  0.00    -1.369 OA 
HETATM   34  H   UNL     1     -11.610  16.955  63.422  1.00  0.00     0.000 HD 
ENDBRANCH  20  32
ENDBRANCH  13  18
ENDBRANCH  10  11
ENDBRANCH   7  10
ENDBRANCH   3   4
ENDBRANCH   2   3
TORSDOF 6
ENDMDL
MODEL       59
REMARK 921   NORMALIZED FREE ENERGY PREDICTED BY IDOCK:   -6.24 KCAL/MOL
REMARK 922        TOTAL FREE ENERGY PREDICTED BY IDOCK:   -9.56 KCAL/MOL
REMARK 923 INTER-LIGAND FREE ENERGY PREDICTED BY IDOCK:   -8.69 KCAL/MOL
REMARK 924 INTRA-LIGAND FREE ENERGY PREDICTED BY IDOCK:   -0.87 KCAL/MOL
REMARK 927      BINDING AFFINITY PREDICTED BY RF-SCORE:    0.00 PKD
ROOT
HETATM    1  C   UNL     1     -12.549  15.938  74.266  1.00  0.00    -0.725 C  
HETATM    2  C   UNL     1     -13.240  15.519  72.978  1.00  0.00    -0.543 C  
ENDROOT
BRANCH   2   3
HETATM    3  O   UNL     1     -12.916  14.155  72.683  1.00  0.00    -0.420 OA 
BRANCH   3   4
HETATM    4  C   UNL     1     -12.524  13.916  71.390  1.00  0.00    -0.340 A  
HETATM    5  C   UNL     1     -12.182  15.038  70.636  1.00  0.00    -0.381 A  
HETATM    6  C   UNL     1     -11.930  14.924  69.262  1.00  0.00    -0.326 A  
HETATM    7  C   UNL     1     -12.022  13.678  68.619  1.00  0.00    -0.395 A  
HETATM    8  C   UNL     1     -12.236  12.542  69.414  1.00  0.00    -0.117 A  
HETATM    9  C   UNL     1     -12.479  12.659  70.790  1.00  0.00    -0.357 A  
BRANCH   7  10
HETATM   10  C   UNL     1     -12.105  13.592  67.103  1.00  0.00    -0.404 C  
BRANCH  10  11
HETATM   11  C   UNL     1     -11.180  12.662  66.352  1.00  0.00    -0.350 A  
HETATM   12  C   UNL     1     -11.122  11.314  66.732  1.00  0.00    -0.314 A  
HETATM   13  C   UNL     1     -10.274  10.374  66.091  1.00  0.00    -0.288 A  
HETATM   14 CL   UNL     1     -10.226  14.708  64.805  1.00  0.00    -0.332 Cl 
HETATM   15  C   UNL     1      -9.649  10.756  64.905  1.00  0.00    -0.307 A  
HETATM   16  C   UNL     1      -9.704  12.094  64.500  1.00  0.00    -0.060 A  
HETATM   17  C   UNL     1     -10.404  13.048  65.255  1.00  0.00    -0.304 A  
BRANCH  13  18
HETATM   18  C   UNL     1      -9.854   9.145  66.877  1.00  0.00    -0.217 C  
HETATM   19  C   UNL     1      -8.930   7.341  65.815  1.00  0.00    -0.015 C  
HETATM   20  C   UNL     1      -9.793   6.903  66.978  1.00  0.00    -0.174 C  
HETATM   21  O   UNL     1      -8.675   8.713  66.112  1.00  0.00    -0.138 OA 
HETATM   22  H   UNL     1      -7.484   9.809  69.107  1.00  0.00     0.000 HD 
HETATM   23  O   UNL     1     -10.767   7.986  66.920  1.00  0.00    -0.322 OA 
HETATM   24  C   UNL     1      -9.176   6.918  68.416  1.00  0.00    -0.124 C  
HETATM   25  O   UNL     1      -7.837   9.636  68.241  1.00  0.00    -0.085 OA 
HETATM   26  C   UNL     1      -9.533   8.213  69.190  1.00  0.00    -0.155 C  
HETATM   27  O   UNL     1      -7.771   6.671  68.358  1.00  0.00    -0.102 OA 
HETATM   28  H   UNL     1     -11.114   8.981  70.106  1.00  0.00     0.000 HD 
HETATM   29  H   UNL     1      -7.397   6.680  69.230  1.00  0.00     0.000 HD 
HETATM   30  O   UNL     1     -10.895   8.188  69.631  1.00  0.00    -0.232 OA 
HETATM   31  C   UNL     1      -9.273   9.430  68.304  1.00  0.00    -0.130 C  
BRANCH  20  32
HETATM   32  C   UNL     1     -10.220   5.445  66.691  1.00  0.00    -0.243 C  
HETATM   33  O   UNL     1     -11.338   5.340  65.804  1.00  0.00    -0.792 OA 
HETATM   34  H   UNL     1     -11.600   4.444  65.628  1.00  0.00     0.000 HD 
ENDBRANCH  20  32
ENDBRANCH  13  18
ENDBRANCH  10  11
ENDBRANCH   7  10
ENDBRANCH   3   4
ENDBRANCH   2   3
TORSDOF 6
ENDMDL
MODEL       60
REMARK 921   NORMALIZED FREE ENERGY PREDICTED BY IDOCK:   -6.23 KCAL/MOL
REMARK 922        TOTAL FREE ENERGY PREDICTED BY IDOCK:   -9.55 KCAL/MOL
REMARK 923 INTER-LIGAND FREE ENERGY PREDICTED BY IDOCK:   -8.01 KCAL/MOL
REMARK 924 INTRA-LIGAND FREE ENERGY PREDICTED BY IDOCK:   -1.54 KCAL/MOL
REMARK 927      BINDING AFFINITY PREDICTED BY RF-SCORE:    0.00 PKD
ROOT
HETATM    1  C   UNL     1      -6.598  10.063  62.584  1.00  0.00    -0.121 C  
HETATM    2  C   UNL     1      -7.700   9.750  63.583  1.00  0.00    -0.137 C  
ENDROOT
BRANCH   2   3
HETATM    3  O   UNL     1      -7.372  10.327  64.854  1.00  0.00    -0.143 OA 
BRANCH   3   4
HETATM    4  C   UNL     1      -8.024   9.776  65.928  1.00  0.00    -0.111 A  
HETATM    5  C   UNL     1      -9.288   9.247  65.674  1.00  0.00    -0.308 A  
HETATM    6  C   UNL     1     -10.106   8.814  66.726  1.00  0.00    -0.359 A  
HETATM    7  C   UNL     1      -9.667   8.909  68.058  1.00  0.00    -0.181 A  
HETATM    8  C   UNL     1      -8.344   9.318  68.287  1.00  0.00    -0.120 A  
HETATM    9  C   UNL     1      -7.527   9.743  67.230  1.00  0.00    -0.088 A  
BRANCH   7  10
HETATM   10  C   UNL     1     -10.652   8.784  69.209  1.00  0.00    -0.210 C  
BRANCH  10  11
HETATM   11  C   UNL     1     -11.252  10.028  69.822  1.00  0.00    -0.307 A  
HETATM   12  C   UNL     1     -11.285  11.207  69.065  1.00  0.00    -0.318 A  
HETATM   13  C   UNL     1     -11.818  12.424  69.564  1.00  0.00    -0.368 A  
HETATM   14 CL   UNL     1     -11.684   8.758  72.207  1.00  0.00    -0.426 Cl 
HETATM   15  C   UNL     1     -12.532  12.385  70.761  1.00  0.00    -0.356 A  
HETATM   16  C   UNL     1     -12.523  11.215  71.528  1.00  0.00    -0.356 A  
HETATM   17  C   UNL     1     -11.831  10.073  71.094  1.00  0.00    -0.393 A  
BRANCH  13  18
HETATM   18  C   UNL     1     -11.326  13.721  68.948  1.00  0.00    -0.288 C  
HETATM   19  C   UNL     1     -11.998  14.347  66.853  1.00  0.00    -0.399 C  
HETATM   20  C   UNL     1     -10.568  14.767  67.112  1.00  0.00    -0.285 C  
HETATM   21  O   UNL     1     -12.505  14.126  68.169  1.00  0.00    -0.115 OA 
HETATM   22  H   UNL     1     -12.246  16.390  70.698  1.00  0.00     0.000 HD 
HETATM   23  O   UNL     1     -10.198  13.670  67.998  1.00  0.00    -0.235 OA 
HETATM   24  C   UNL     1     -10.309  16.096  67.895  1.00  0.00    -0.277 C  
HETATM   25  O   UNL     1     -12.363  15.671  70.088  1.00  0.00    -0.395 OA 
HETATM   26  C   UNL     1     -10.060  15.845  69.404  1.00  0.00    -0.267 C  
HETATM   27  O   UNL     1     -11.358  17.032  67.650  1.00  0.00    -0.035 OA 
HETATM   28  H   UNL     1      -8.600  15.150  70.550  1.00  0.00     0.000 HD 
HETATM   29  H   UNL     1     -11.200  17.839  68.125  1.00  0.00     0.000 HD 
HETATM   30  O   UNL     1      -8.752  15.304  69.625  1.00  0.00    -0.235 OA 
HETATM   31  C   UNL     1     -11.134  14.908  69.954  1.00  0.00    -0.259 C  
BRANCH  20  32
HETATM   32  C   UNL     1      -9.894  14.923  65.730  1.00  0.00    -0.348 C  
HETATM   33  O   UNL     1     -10.301  16.098  65.022  1.00  0.00    -0.573 OA 
HETATM   34  H   UNL     1      -9.887  16.193  64.173  1.00  0.00     0.000 HD 
ENDBRANCH  20  32
ENDBRANCH  13  18
ENDBRANCH  10  11
ENDBRANCH   7  10
ENDBRANCH   3   4
ENDBRANCH   2   3
TORSDOF 6
ENDMDL
MODEL       61
REMARK 921   NORMALIZED FREE ENERGY PREDICTED BY IDOCK:   -6.23 KCAL/MOL
REMARK 922        TOTAL FREE ENERGY PREDICTED BY IDOCK:   -9.55 KCAL/MOL
REMARK 923 INTER-LIGAND FREE ENERGY PREDICTED BY IDOCK:   -8.05 KCAL/MOL
REMARK 924 INTRA-LIGAND FREE ENERGY PREDICTED BY IDOCK:   -1.49 KCAL/MOL
REMARK 927      BINDING AFFINITY PREDICTED BY RF-SCORE:    0.00 PKD
ROOT
HETATM    1  C   UNL     1     -10.533  18.140  67.305  1.00  0.00    -0.407 C  
HETATM    2  C   UNL     1      -9.675  17.429  66.270  1.00  0.00    -0.261 C  
ENDROOT
BRANCH   2   3
HETATM    3  O   UNL     1     -10.475  17.107  65.125  1.00  0.00    -0.666 OA 
BRANCH   3   4
HETATM    4  C   UNL     1     -10.817  15.784  65.010  1.00  0.00    -0.443 A  
HETATM    5  C   UNL     1      -9.920  14.867  65.556  1.00  0.00    -0.392 A  
HETATM    6  C   UNL     1     -10.088  13.492  65.346  1.00  0.00    -0.279 A  
HETATM    7  C   UNL     1     -11.163  13.012  64.578  1.00  0.00    -0.372 A  
HETATM    8  C   UNL     1     -12.129  13.935  64.149  1.00  0.00    -0.464 A  
HETATM    9  C   UNL     1     -11.961  15.310  64.368  1.00  0.00    -0.285 A  
BRANCH   7  10
HETATM   10  C   UNL     1     -11.162  11.587  64.050  1.00  0.00    -0.414 C  
BRANCH  10  11
HETATM   11  C   UNL     1     -10.232  10.561  64.656  1.00  0.00    -0.364 A  
HETATM   12  C   UNL     1     -10.543  10.027  65.914  1.00  0.00     0.001 A  
HETATM   13  C   UNL     1      -9.721   9.070  66.564  1.00  0.00    -0.311 A  
HETATM   14 CL   UNL     1      -8.482  10.771  62.563  1.00  0.00    -0.253 Cl 
HETATM   15  C   UNL     1      -8.693   8.480  65.830  1.00  0.00    -0.210 A  
HETATM   16  C   UNL     1      -8.373   8.989  64.566  1.00  0.00    -0.182 A  
HETATM   17  C   UNL     1      -9.092  10.064  64.018  1.00  0.00    -0.257 A  
BRANCH  13  18
HETATM   18  C   UNL     1      -9.802   8.974  68.077  1.00  0.00    -0.166 C  
HETATM   19  C   UNL     1      -8.891   7.190  69.184  1.00  0.00    -0.135 C  
HETATM   20  C   UNL     1     -10.155   7.665  69.867  1.00  0.00    -0.198 C  
HETATM   21  O   UNL     1      -8.524   8.315  68.385  1.00  0.00    -0.127 OA 
HETATM   22  H   UNL     1      -8.243  11.483  69.596  1.00  0.00     0.000 HD 
HETATM   23  O   UNL     1     -10.856   8.135  68.679  1.00  0.00    -0.078 OA 
HETATM   24  C   UNL     1     -10.063   8.875  70.854  1.00  0.00    -0.241 C  
HETATM   25  O   UNL     1      -8.308  10.655  69.134  1.00  0.00    -0.151 OA 
HETATM   26  C   UNL     1     -10.437  10.215  70.170  1.00  0.00    -0.255 C  
HETATM   27  O   UNL     1      -8.783   8.908  71.485  1.00  0.00    -0.228 OA 
HETATM   28  H   UNL     1     -12.081  11.134  69.553  1.00  0.00     0.000 HD 
HETATM   29  H   UNL     1      -8.728   9.642  72.084  1.00  0.00     0.000 HD 
HETATM   30  O   UNL     1     -11.852  10.313  69.972  1.00  0.00    -0.256 OA 
HETATM   31  C   UNL     1      -9.695  10.339  68.840  1.00  0.00    -0.189 C  
BRANCH  20  32
HETATM   32  C   UNL     1     -10.698   6.466  70.678  1.00  0.00    -0.257 C  
HETATM   33  O   UNL     1     -10.704   6.686  72.091  1.00  0.00    -0.210 OA 
HETATM   34  H   UNL     1     -11.038   5.949  72.589  1.00  0.00     0.000 HD 
ENDBRANCH  20  32
ENDBRANCH  13  18
ENDBRANCH  10  11
ENDBRANCH   7  10
ENDBRANCH   3   4
ENDBRANCH   2   3
TORSDOF 6
ENDMDL
MODEL       62
REMARK 921   NORMALIZED FREE ENERGY PREDICTED BY IDOCK:   -6.21 KCAL/MOL
REMARK 922        TOTAL FREE ENERGY PREDICTED BY IDOCK:   -9.53 KCAL/MOL
REMARK 923 INTER-LIGAND FREE ENERGY PREDICTED BY IDOCK:   -8.84 KCAL/MOL
REMARK 924 INTRA-LIGAND FREE ENERGY PREDICTED BY IDOCK:   -0.68 KCAL/MOL
REMARK 927      BINDING AFFINITY PREDICTED BY RF-SCORE:    0.00 PKD
ROOT
HETATM    1  C   UNL     1     -11.278  11.637  63.211  1.00  0.00    -0.305 C  
HETATM    2  C   UNL     1     -12.602  12.105  63.794  1.00  0.00    -0.475 C  
ENDROOT
BRANCH   2   3
HETATM    3  O   UNL     1     -12.431  13.395  64.394  1.00  0.00    -0.568 OA 
BRANCH   3   4
HETATM    4  C   UNL     1     -11.629  13.417  65.506  1.00  0.00    -0.325 A  
HETATM    5  C   UNL     1     -10.549  14.297  65.467  1.00  0.00    -0.351 A  
HETATM    6  C   UNL     1      -9.575  14.278  66.475  1.00  0.00    -0.313 A  
HETATM    7  C   UNL     1      -9.669  13.368  67.542  1.00  0.00    -0.224 A  
HETATM    8  C   UNL     1     -10.828  12.584  67.637  1.00  0.00    -0.255 A  
HETATM    9  C   UNL     1     -11.804  12.612  66.631  1.00  0.00    -0.449 A  
BRANCH   7  10
HETATM   10  C   UNL     1      -8.467  13.091  68.431  1.00  0.00    -0.118 C  
BRANCH  10  11
HETATM   11  C   UNL     1      -7.519  14.214  68.784  1.00  0.00    -0.129 A  
HETATM   12  C   UNL     1      -7.892  15.532  68.487  1.00  0.00    -0.135 A  
HETATM   13  C   UNL     1      -7.059  16.646  68.771  1.00  0.00    -0.194 A  
HETATM   14 CL   UNL     1      -5.625  12.457  69.687  1.00  0.00    -0.084 Cl 
HETATM   15  C   UNL     1      -5.936  16.439  69.571  1.00  0.00    -0.176 A  
HETATM   16  C   UNL     1      -5.552  15.132  69.890  1.00  0.00    -0.118 A  
HETATM   17  C   UNL     1      -6.299  14.031  69.441  1.00  0.00    -0.115 A  
BRANCH  13  18
HETATM   18  C   UNL     1      -7.255  17.908  67.950  1.00  0.00    -0.219 C  
HETATM   19  C   UNL     1      -8.812  19.469  68.562  1.00  0.00    -0.342 C  
HETATM   20  C   UNL     1      -8.708  19.368  67.056  1.00  0.00    -0.293 C  
HETATM   21  O   UNL     1      -7.589  18.878  69.002  1.00  0.00    -0.314 OA 
HETATM   22  H   UNL     1      -4.523  19.793  67.840  1.00  0.00     0.000 HD 
HETATM   23  O   UNL     1      -8.364  17.954  66.977  1.00  0.00    -0.223 OA 
HETATM   24  C   UNL     1      -7.569  20.158  66.330  1.00  0.00    -0.268 C  
HETATM   25  O   UNL     1      -5.314  19.433  68.226  1.00  0.00    -0.184 OA 
HETATM   26  C   UNL     1      -6.331  19.269  66.049  1.00  0.00    -0.195 C  
HETATM   27  O   UNL     1      -7.251  21.349  67.049  1.00  0.00    -0.801 OA 
HETATM   28  H   UNL     1      -5.821  17.824  64.791  1.00  0.00     0.000 HD 
HETATM   29  H   UNL     1      -6.560  21.828  66.608  1.00  0.00     0.000 HD 
HETATM   30  O   UNL     1      -6.581  18.369  64.963  1.00  0.00    -0.467 OA 
HETATM   31  C   UNL     1      -5.951  18.500  67.313  1.00  0.00    -0.157 C  
BRANCH  20  32
HETATM   32  C   UNL     1     -10.047  19.885  66.483  1.00  0.00    -0.488 C  
HETATM   33  O   UNL     1     -10.607  19.034  65.479  1.00  0.00    -0.557 OA 
HETATM   34  H   UNL     1     -11.430  19.352  65.127  1.00  0.00     0.000 HD 
ENDBRANCH  20  32
ENDBRANCH  13  18
ENDBRANCH  10  11
ENDBRANCH   7  10
ENDBRANCH   3   4
ENDBRANCH   2   3
TORSDOF 6
ENDMDL
MODEL       63
REMARK 921   NORMALIZED FREE ENERGY PREDICTED BY IDOCK:   -6.21 KCAL/MOL
REMARK 922        TOTAL FREE ENERGY PREDICTED BY IDOCK:   -9.52 KCAL/MOL
REMARK 923 INTER-LIGAND FREE ENERGY PREDICTED BY IDOCK:   -8.84 KCAL/MOL
REMARK 924 INTRA-LIGAND FREE ENERGY PREDICTED BY IDOCK:   -0.69 KCAL/MOL
REMARK 927      BINDING AFFINITY PREDICTED BY RF-SCORE:    0.00 PKD
ROOT
HETATM    1  C   UNL     1     -11.718   1.748  73.220  1.00  0.00    -0.197 C  
HETATM    2  C   UNL     1     -10.301   2.277  73.063  1.00  0.00    -0.142 C  
ENDROOT
BRANCH   2   3
HETATM    3  O   UNL     1     -10.012   2.466  71.672  1.00  0.00    -0.158 OA 
BRANCH   3   4
HETATM    4  C   UNL     1     -10.021   3.771  71.249  1.00  0.00    -0.094 A  
HETATM    5  C   UNL     1      -9.729   3.981  69.902  1.00  0.00    -0.263 A  
HETATM    6  C   UNL     1      -9.546   5.279  69.405  1.00  0.00    -0.215 A  
HETATM    7  C   UNL     1      -9.652   6.392  70.257  1.00  0.00    -0.177 A  
HETATM    8  C   UNL     1     -10.077   6.172  71.576  1.00  0.00    -0.227 A  
HETATM    9  C   UNL     1     -10.266   4.872  72.067  1.00  0.00    -0.263 A  
BRANCH   7  10
HETATM   10  C   UNL     1      -9.117   7.749  69.829  1.00  0.00    -0.147 C  
BRANCH  10  11
HETATM   11  C   UNL     1     -10.046   8.940  69.774  1.00  0.00    -0.205 A  
HETATM   12  C   UNL     1     -10.309   9.535  68.532  1.00  0.00    -0.234 A  
HETATM   13  C   UNL     1     -11.158  10.663  68.388  1.00  0.00    -0.328 A  
HETATM   14 CL   UNL     1     -10.333   8.962  72.495  1.00  0.00    -0.112 Cl 
HETATM   15  C   UNL     1     -11.928  11.049  69.484  1.00  0.00    -0.413 A  
HETATM   16  C   UNL     1     -11.691  10.459  70.731  1.00  0.00    -0.464 A  
HETATM   17  C   UNL     1     -10.712   9.465  70.885  1.00  0.00    -0.323 A  
BRANCH  13  18
HETATM   18  C   UNL     1     -10.951  11.558  67.179  1.00  0.00    -0.286 C  
HETATM   19  C   UNL     1     -11.636  13.741  67.213  1.00  0.00    -0.361 C  
HETATM   20  C   UNL     1     -11.810  13.139  65.836  1.00  0.00    -0.406 C  
HETATM   21  O   UNL     1     -10.703  12.853  67.829  1.00  0.00    -0.218 OA 
HETATM   22  H   UNL     1      -7.743  11.946  66.416  1.00  0.00     0.000 HD 
HETATM   23  O   UNL     1     -12.081  11.768  66.253  1.00  0.00    -0.446 OA 
HETATM   24  C   UNL     1     -10.574  13.091  64.878  1.00  0.00    -0.337 C  
HETATM   25  O   UNL     1      -8.543  12.102  66.904  1.00  0.00    -0.191 OA 
HETATM   26  C   UNL     1      -9.856  11.718  64.921  1.00  0.00    -0.223 C  
HETATM   27  O   UNL     1      -9.700  14.188  65.138  1.00  0.00    -0.568 OA 
HETATM   28  H   UNL     1     -10.167   9.881  64.244  1.00  0.00     0.000 HD 
HETATM   29  H   UNL     1      -8.950  14.159  64.556  1.00  0.00     0.000 HD 
HETATM   30  O   UNL     1     -10.608  10.723  64.218  1.00  0.00    -0.350 OA 
HETATM   31  C   UNL     1      -9.632  11.300  66.374  1.00  0.00    -0.198 C  
BRANCH  20  32
HETATM   32  C   UNL     1     -12.898  13.972  65.121  1.00  0.00    -0.334 C  
HETATM   33  O   UNL     1     -12.452  14.573  63.902  1.00  0.00    -0.955 OA 
HETATM   34  H   UNL     1     -13.121  15.085  63.463  1.00  0.00     0.000 HD 
ENDBRANCH  20  32
ENDBRANCH  13  18
ENDBRANCH  10  11
ENDBRANCH   7  10
ENDBRANCH   3   4
ENDBRANCH   2   3
TORSDOF 6
ENDMDL
MODEL       64
REMARK 921   NORMALIZED FREE ENERGY PREDICTED BY IDOCK:   -6.20 KCAL/MOL
REMARK 922        TOTAL FREE ENERGY PREDICTED BY IDOCK:   -9.52 KCAL/MOL
REMARK 923 INTER-LIGAND FREE ENERGY PREDICTED BY IDOCK:   -8.28 KCAL/MOL
REMARK 924 INTRA-LIGAND FREE ENERGY PREDICTED BY IDOCK:   -1.24 KCAL/MOL
REMARK 927      BINDING AFFINITY PREDICTED BY RF-SCORE:    0.00 PKD
ROOT
HETATM    1  C   UNL     1     -10.789  19.451  67.145  1.00  0.00    -0.561 C  
HETATM    2  C   UNL     1      -9.911  18.536  66.307  1.00  0.00    -0.337 C  
ENDROOT
BRANCH   2   3
HETATM    3  O   UNL     1     -10.701  17.926  65.278  1.00  0.00    -0.640 OA 
BRANCH   3   4
HETATM    4  C   UNL     1     -10.769  16.557  65.332  1.00  0.00    -0.259 A  
HETATM    5  C   UNL     1     -11.648  15.950  64.437  1.00  0.00    -0.234 A  
HETATM    6  C   UNL     1     -11.919  14.577  64.522  1.00  0.00    -0.482 A  
HETATM    7  C   UNL     1     -11.311  13.789  65.513  1.00  0.00    -0.313 A  
HETATM    8  C   UNL     1     -10.330  14.386  66.319  1.00  0.00    -0.300 A  
HETATM    9  C   UNL     1     -10.056  15.758  66.226  1.00  0.00    -0.320 A  
BRANCH   7  10
HETATM   10  C   UNL     1     -11.851  12.406  65.843  1.00  0.00    -0.467 C  
BRANCH  10  11
HETATM   11  C   UNL     1     -10.907  11.228  65.914  1.00  0.00    -0.264 A  
HETATM   12  C   UNL     1     -10.873  10.458  67.085  1.00  0.00    -0.301 A  
HETATM   13  C   UNL     1     -10.010   9.343  67.244  1.00  0.00    -0.252 A  
HETATM   14 CL   UNL     1      -9.880  11.781  63.438  1.00  0.00    -0.407 Cl 
HETATM   15  C   UNL     1      -9.338   8.868  66.119  1.00  0.00    -0.301 A  
HETATM   16  C   UNL     1      -9.367   9.614  64.935  1.00  0.00    -0.306 A  
HETATM   17  C   UNL     1     -10.088  10.817  64.858  1.00  0.00    -0.322 A  
BRANCH  13  18
HETATM   18  C   UNL     1      -9.628   8.936  68.655  1.00  0.00    -0.153 C  
HETATM   19  C   UNL     1      -8.133  10.176  69.864  1.00  0.00    -0.122 C  
HETATM   20  C   UNL     1      -7.989   8.702  70.172  1.00  0.00    -0.103 C  
HETATM   21  O   UNL     1      -9.435  10.251  69.284  1.00  0.00    -0.198 OA 
HETATM   22  H   UNL     1     -12.225   8.939  70.727  1.00  0.00     0.000 HD 
HETATM   23  O   UNL     1      -8.372   8.189  68.862  1.00  0.00    -0.123 OA 
HETATM   24  C   UNL     1      -8.957   8.057  71.217  1.00  0.00    -0.139 C  
HETATM   25  O   UNL     1     -11.524   9.325  70.213  1.00  0.00    -0.243 OA 
HETATM   26  C   UNL     1     -10.167   7.363  70.542  1.00  0.00    -0.193 C  
HETATM   27  O   UNL     1      -9.341   9.019  72.200  1.00  0.00    -0.356 OA 
HETATM   28  H   UNL     1     -10.519   5.698  69.526  1.00  0.00     0.000 HD 
HETATM   29  H   UNL     1      -9.929   8.627  72.835  1.00  0.00     0.000 HD 
HETATM   30  O   UNL     1      -9.777   6.123  69.940  1.00  0.00    -0.159 OA 
HETATM   31  C   UNL     1     -10.783   8.298  69.502  1.00  0.00    -0.174 C  
BRANCH  20  32
HETATM   32  C   UNL     1      -6.553   8.498  70.706  1.00  0.00    -0.041 C  
HETATM   33  O   UNL     1      -6.280   9.224  71.908  1.00  0.00    -0.209 OA 
HETATM   34  H   UNL     1      -5.397   9.099  72.236  1.00  0.00     0.000 HD 
ENDBRANCH  20  32
ENDBRANCH  13  18
ENDBRANCH  10  11
ENDBRANCH   7  10
ENDBRANCH   3   4
ENDBRANCH   2   3
TORSDOF 6
ENDMDL
MODEL       65
REMARK 921   NORMALIZED FREE ENERGY PREDICTED BY IDOCK:   -6.20 KCAL/MOL
REMARK 922        TOTAL FREE ENERGY PREDICTED BY IDOCK:   -9.51 KCAL/MOL
REMARK 923 INTER-LIGAND FREE ENERGY PREDICTED BY IDOCK:   -8.76 KCAL/MOL
REMARK 924 INTRA-LIGAND FREE ENERGY PREDICTED BY IDOCK:   -0.75 KCAL/MOL
REMARK 927      BINDING AFFINITY PREDICTED BY RF-SCORE:    0.00 PKD
ROOT
HETATM    1  C   UNL     1     -11.945  16.265  73.550  1.00  0.00    -0.470 C  
HETATM    2  C   UNL     1     -13.299  15.923  72.949  1.00  0.00    -0.547 C  
ENDROOT
BRANCH   2   3
HETATM    3  O   UNL     1     -13.131  15.549  71.576  1.00  0.00    -0.439 OA 
BRANCH   3   4
HETATM    4  C   UNL     1     -13.048  14.200  71.347  1.00  0.00    -0.358 A  
HETATM    5  C   UNL     1     -13.664  13.378  72.289  1.00  0.00    -0.705 A  
HETATM    6  C   UNL     1     -13.497  11.987  72.243  1.00  0.00    -0.239 A  
HETATM    7  C   UNL     1     -12.702  11.396  71.246  1.00  0.00    -0.498 A  
HETATM    8  C   UNL     1     -12.200  12.223  70.229  1.00  0.00    -0.342 A  
HETATM    9  C   UNL     1     -12.376  13.613  70.275  1.00  0.00    -0.392 A  
BRANCH   7  10
HETATM   10  C   UNL     1     -12.226   9.959  71.386  1.00  0.00    -0.499 C  
BRANCH  10  11
HETATM   11  C   UNL     1     -10.830   9.584  70.942  1.00  0.00    -0.407 A  
HETATM   12  C   UNL     1     -10.351  10.084  69.723  1.00  0.00    -0.290 A  
HETATM   13  C   UNL     1      -9.060   9.773  69.222  1.00  0.00    -0.189 A  
HETATM   14 CL   UNL     1     -10.473   7.960  73.115  1.00  0.00    -0.403 Cl 
HETATM   15  C   UNL     1      -8.161   9.135  70.076  1.00  0.00    -0.146 A  
HETATM   16  C   UNL     1      -8.615   8.638  71.303  1.00  0.00    -0.236 A  
HETATM   17  C   UNL     1      -9.952   8.802  71.697  1.00  0.00    -0.311 A  
BRANCH  13  18
HETATM   18  C   UNL     1      -8.838   9.866  67.723  1.00  0.00    -0.129 C  
HETATM   19  C   UNL     1      -7.187   8.646  66.711  1.00  0.00    -0.078 C  
HETATM   20  C   UNL     1      -7.355   9.993  66.042  1.00  0.00    -0.112 C  
HETATM   21  O   UNL     1      -8.418   8.490  67.417  1.00  0.00    -0.125 OA 
HETATM   22  H   UNL     1     -11.481   8.863  65.981  1.00  0.00     0.000 HD 
HETATM   23  O   UNL     1      -7.767  10.748  67.219  1.00  0.00    -0.104 OA 
HETATM   24  C   UNL     1      -8.483  10.161  64.971  1.00  0.00    -0.163 C  
HETATM   25  O   UNL     1     -10.693   8.754  66.501  1.00  0.00    -0.112 OA 
HETATM   26  C   UNL     1      -9.772  10.776  65.574  1.00  0.00    -0.239 C  
HETATM   27  O   UNL     1      -8.716   8.926  64.295  1.00  0.00    -0.350 OA 
HETATM   28  H   UNL     1     -10.397  12.556  66.184  1.00  0.00     0.000 HD 
HETATM   29  H   UNL     1      -9.401   9.029  63.645  1.00  0.00     0.000 HD 
HETATM   30  O   UNL     1      -9.607  12.179  65.815  1.00  0.00    -0.245 OA 
HETATM   31  C   UNL     1     -10.137  10.045  66.865  1.00  0.00    -0.229 C  
BRANCH  20  32
HETATM   32  C   UNL     1      -6.017  10.307  65.336  1.00  0.00    -0.115 C  
HETATM   33  O   UNL     1      -6.157  10.587  63.940  1.00  0.00    -0.292 OA 
HETATM   34  H   UNL     1      -5.334  10.780  63.506  1.00  0.00     0.000 HD 
ENDBRANCH  20  32
ENDBRANCH  13  18
ENDBRANCH  10  11
ENDBRANCH   7  10
ENDBRANCH   3   4
ENDBRANCH   2   3
TORSDOF 6
ENDMDL
MODEL       66
REMARK 921   NORMALIZED FREE ENERGY PREDICTED BY IDOCK:   -6.19 KCAL/MOL
REMARK 922        TOTAL FREE ENERGY PREDICTED BY IDOCK:   -9.50 KCAL/MOL
REMARK 923 INTER-LIGAND FREE ENERGY PREDICTED BY IDOCK:   -7.99 KCAL/MOL
REMARK 924 INTRA-LIGAND FREE ENERGY PREDICTED BY IDOCK:   -1.51 KCAL/MOL
REMARK 927      BINDING AFFINITY PREDICTED BY RF-SCORE:    0.00 PKD
ROOT
HETATM    1  C   UNL     1     -12.651  11.899  63.597  1.00  0.00    -0.555 C  
HETATM    2  C   UNL     1     -12.205  13.300  63.207  1.00  0.00    -0.313 C  
ENDROOT
BRANCH   2   3
HETATM    3  O   UNL     1     -12.622  14.232  64.213  1.00  0.00    -0.678 OA 
BRANCH   3   4
HETATM    4  C   UNL     1     -11.792  14.322  65.301  1.00  0.00    -0.374 A  
HETATM    5  C   UNL     1     -10.453  14.602  65.031  1.00  0.00    -0.447 A  
HETATM    6  C   UNL     1      -9.492  14.550  66.050  1.00  0.00    -0.262 A  
HETATM    7  C   UNL     1      -9.862  14.212  67.363  1.00  0.00    -0.239 A  
HETATM    8  C   UNL     1     -11.228  14.065  67.645  1.00  0.00    -0.317 A  
HETATM    9  C   UNL     1     -12.187  14.125  66.624  1.00  0.00    -0.450 A  
BRANCH   7  10
HETATM   10  C   UNL     1      -8.810  13.808  68.384  1.00  0.00    -0.165 C  
BRANCH  10  11
HETATM   11  C   UNL     1      -8.210  12.421  68.335  1.00  0.00    -0.144 A  
HETATM   12  C   UNL     1      -9.057  11.313  68.473  1.00  0.00    -0.173 A  
HETATM   13  C   UNL     1      -8.579   9.977  68.453  1.00  0.00    -0.113 A  
HETATM   14 CL   UNL     1      -5.673  13.424  68.121  1.00  0.00    -0.097 Cl 
HETATM   15  C   UNL     1      -7.260   9.757  68.060  1.00  0.00    -0.080 A  
HETATM   16  C   UNL     1      -6.399  10.850  67.905  1.00  0.00    -0.057 A  
HETATM   17  C   UNL     1      -6.855  12.162  68.109  1.00  0.00    -0.075 A  
BRANCH  13  18
HETATM   18  C   UNL     1      -9.412   8.914  69.146  1.00  0.00    -0.157 C  
HETATM   19  C   UNL     1     -11.357   9.469  70.216  1.00  0.00    -0.236 C  
HETATM   20  C   UNL     1     -10.638   8.354  70.942  1.00  0.00    -0.204 C  
HETATM   21  O   UNL     1     -10.770   9.428  68.915  1.00  0.00    -0.222 OA 
HETATM   22  H   UNL     1     -10.525   6.597  67.042  1.00  0.00     0.000 HD 
HETATM   23  O   UNL     1      -9.275   8.746  70.606  1.00  0.00    -0.166 OA 
HETATM   24  C   UNL     1     -10.830   6.886  70.436  1.00  0.00    -0.261 C  
HETATM   25  O   UNL     1     -10.512   7.445  67.471  1.00  0.00    -0.222 OA 
HETATM   26  C   UNL     1      -9.682   6.438  69.495  1.00  0.00    -0.150 C  
HETATM   27  O   UNL     1     -12.124   6.724  69.856  1.00  0.00    -0.656 OA 
HETATM   28  H   UNL     1      -7.784   5.893  69.659  1.00  0.00     0.000 HD 
HETATM   29  H   UNL     1     -12.240   5.833  69.549  1.00  0.00     0.000 HD 
HETATM   30  O   UNL     1      -8.487   6.168  70.236  1.00  0.00    -0.122 OA 
HETATM   31  C   UNL     1      -9.433   7.514  68.440  1.00  0.00    -0.148 C  
BRANCH  20  32
HETATM   32  C   UNL     1     -11.127   8.389  72.408  1.00  0.00    -0.361 C  
HETATM   33  O   UNL     1     -12.207   7.490  72.674  1.00  0.00    -0.541 OA 
HETATM   34  H   UNL     1     -12.508   7.513  73.575  1.00  0.00     0.000 HD 
ENDBRANCH  20  32
ENDBRANCH  13  18
ENDBRANCH  10  11
ENDBRANCH   7  10
ENDBRANCH   3   4
ENDBRANCH   2   3
TORSDOF 6
ENDMDL
MODEL       67
REMARK 921   NORMALIZED FREE ENERGY PREDICTED BY IDOCK:   -6.19 KCAL/MOL
REMARK 922        TOTAL FREE ENERGY PREDICTED BY IDOCK:   -9.50 KCAL/MOL
REMARK 923 INTER-LIGAND FREE ENERGY PREDICTED BY IDOCK:   -8.30 KCAL/MOL
REMARK 924 INTRA-LIGAND FREE ENERGY PREDICTED BY IDOCK:   -1.19 KCAL/MOL
REMARK 927      BINDING AFFINITY PREDICTED BY RF-SCORE:    0.00 PKD
ROOT
HETATM    1  C   UNL     1     -10.926  16.084  65.120  1.00  0.00    -0.360 C  
HETATM    2  C   UNL     1     -11.860  15.328  64.188  1.00  0.00    -0.124 C  
ENDROOT
BRANCH   2   3
HETATM    3  O   UNL     1     -12.594  14.350  64.936  1.00  0.00    -0.565 OA 
BRANCH   3   4
HETATM    4  C   UNL     1     -11.947  13.156  65.126  1.00  0.00    -0.394 A  
HETATM    5  C   UNL     1     -11.827  12.725  66.446  1.00  0.00    -0.472 A  
HETATM    6  C   UNL     1     -11.041  11.609  66.765  1.00  0.00    -0.366 A  
HETATM    7  C   UNL     1     -10.356  10.907  65.758  1.00  0.00    -0.303 A  
HETATM    8  C   UNL     1     -10.592  11.272  64.424  1.00  0.00    -0.410 A  
HETATM    9  C   UNL     1     -11.386  12.384  64.109  1.00  0.00    -0.442 A  
BRANCH   7  10
HETATM   10  C   UNL     1      -9.239   9.939  66.113  1.00  0.00    -0.211 C  
BRANCH  10  11
HETATM   11  C   UNL     1      -9.575   8.580  66.682  1.00  0.00    -0.292 A  
HETATM   12  C   UNL     1     -10.273   8.509  67.896  1.00  0.00    -0.273 A  
HETATM   13  C   UNL     1     -10.620   7.278  68.510  1.00  0.00    -0.207 A  
HETATM   14 CL   UNL     1      -8.253   7.299  64.658  1.00  0.00    -0.079 Cl 
HETATM   15  C   UNL     1     -10.456   6.107  67.770  1.00  0.00    -0.290 A  
HETATM   16  C   UNL     1      -9.773   6.156  66.550  1.00  0.00    -0.184 A  
HETATM   17  C   UNL     1      -9.278   7.370  66.049  1.00  0.00    -0.041 A  
BRANCH  13  18
HETATM   18  C   UNL     1     -10.845   7.271  70.011  1.00  0.00    -0.253 C  
HETATM   19  C   UNL     1      -9.462   6.081  71.393  1.00  0.00    -0.156 C  
HETATM   20  C   UNL     1     -10.886   6.065  71.905  1.00  0.00    -0.254 C  
HETATM   21  O   UNL     1      -9.461   7.196  70.501  1.00  0.00    -0.162 OA 
HETATM   22  H   UNL     1     -10.577  10.297  71.353  1.00  0.00     0.000 HD 
HETATM   23  O   UNL     1     -11.560   6.129  70.614  1.00  0.00    -0.321 OA 
HETATM   24  C   UNL     1     -11.392   7.282  72.747  1.00  0.00    -0.274 C  
HETATM   25  O   UNL     1     -10.260   9.479  70.987  1.00  0.00    -0.297 OA 
HETATM   26  C   UNL     1     -12.165   8.309  71.882  1.00  0.00    -0.337 C  
HETATM   27  O   UNL     1     -10.313   7.866  73.477  1.00  0.00    -0.263 OA 
HETATM   28  H   UNL     1     -13.946   8.453  71.023  1.00  0.00     0.000 HD 
HETATM   29  H   UNL     1     -10.620   8.605  73.989  1.00  0.00     0.000 HD 
HETATM   30  O   UNL     1     -13.472   7.823  71.554  1.00  0.00    -0.351 OA 
HETATM   31  C   UNL     1     -11.369   8.618  70.615  1.00  0.00    -0.247 C  
BRANCH  20  32
HETATM   32  C   UNL     1     -11.021   4.813  72.801  1.00  0.00    -0.194 C  
HETATM   33  O   UNL     1     -10.275   4.896  74.019  1.00  0.00    -0.181 OA 
HETATM   34  H   UNL     1     -10.358   4.126  74.569  1.00  0.00     0.000 HD 
ENDBRANCH  20  32
ENDBRANCH  13  18
ENDBRANCH  10  11
ENDBRANCH   7  10
ENDBRANCH   3   4
ENDBRANCH   2   3
TORSDOF 6
ENDMDL
MODEL       68
REMARK 921   NORMALIZED FREE ENERGY PREDICTED BY IDOCK:   -6.18 KCAL/MOL
REMARK 922        TOTAL FREE ENERGY PREDICTED BY IDOCK:   -9.48 KCAL/MOL
REMARK 923 INTER-LIGAND FREE ENERGY PREDICTED BY IDOCK:   -8.02 KCAL/MOL
REMARK 924 INTRA-LIGAND FREE ENERGY PREDICTED BY IDOCK:   -1.46 KCAL/MOL
REMARK 927      BINDING AFFINITY PREDICTED BY RF-SCORE:    0.00 PKD
ROOT
HETATM    1  C   UNL     1     -11.610  15.441  64.488  1.00  0.00    -0.296 C  
HETATM    2  C   UNL     1     -12.614  14.383  64.915  1.00  0.00    -0.286 C  
ENDROOT
BRANCH   2   3
HETATM    3  O   UNL     1     -12.537  13.263  64.024  1.00  0.00    -0.645 OA 
BRANCH   3   4
HETATM    4  C   UNL     1     -11.684  12.264  64.419  1.00  0.00    -0.365 A  
HETATM    5  C   UNL     1     -11.615  12.021  65.790  1.00  0.00    -0.353 A  
HETATM    6  C   UNL     1     -10.656  11.143  66.312  1.00  0.00    -0.309 A  
HETATM    7  C   UNL     1      -9.744  10.493  65.463  1.00  0.00    -0.298 A  
HETATM    8  C   UNL     1      -9.913  10.643  64.078  1.00  0.00    -0.401 A  
HETATM    9  C   UNL     1     -10.879  11.518  63.559  1.00  0.00    -0.473 A  
BRANCH   7  10
HETATM   10  C   UNL     1      -8.497   9.832  66.026  1.00  0.00    -0.131 C  
BRANCH  10  11
HETATM   11  C   UNL     1      -8.193   9.935  67.503  1.00  0.00    -0.114 A  
HETATM   12  C   UNL     1      -8.788   9.018  68.381  1.00  0.00    -0.134 A  
HETATM   13  C   UNL     1      -8.570   9.048  69.783  1.00  0.00    -0.138 A  
HETATM   14 CL   UNL     1      -6.664  12.173  67.129  1.00  0.00    -0.144 Cl 
HETATM   15  C   UNL     1      -7.559   9.875  70.272  1.00  0.00    -0.172 A  
HETATM   16  C   UNL     1      -6.944  10.790  69.411  1.00  0.00    -0.116 A  
HETATM   17  C   UNL     1      -7.309  10.865  68.057  1.00  0.00    -0.088 A  
BRANCH  13  18
HETATM   18  C   UNL     1      -9.630   8.436  70.681  1.00  0.00    -0.171 C  
HETATM   19  C   UNL     1      -9.382   8.448  72.955  1.00  0.00    -0.179 C  
HETATM   20  C   UNL     1     -10.073   7.184  72.492  1.00  0.00    -0.182 C  
HETATM   21  O   UNL     1      -9.560   9.329  71.846  1.00  0.00    -0.274 OA 
HETATM   22  H   UNL     1     -12.573   9.947  70.388  1.00  0.00     0.000 HD 
HETATM   23  O   UNL     1      -9.419   7.068  71.193  1.00  0.00    -0.165 OA 
HETATM   24  C   UNL     1     -11.614   7.227  72.227  1.00  0.00    -0.277 C  
HETATM   25  O   UNL     1     -11.677   9.843  70.690  1.00  0.00    -0.284 OA 
HETATM   26  C   UNL     1     -11.942   7.449  70.728  1.00  0.00    -0.230 C  
HETATM   27  O   UNL     1     -12.240   8.182  73.084  1.00  0.00    -0.645 OA 
HETATM   28  H   UNL     1     -11.912   6.393  69.052  1.00  0.00     0.000 HD 
HETATM   29  H   UNL     1     -13.176   8.208  72.923  1.00  0.00     0.000 HD 
HETATM   30  O   UNL     1     -11.711   6.256  69.970  1.00  0.00    -0.408 OA 
HETATM   31  C   UNL     1     -11.106   8.607  70.184  1.00  0.00    -0.192 C  
BRANCH  20  32
HETATM   32  C   UNL     1      -9.837   6.121  73.588  1.00  0.00    -0.184 C  
HETATM   33  O   UNL     1     -11.022   5.417  73.968  1.00  0.00    -0.369 OA 
HETATM   34  H   UNL     1     -10.877   4.763  74.643  1.00  0.00     0.000 HD 
ENDBRANCH  20  32
ENDBRANCH  13  18
ENDBRANCH  10  11
ENDBRANCH   7  10
ENDBRANCH   3   4
ENDBRANCH   2   3
TORSDOF 6
ENDMDL
MODEL       69
REMARK 921   NORMALIZED FREE ENERGY PREDICTED BY IDOCK:   -6.18 KCAL/MOL
REMARK 922        TOTAL FREE ENERGY PREDICTED BY IDOCK:   -9.48 KCAL/MOL
REMARK 923 INTER-LIGAND FREE ENERGY PREDICTED BY IDOCK:   -8.01 KCAL/MOL
REMARK 924 INTRA-LIGAND FREE ENERGY PREDICTED BY IDOCK:   -1.47 KCAL/MOL
REMARK 927      BINDING AFFINITY PREDICTED BY RF-SCORE:    0.00 PKD
ROOT
HETATM    1  C   UNL     1      -8.605  15.330  68.793  1.00  0.00    -0.190 C  
HETATM    2  C   UNL     1     -10.092  15.475  69.076  1.00  0.00    -0.234 C  
ENDROOT
BRANCH   2   3
HETATM    3  O   UNL     1     -10.741  16.051  67.935  1.00  0.00    -0.297 OA 
BRANCH   3   4
HETATM    4  C   UNL     1     -10.968  15.184  66.896  1.00  0.00    -0.323 A  
HETATM    5  C   UNL     1     -11.931  14.200  67.116  1.00  0.00    -0.460 A  
HETATM    6  C   UNL     1     -12.120  13.166  66.189  1.00  0.00    -0.479 A  
HETATM    7  C   UNL     1     -11.339  13.100  65.023  1.00  0.00    -0.325 A  
HETATM    8  C   UNL     1     -10.469  14.167  64.753  1.00  0.00    -0.432 A  
HETATM    9  C   UNL     1     -10.289  15.205  65.679  1.00  0.00    -0.379 A  
BRANCH   7  10
HETATM   10  C   UNL     1     -11.279  11.822  64.202  1.00  0.00    -0.437 C  
BRANCH  10  11
HETATM   11  C   UNL     1     -10.297  10.735  64.575  1.00  0.00    -0.401 A  
HETATM   12  C   UNL     1     -10.512  10.005  65.752  1.00  0.00    -0.084 A  
HETATM   13  C   UNL     1      -9.635   8.976  66.186  1.00  0.00    -0.341 A  
HETATM   14 CL   UNL     1      -8.705  11.305  62.424  1.00  0.00    -0.327 Cl 
HETATM   15  C   UNL     1      -8.657   8.530  65.298  1.00  0.00    -0.192 A  
HETATM   16  C   UNL     1      -8.434   9.236  64.111  1.00  0.00    -0.203 A  
HETATM   17  C   UNL     1      -9.201  10.367  63.789  1.00  0.00    -0.269 A  
BRANCH  13  18
HETATM   18  C   UNL     1      -9.606   8.645  67.667  1.00  0.00    -0.155 C  
HETATM   19  C   UNL     1      -9.702   6.472  68.379  1.00  0.00    -0.132 C  
HETATM   20  C   UNL     1     -10.434   7.389  69.334  1.00  0.00    -0.217 C  
HETATM   21  O   UNL     1      -8.866   7.375  67.655  1.00  0.00    -0.128 OA 
HETATM   22  H   UNL     1      -6.798   9.636  69.138  1.00  0.00     0.000 HD 
HETATM   23  O   UNL     1     -10.882   8.374  68.357  1.00  0.00    -0.074 OA 
HETATM   24  C   UNL     1      -9.606   8.160  70.415  1.00  0.00    -0.170 C  
HETATM   25  O   UNL     1      -7.345   9.069  68.606  1.00  0.00    -0.075 OA 
HETATM   26  C   UNL     1      -9.261   9.602  69.966  1.00  0.00    -0.241 C  
HETATM   27  O   UNL     1      -8.458   7.402  70.796  1.00  0.00    -0.128 OA 
HETATM   28  H   UNL     1     -10.197  11.338  69.773  1.00  0.00     0.000 HD 
HETATM   29  H   UNL     1      -7.955   7.870  71.452  1.00  0.00     0.000 HD 
HETATM   30  O   UNL     1     -10.409  10.454  70.048  1.00  0.00    -0.235 OA 
HETATM   31  C   UNL     1      -8.704   9.580  68.544  1.00  0.00    -0.124 C  
BRANCH  20  32
HETATM   32  C   UNL     1     -11.457   6.514  70.094  1.00  0.00    -0.415 C  
HETATM   33  O   UNL     1     -12.506   7.264  70.712  1.00  0.00    -0.545 OA 
HETATM   34  H   UNL     1     -13.134   6.726  71.179  1.00  0.00     0.000 HD 
ENDBRANCH  20  32
ENDBRANCH  13  18
ENDBRANCH  10  11
ENDBRANCH   7  10
ENDBRANCH   3   4
ENDBRANCH   2   3
TORSDOF 6
ENDMDL
MODEL       70
REMARK 921   NORMALIZED FREE ENERGY PREDICTED BY IDOCK:   -6.17 KCAL/MOL
REMARK 922        TOTAL FREE ENERGY PREDICTED BY IDOCK:   -9.47 KCAL/MOL
REMARK 923 INTER-LIGAND FREE ENERGY PREDICTED BY IDOCK:   -8.06 KCAL/MOL
REMARK 924 INTRA-LIGAND FREE ENERGY PREDICTED BY IDOCK:   -1.41 KCAL/MOL
REMARK 927      BINDING AFFINITY PREDICTED BY RF-SCORE:    0.00 PKD
ROOT
HETATM    1  C   UNL     1      -7.982   2.433  68.318  1.00  0.00    -0.064 C  
HETATM    2  C   UNL     1      -8.536   3.849  68.316  1.00  0.00    -0.092 C  
ENDROOT
BRANCH   2   3
HETATM    3  O   UNL     1      -9.779   3.877  69.029  1.00  0.00    -0.164 OA 
BRANCH   3   4
HETATM    4  C   UNL     1     -10.146   5.108  69.508  1.00  0.00    -0.246 A  
HETATM    5  C   UNL     1     -10.471   6.068  68.551  1.00  0.00    -0.287 A  
HETATM    6  C   UNL     1     -10.696   7.400  68.923  1.00  0.00    -0.152 A  
HETATM    7  C   UNL     1     -10.594   7.794  70.268  1.00  0.00    -0.231 A  
HETATM    8  C   UNL     1     -10.398   6.794  71.233  1.00  0.00    -0.225 A  
HETATM    9  C   UNL     1     -10.181   5.460  70.857  1.00  0.00    -0.303 A  
BRANCH   7  10
HETATM   10  C   UNL     1     -10.481   9.264  70.639  1.00  0.00    -0.325 C  
BRANCH  10  11
HETATM   11  C   UNL     1      -9.660  10.195  69.778  1.00  0.00    -0.213 A  
HETATM   12  C   UNL     1     -10.315  11.202  69.056  1.00  0.00    -0.214 A  
HETATM   13  C   UNL     1      -9.625  12.113  68.213  1.00  0.00    -0.210 A  
HETATM   14 CL   UNL     1      -7.349   8.850  70.362  1.00  0.00    -0.061 Cl 
HETATM   15  C   UNL     1      -8.233  12.145  68.282  1.00  0.00    -0.168 A  
HETATM   16  C   UNL     1      -7.559  11.157  69.007  1.00  0.00    -0.119 A  
HETATM   17  C   UNL     1      -8.265  10.153  69.689  1.00  0.00    -0.165 A  
BRANCH  13  18
HETATM   18  C   UNL     1     -10.402  12.762  67.082  1.00  0.00    -0.233 C  
HETATM   19  C   UNL     1     -11.767  11.512  65.737  1.00  0.00     0.261 C  
HETATM   20  C   UNL     1     -11.102  12.622  64.953  1.00  0.00    -0.296 C  
HETATM   21  O   UNL     1     -11.631  11.954  67.087  1.00  0.00    -0.444 OA 
HETATM   22  H   UNL     1     -12.555  15.048  68.164  1.00  0.00     0.000 HD 
HETATM   23  O   UNL     1      -9.859  12.681  65.712  1.00  0.00    -0.264 OA 
HETATM   24  C   UNL     1     -11.734  14.052  64.997  1.00  0.00    -0.364 C  
HETATM   25  O   UNL     1     -12.239  14.169  67.987  1.00  0.00    -0.310 OA 
HETATM   26  C   UNL     1     -11.049  14.961  66.049  1.00  0.00    -0.334 C  
HETATM   27  O   UNL     1     -13.149  13.967  65.169  1.00  0.00    -0.773 OA 
HETATM   28  H   UNL     1      -9.344  15.955  66.234  1.00  0.00     0.000 HD 
HETATM   29  H   UNL     1     -13.532  14.835  65.196  1.00  0.00     0.000 HD 
HETATM   30  O   UNL     1      -9.764  15.398  65.590  1.00  0.00    -0.343 OA 
HETATM   31  C   UNL     1     -10.923  14.211  67.374  1.00  0.00    -0.299 C  
BRANCH  20  32
HETATM   32  C   UNL     1     -11.098  12.180  63.472  1.00  0.00    -0.452 C  
HETATM   33  O   UNL     1     -12.367  11.707  63.012  1.00  0.00    -0.970 OA 
HETATM   34  H   UNL     1     -12.365  11.435  62.101  1.00  0.00     0.000 HD 
ENDBRANCH  20  32
ENDBRANCH  13  18
ENDBRANCH  10  11
ENDBRANCH   7  10
ENDBRANCH   3   4
ENDBRANCH   2   3
TORSDOF 6
ENDMDL
MODEL       71
REMARK 921   NORMALIZED FREE ENERGY PREDICTED BY IDOCK:   -6.16 KCAL/MOL
REMARK 922        TOTAL FREE ENERGY PREDICTED BY IDOCK:   -9.46 KCAL/MOL
REMARK 923 INTER-LIGAND FREE ENERGY PREDICTED BY IDOCK:   -8.01 KCAL/MOL
REMARK 924 INTRA-LIGAND FREE ENERGY PREDICTED BY IDOCK:   -1.45 KCAL/MOL
REMARK 927      BINDING AFFINITY PREDICTED BY RF-SCORE:    0.00 PKD
ROOT
HETATM    1  C   UNL     1      -9.160  16.594  66.009  1.00  0.00    -0.259 C  
HETATM    2  C   UNL     1     -10.377  15.694  66.158  1.00  0.00    -0.316 C  
ENDROOT
BRANCH   2   3
HETATM    3  O   UNL     1     -10.637  15.032  64.914  1.00  0.00    -0.409 OA 
BRANCH   3   4
HETATM    4  C   UNL     1     -10.611  13.661  64.969  1.00  0.00    -0.383 A  
HETATM    5  C   UNL     1     -10.827  13.093  66.223  1.00  0.00    -0.292 A  
HETATM    6  C   UNL     1     -10.656  11.716  66.423  1.00  0.00    -0.299 A  
HETATM    7  C   UNL     1     -10.260  10.884  65.361  1.00  0.00    -0.339 A  
HETATM    8  C   UNL     1     -10.178  11.448  64.079  1.00  0.00    -0.398 A  
HETATM    9  C   UNL     1     -10.357  12.825  63.883  1.00  0.00    -0.352 A  
BRANCH   7  10
HETATM   10  C   UNL     1      -9.733   9.484  65.630  1.00  0.00    -0.361 C  
BRANCH  10  11
HETATM   11  C   UNL     1      -8.906   9.217  66.867  1.00  0.00    -0.141 A  
HETATM   12  C   UNL     1      -9.495   8.536  67.940  1.00  0.00    -0.157 A  
HETATM   13  C   UNL     1      -8.799   8.253  69.144  1.00  0.00    -0.143 A  
HETATM   14 CL   UNL     1      -6.764  10.577  65.843  1.00  0.00    -0.126 Cl 
HETATM   15  C   UNL     1      -7.421   8.464  69.170  1.00  0.00    -0.089 A  
HETATM   16  C   UNL     1      -6.809   9.132  68.103  1.00  0.00    -0.068 A  
HETATM   17  C   UNL     1      -7.558   9.565  66.997  1.00  0.00    -0.091 A  
BRANCH  13  18
HETATM   18  C   UNL     1      -9.616   8.043  70.406  1.00  0.00    -0.174 C  
HETATM   19  C   UNL     1     -11.889   7.801  70.297  1.00  0.00     0.132 C  
HETATM   20  C   UNL     1     -11.482   8.548  71.548  1.00  0.00    -0.287 C  
HETATM   21  O   UNL     1     -10.676   7.155  69.908  1.00  0.00    -0.227 OA 
HETATM   22  H   UNL     1      -8.790   5.255  72.009  1.00  0.00     0.000 HD 
HETATM   23  O   UNL     1     -10.298   9.205  71.009  1.00  0.00    -0.242 OA 
HETATM   24  C   UNL     1     -11.021   7.724  72.796  1.00  0.00    -0.388 C  
HETATM   25  O   UNL     1      -9.212   5.775  71.335  1.00  0.00    -0.142 OA 
HETATM   26  C   UNL     1      -9.478   7.605  72.878  1.00  0.00    -0.206 C  
HETATM   27  O   UNL     1     -11.682   6.459  72.830  1.00  0.00    -0.479 OA 
HETATM   28  H   UNL     1      -7.945   8.765  73.360  1.00  0.00     0.000 HD 
HETATM   29  H   UNL     1     -11.402   5.960  73.587  1.00  0.00     0.000 HD 
HETATM   30  O   UNL     1      -8.890   8.838  73.309  1.00  0.00    -0.280 OA 
HETATM   31  C   UNL     1      -8.921   7.186  71.518  1.00  0.00    -0.134 C  
BRANCH  20  32
HETATM   32  C   UNL     1     -12.710   9.377  71.988  1.00  0.00    -0.403 C  
HETATM   33  O   UNL     1     -13.420   8.809  73.093  1.00  0.00    -0.953 OA 
HETATM   34  H   UNL     1     -14.174   9.319  73.363  1.00  0.00     0.000 HD 
ENDBRANCH  20  32
ENDBRANCH  13  18
ENDBRANCH  10  11
ENDBRANCH   7  10
ENDBRANCH   3   4
ENDBRANCH   2   3
TORSDOF 6
ENDMDL
MODEL       72
REMARK 921   NORMALIZED FREE ENERGY PREDICTED BY IDOCK:   -6.15 KCAL/MOL
REMARK 922        TOTAL FREE ENERGY PREDICTED BY IDOCK:   -9.45 KCAL/MOL
REMARK 923 INTER-LIGAND FREE ENERGY PREDICTED BY IDOCK:   -8.03 KCAL/MOL
REMARK 924 INTRA-LIGAND FREE ENERGY PREDICTED BY IDOCK:   -1.42 KCAL/MOL
REMARK 927      BINDING AFFINITY PREDICTED BY RF-SCORE:    0.00 PKD
ROOT
HETATM    1  C   UNL     1      -7.064   9.200  62.372  1.00  0.00    -0.097 C  
HETATM    2  C   UNL     1      -7.516   8.295  63.507  1.00  0.00    -0.119 C  
ENDROOT
BRANCH   2   3
HETATM    3  O   UNL     1      -7.006   8.795  64.750  1.00  0.00    -0.072 OA 
BRANCH   3   4
HETATM    4  C   UNL     1      -7.701   8.400  65.864  1.00  0.00    -0.086 A  
HETATM    5  C   UNL     1      -8.999   7.940  65.648  1.00  0.00    -0.077 A  
HETATM    6  C   UNL     1      -9.851   7.672  66.728  1.00  0.00    -0.307 A  
HETATM    7  C   UNL     1      -9.413   7.865  68.049  1.00  0.00    -0.159 A  
HETATM    8  C   UNL     1      -8.065   8.198  68.253  1.00  0.00    -0.128 A  
HETATM    9  C   UNL     1      -7.214   8.459  67.169  1.00  0.00    -0.084 A  
BRANCH   7  10
HETATM   10  C   UNL     1     -10.410   7.923  69.195  1.00  0.00    -0.225 C  
BRANCH  10  11
HETATM   11  C   UNL     1     -11.025   9.247  69.589  1.00  0.00    -0.192 A  
HETATM   12  C   UNL     1     -11.207  10.228  68.604  1.00  0.00    -0.263 A  
HETATM   13  C   UNL     1     -11.764  11.502  68.886  1.00  0.00    -0.403 A  
HETATM   14 CL   UNL     1     -11.139   8.518  72.224  1.00  0.00    -0.432 Cl 
HETATM   15  C   UNL     1     -12.352  11.699  70.134  1.00  0.00    -0.297 A  
HETATM   16  C   UNL     1     -12.194  10.728  71.129  1.00  0.00    -0.457 A  
HETATM   17  C   UNL     1     -11.477   9.547  70.877  1.00  0.00    -0.334 A  
BRANCH  13  18
HETATM   18  C   UNL     1     -11.417  12.650  67.955  1.00  0.00    -0.318 C  
HETATM   19  C   UNL     1      -9.932  14.267  68.600  1.00  0.00    -0.234 C  
HETATM   20  C   UNL     1     -11.031  14.852  67.742  1.00  0.00    -0.293 C  
HETATM   21  O   UNL     1     -10.006  12.873  68.299  1.00  0.00    -0.228 OA 
HETATM   22  H   UNL     1      -9.998  11.620  65.135  1.00  0.00     0.000 HD 
HETATM   23  O   UNL     1     -12.099  13.946  68.145  1.00  0.00    -0.365 OA 
HETATM   24  C   UNL     1     -10.903  14.746  66.186  1.00  0.00    -0.321 C  
HETATM   25  O   UNL     1     -10.031  11.842  66.058  1.00  0.00    -0.220 OA 
HETATM   26  C   UNL     1     -11.686  13.536  65.617  1.00  0.00    -0.339 C  
HETATM   27  O   UNL     1      -9.530  14.756  65.798  1.00  0.00    -0.462 OA 
HETATM   28  H   UNL     1     -13.576  13.049  65.268  1.00  0.00     0.000 HD 
HETATM   29  H   UNL     1      -9.452  14.692  64.854  1.00  0.00     0.000 HD 
HETATM   30  O   UNL     1     -13.096  13.791  65.617  1.00  0.00    -0.591 OA 
HETATM   31  C   UNL     1     -11.363  12.284  66.432  1.00  0.00    -0.354 C  
BRANCH  20  32
HETATM   32  C   UNL     1     -11.107  16.358  68.083  1.00  0.00    -0.320 C  
HETATM   33  O   UNL     1      -9.831  17.002  68.121  1.00  0.00    -0.254 OA 
HETATM   34  H   UNL     1      -9.878  17.927  68.331  1.00  0.00     0.000 HD 
ENDBRANCH  20  32
ENDBRANCH  13  18
ENDBRANCH  10  11
ENDBRANCH   7  10
ENDBRANCH   3   4
ENDBRANCH   2   3
TORSDOF 6
ENDMDL
MODEL       73
REMARK 921   NORMALIZED FREE ENERGY PREDICTED BY IDOCK:   -6.15 KCAL/MOL
REMARK 922        TOTAL FREE ENERGY PREDICTED BY IDOCK:   -9.45 KCAL/MOL
REMARK 923 INTER-LIGAND FREE ENERGY PREDICTED BY IDOCK:   -7.97 KCAL/MOL
REMARK 924 INTRA-LIGAND FREE ENERGY PREDICTED BY IDOCK:   -1.47 KCAL/MOL
REMARK 927      BINDING AFFINITY PREDICTED BY RF-SCORE:    0.00 PKD
ROOT
HETATM    1  C   UNL     1     -10.535   3.282  73.148  1.00  0.00    -0.254 C  
HETATM    2  C   UNL     1      -9.431   3.029  72.135  1.00  0.00    -0.128 C  
ENDROOT
BRANCH   2   3
HETATM    3  O   UNL     1      -9.934   3.256  70.812  1.00  0.00    -0.075 OA 
BRANCH   3   4
HETATM    4  C   UNL     1      -9.567   4.451  70.248  1.00  0.00    -0.193 A  
HETATM    5  C   UNL     1      -8.360   4.993  70.689  1.00  0.00    -0.106 A  
HETATM    6  C   UNL     1      -7.975   6.284  70.305  1.00  0.00    -0.112 A  
HETATM    7  C   UNL     1      -8.799   7.057  69.469  1.00  0.00    -0.133 A  
HETATM    8  C   UNL     1      -9.942   6.449  68.927  1.00  0.00    -0.168 A  
HETATM    9  C   UNL     1     -10.320   5.154  69.308  1.00  0.00    -0.248 A  
BRANCH   7  10
HETATM   10  C   UNL     1      -8.579   8.555  69.334  1.00  0.00    -0.128 C  
BRANCH  10  11
HETATM   11  C   UNL     1      -9.760   9.497  69.386  1.00  0.00    -0.190 A  
HETATM   12  C   UNL     1     -10.082  10.242  68.244  1.00  0.00    -0.176 A  
HETATM   13  C   UNL     1     -11.165  11.158  68.206  1.00  0.00    -0.343 A  
HETATM   14 CL   UNL     1     -10.207   8.940  72.028  1.00  0.00    -0.404 Cl 
HETATM   15  C   UNL     1     -12.070  11.148  69.267  1.00  0.00    -0.377 A  
HETATM   16  C   UNL     1     -11.775  10.401  70.413  1.00  0.00    -0.419 A  
HETATM   17  C   UNL     1     -10.598   9.641  70.496  1.00  0.00    -0.306 A  
BRANCH  13  18
HETATM   18  C   UNL     1     -11.106  12.288  67.194  1.00  0.00    -0.278 C  
HETATM   19  C   UNL     1      -9.277  13.659  67.083  1.00  0.00    -0.244 C  
HETATM   20  C   UNL     1     -10.548  14.424  66.785  1.00  0.00    -0.282 C  
HETATM   21  O   UNL     1      -9.671  12.303  66.875  1.00  0.00    -0.204 OA 
HETATM   22  H   UNL     1     -11.232  11.197  64.060  1.00  0.00     0.000 HD 
HETATM   23  O   UNL     1     -11.446  13.654  67.638  1.00  0.00    -0.291 OA 
HETATM   24  C   UNL     1     -11.133  14.369  65.336  1.00  0.00    -0.331 C  
HETATM   25  O   UNL     1     -10.823  11.382  64.898  1.00  0.00    -0.297 OA 
HETATM   26  C   UNL     1     -12.248  13.301  65.197  1.00  0.00    -0.443 C  
HETATM   27  O   UNL     1     -10.084  14.210  64.381  1.00  0.00    -0.682 OA 
HETATM   28  H   UNL     1     -14.146  13.090  65.728  1.00  0.00     0.000 HD 
HETATM   29  H   UNL     1     -10.440  14.176  63.501  1.00  0.00     0.000 HD 
HETATM   30  O   UNL     1     -13.463  13.744  65.813  1.00  0.00    -0.400 OA 
HETATM   31  C   UNL     1     -11.779  11.984  65.812  1.00  0.00    -0.245 C  
BRANCH  20  32
HETATM   32  C   UNL     1     -10.255  15.910  67.093  1.00  0.00    -0.278 C  
HETATM   33  O   UNL     1     -10.766  16.812  66.108  1.00  0.00    -0.240 OA 
HETATM   34  H   UNL     1     -10.585  17.725  66.297  1.00  0.00     0.000 HD 
ENDBRANCH  20  32
ENDBRANCH  13  18
ENDBRANCH  10  11
ENDBRANCH   7  10
ENDBRANCH   3   4
ENDBRANCH   2   3
TORSDOF 6
ENDMDL
MODEL       74
REMARK 921   NORMALIZED FREE ENERGY PREDICTED BY IDOCK:   -6.15 KCAL/MOL
REMARK 922        TOTAL FREE ENERGY PREDICTED BY IDOCK:   -9.45 KCAL/MOL
REMARK 923 INTER-LIGAND FREE ENERGY PREDICTED BY IDOCK:   -8.13 KCAL/MOL
REMARK 924 INTRA-LIGAND FREE ENERGY PREDICTED BY IDOCK:   -1.32 KCAL/MOL
REMARK 927      BINDING AFFINITY PREDICTED BY RF-SCORE:    0.00 PKD
ROOT
HETATM    1  C   UNL     1      -8.541   9.533  70.444  1.00  0.00    -0.246 C  
HETATM    2  C   UNL     1      -9.845   8.850  70.060  1.00  0.00    -0.174 C  
ENDROOT
BRANCH   2   3
HETATM    3  O   UNL     1      -9.684   8.187  68.800  1.00  0.00    -0.149 OA 
BRANCH   3   4
HETATM    4  C   UNL     1      -9.940   8.962  67.698  1.00  0.00    -0.196 A  
HETATM    5  C   UNL     1      -9.240   8.631  66.538  1.00  0.00    -0.236 A  
HETATM    6  C   UNL     1      -9.299   9.457  65.408  1.00  0.00    -0.311 A  
HETATM    7  C   UNL     1     -10.062  10.638  65.425  1.00  0.00    -0.356 A  
HETATM    8  C   UNL     1     -10.864  10.887  66.549  1.00  0.00    -0.234 A  
HETATM    9  C   UNL     1     -10.808  10.053  67.675  1.00  0.00    -0.336 A  
BRANCH   7  10
HETATM   10  C   UNL     1      -9.859  11.707  64.363  1.00  0.00    -0.253 C  
BRANCH  10  11
HETATM   11  C   UNL     1     -10.587  13.027  64.477  1.00  0.00    -0.413 A  
HETATM   12  C   UNL     1      -9.938  14.106  65.093  1.00  0.00    -0.263 A  
HETATM   13  C   UNL     1     -10.549  15.376  65.254  1.00  0.00    -0.450 A  
HETATM   14 CL   UNL     1     -12.853  11.982  63.355  1.00  0.00    -0.587 Cl 
HETATM   15  C   UNL     1     -11.745  15.620  64.580  1.00  0.00    -0.190 A  
HETATM   16  C   UNL     1     -12.404  14.560  63.948  1.00  0.00    -0.063 A  
HETATM   17  C   UNL     1     -11.863  13.264  63.958  1.00  0.00    -0.455 A  
BRANCH  13  18
HETATM   18  C   UNL     1     -10.047  16.269  66.374  1.00  0.00    -0.305 C  
HETATM   19  C   UNL     1      -8.989  15.374  68.195  1.00  0.00    -0.176 C  
HETATM   20  C   UNL     1      -9.826  16.572  68.588  1.00  0.00    -0.250 C  
HETATM   21  O   UNL     1      -8.835  15.546  66.787  1.00  0.00    -0.221 OA 
HETATM   22  H   UNL     1      -7.744  18.430  65.344  1.00  0.00     0.000 HD 
HETATM   23  O   UNL     1     -10.874  16.417  67.587  1.00  0.00    -0.327 OA 
HETATM   24  C   UNL     1      -9.220  18.002  68.399  1.00  0.00    -0.294 C  
HETATM   25  O   UNL     1      -8.078  17.584  65.619  1.00  0.00    -0.508 OA 
HETATM   26  C   UNL     1      -9.674  18.657  67.070  1.00  0.00    -0.308 C  
HETATM   27  O   UNL     1      -7.801  17.966  68.550  1.00  0.00    -0.282 OA 
HETATM   28  H   UNL     1     -11.311  19.500  66.338  1.00  0.00     0.000 HD 
HETATM   29  H   UNL     1      -7.434  18.834  68.435  1.00  0.00     0.000 HD 
HETATM   30  O   UNL     1     -11.033  19.099  67.153  1.00  0.00    -0.453 OA 
HETATM   31  C   UNL     1      -9.497  17.665  65.921  1.00  0.00     0.057 C  
BRANCH  20  32
HETATM   32  C   UNL     1     -10.145  16.416  70.092  1.00  0.00     0.364 C  
HETATM   33  O   UNL     1     -10.508  15.084  70.467  1.00  0.00    -0.511 OA 
HETATM   34  H   UNL     1     -10.705  14.989  71.391  1.00  0.00     0.000 HD 
ENDBRANCH  20  32
ENDBRANCH  13  18
ENDBRANCH  10  11
ENDBRANCH   7  10
ENDBRANCH   3   4
ENDBRANCH   2   3
TORSDOF 6
ENDMDL
MODEL       75
REMARK 921   NORMALIZED FREE ENERGY PREDICTED BY IDOCK:   -6.15 KCAL/MOL
REMARK 922        TOTAL FREE ENERGY PREDICTED BY IDOCK:   -9.44 KCAL/MOL
REMARK 923 INTER-LIGAND FREE ENERGY PREDICTED BY IDOCK:   -8.12 KCAL/MOL
REMARK 924 INTRA-LIGAND FREE ENERGY PREDICTED BY IDOCK:   -1.32 KCAL/MOL
REMARK 927      BINDING AFFINITY PREDICTED BY RF-SCORE:    0.00 PKD
ROOT
HETATM    1  C   UNL     1      -9.223   6.718  74.338  1.00  0.00    -0.248 C  
HETATM    2  C   UNL     1      -8.464   7.827  73.627  1.00  0.00    -0.222 C  
ENDROOT
BRANCH   2   3
HETATM    3  O   UNL     1      -8.155   7.413  72.290  1.00  0.00    -0.098 OA 
BRANCH   3   4
HETATM    4  C   UNL     1      -8.962   7.943  71.316  1.00  0.00    -0.135 A  
HETATM    5  C   UNL     1      -8.586   9.190  70.818  1.00  0.00    -0.265 A  
HETATM    6  C   UNL     1      -9.428   9.894  69.946  1.00  0.00    -0.256 A  
HETATM    7  C   UNL     1     -10.668   9.358  69.562  1.00  0.00    -0.238 A  
HETATM    8  C   UNL     1     -10.972   8.048  69.964  1.00  0.00    -0.202 A  
HETATM    9  C   UNL     1     -10.123   7.343  70.829  1.00  0.00    -0.190 A  
BRANCH   7  10
HETATM   10  C   UNL     1     -11.728  10.239  68.921  1.00  0.00    -0.057 C  
BRANCH  10  11
HETATM   11  C   UNL     1     -11.861  11.684  69.346  1.00  0.00    -0.408 A  
HETATM   12  C   UNL     1     -11.519  12.691  68.433  1.00  0.00    -0.350 A  
HETATM   13  C   UNL     1     -11.600  14.072  68.750  1.00  0.00    -0.366 A  
HETATM   14 CL   UNL     1     -12.625  10.969  71.874  1.00  0.00    -0.308 Cl 
HETATM   15  C   UNL     1     -12.251  14.438  69.927  1.00  0.00    -0.394 A  
HETATM   16  C   UNL     1     -12.613  13.449  70.847  1.00  0.00    -0.406 A  
HETATM   17  C   UNL     1     -12.355  12.093  70.588  1.00  0.00    -0.295 A  
BRANCH  13  18
HETATM   18  C   UNL     1     -10.719  15.033  67.971  1.00  0.00    -0.262 C  
HETATM   19  C   UNL     1     -10.109  17.046  68.871  1.00  0.00    -0.307 C  
HETATM   20  C   UNL     1     -10.317  17.160  67.377  1.00  0.00    -0.333 C  
HETATM   21  O   UNL     1      -9.939  15.641  69.058  1.00  0.00    -0.207 OA 
HETATM   22  H   UNL     1      -7.733  13.751  67.285  1.00  0.00     0.000 HD 
HETATM   23  O   UNL     1     -11.358  16.148  67.245  1.00  0.00    -0.084 OA 
HETATM   24  C   UNL     1      -9.148  16.743  66.424  1.00  0.00    -0.289 C  
HETATM   25  O   UNL     1      -8.398  14.160  67.828  1.00  0.00    -0.149 OA 
HETATM   26  C   UNL     1      -9.308  15.291  65.906  1.00  0.00    -0.273 C  
HETATM   27  O   UNL     1      -7.887  16.978  67.050  1.00  0.00    -0.166 OA 
HETATM   28  H   UNL     1     -10.427  14.323  64.588  1.00  0.00     0.000 HD 
HETATM   29  H   UNL     1      -7.178  16.725  66.472  1.00  0.00     0.000 HD 
HETATM   30  O   UNL     1     -10.329  15.213  64.905  1.00  0.00    -0.371 OA 
HETATM   31  C   UNL     1      -9.624  14.359  67.075  1.00  0.00    -0.247 C  
BRANCH  20  32
HETATM   32  C   UNL     1     -10.625  18.647  67.083  1.00  0.00    -0.417 C  
HETATM   33  O   UNL     1     -10.631  18.966  65.689  1.00  0.00    -0.575 OA 
HETATM   34  H   UNL     1     -10.819  19.880  65.509  1.00  0.00     0.000 HD 
ENDBRANCH  20  32
ENDBRANCH  13  18
ENDBRANCH  10  11
ENDBRANCH   7  10
ENDBRANCH   3   4
ENDBRANCH   2   3
TORSDOF 6
ENDMDL
MODEL       76
REMARK 921   NORMALIZED FREE ENERGY PREDICTED BY IDOCK:   -6.13 KCAL/MOL
REMARK 922        TOTAL FREE ENERGY PREDICTED BY IDOCK:   -9.41 KCAL/MOL
REMARK 923 INTER-LIGAND FREE ENERGY PREDICTED BY IDOCK:   -8.74 KCAL/MOL
REMARK 924 INTRA-LIGAND FREE ENERGY PREDICTED BY IDOCK:   -0.67 KCAL/MOL
REMARK 927      BINDING AFFINITY PREDICTED BY RF-SCORE:    0.00 PKD
ROOT
HETATM    1  C   UNL     1     -12.417  15.510  73.856  1.00  0.00    -0.769 C  
HETATM    2  C   UNL     1     -13.646  15.345  72.977  1.00  0.00    -0.470 C  
ENDROOT
BRANCH   2   3
HETATM    3  O   UNL     1     -13.857  13.954  72.706  1.00  0.00    -0.701 OA 
BRANCH   3   4
HETATM    4  C   UNL     1     -13.233  13.480  71.581  1.00  0.00    -0.366 A  
HETATM    5  C   UNL     1     -12.992  12.107  71.544  1.00  0.00    -0.398 A  
HETATM    6  C   UNL     1     -12.214  11.545  70.522  1.00  0.00    -0.469 A  
HETATM    7  C   UNL     1     -11.660  12.357  69.517  1.00  0.00    -0.353 A  
HETATM    8  C   UNL     1     -12.022  13.713  69.493  1.00  0.00    -0.397 A  
HETATM    9  C   UNL     1     -12.807  14.269  70.513  1.00  0.00    -0.336 A  
BRANCH   7  10
HETATM   10  C   UNL     1     -10.545  11.834  68.626  1.00  0.00    -0.250 C  
BRANCH  10  11
HETATM   11  C   UNL     1     -10.438  10.352  68.348  1.00  0.00    -0.216 A  
HETATM   12  C   UNL     1     -10.492   9.457  69.425  1.00  0.00    -0.231 A  
HETATM   13  C   UNL     1     -10.387   8.051  69.258  1.00  0.00    -0.224 A  
HETATM   14 CL   UNL     1     -10.062  10.786  65.673  1.00  0.00    -0.312 Cl 
HETATM   15  C   UNL     1     -10.457   7.537  67.965  1.00  0.00    -0.253 A  
HETATM   16  C   UNL     1     -10.417   8.413  66.875  1.00  0.00    -0.359 A  
HETATM   17  C   UNL     1     -10.338   9.801  67.067  1.00  0.00    -0.239 A  
BRANCH  13  18
HETATM   18  C   UNL     1      -9.899   7.230  70.438  1.00  0.00    -0.183 C  
HETATM   19  C   UNL     1     -10.656   5.096  70.768  1.00  0.00    -0.135 C  
HETATM   20  C   UNL     1     -10.427   5.800  72.087  1.00  0.00    -0.212 C  
HETATM   21  O   UNL     1      -9.888   5.881  69.855  1.00  0.00    -0.161 OA 
HETATM   22  H   UNL     1      -6.621   6.699  70.349  1.00  0.00     0.000 HD 
HETATM   23  O   UNL     1     -10.744   7.153  71.646  1.00  0.00    -0.213 OA 
HETATM   24  C   UNL     1      -8.977   5.838  72.674  1.00  0.00    -0.131 C  
HETATM   25  O   UNL     1      -7.530   6.559  70.106  1.00  0.00    -0.089 OA 
HETATM   26  C   UNL     1      -8.242   7.158  72.328  1.00  0.00    -0.101 C  
HETATM   27  O   UNL     1      -8.251   4.674  72.282  1.00  0.00    -0.109 OA 
HETATM   28  H   UNL     1      -8.283   9.052  72.910  1.00  0.00     0.000 HD 
HETATM   29  H   UNL     1      -7.371   4.697  72.639  1.00  0.00     0.000 HD 
HETATM   30  O   UNL     1      -8.734   8.243  73.122  1.00  0.00    -0.227 OA 
HETATM   31  C   UNL     1      -8.401   7.461  70.839  1.00  0.00    -0.115 C  
BRANCH  20  32
HETATM   32  C   UNL     1     -11.314   5.086  73.132  1.00  0.00    -0.321 C  
HETATM   33  O   UNL     1     -10.842   5.223  74.475  1.00  0.00    -0.397 OA 
HETATM   34  H   UNL     1     -11.387   4.783  75.117  1.00  0.00     0.000 HD 
ENDBRANCH  20  32
ENDBRANCH  13  18
ENDBRANCH  10  11
ENDBRANCH   7  10
ENDBRANCH   3   4
ENDBRANCH   2   3
TORSDOF 6
ENDMDL
MODEL       77
REMARK 921   NORMALIZED FREE ENERGY PREDICTED BY IDOCK:   -6.12 KCAL/MOL
REMARK 922        TOTAL FREE ENERGY PREDICTED BY IDOCK:   -9.41 KCAL/MOL
REMARK 923 INTER-LIGAND FREE ENERGY PREDICTED BY IDOCK:   -9.00 KCAL/MOL
REMARK 924 INTRA-LIGAND FREE ENERGY PREDICTED BY IDOCK:   -0.41 KCAL/MOL
REMARK 927      BINDING AFFINITY PREDICTED BY RF-SCORE:    0.00 PKD
ROOT
HETATM    1  C   UNL     1     -14.410  14.777  71.982  1.00  0.00    -0.642 C  
HETATM    2  C   UNL     1     -13.215  13.918  72.365  1.00  0.00    -0.488 C  
ENDROOT
BRANCH   2   3
HETATM    3  O   UNL     1     -12.097  14.257  71.535  1.00  0.00    -0.336 OA 
BRANCH   3   4
HETATM    4  C   UNL     1     -12.032  13.581  70.343  1.00  0.00    -0.295 A  
HETATM    5  C   UNL     1     -12.147  12.194  70.416  1.00  0.00    -0.395 A  
HETATM    6  C   UNL     1     -11.928  11.399  69.283  1.00  0.00    -0.400 A  
HETATM    7  C   UNL     1     -11.584  11.986  68.053  1.00  0.00    -0.407 A  
HETATM    8  C   UNL     1     -11.604  13.386  67.965  1.00  0.00    -0.369 A  
HETATM    9  C   UNL     1     -11.832  14.178  69.099  1.00  0.00    -0.380 A  
BRANCH   7  10
HETATM   10  C   UNL     1     -11.004  11.144  66.928  1.00  0.00    -0.333 C  
BRANCH  10  11
HETATM   11  C   UNL     1     -10.523   9.739  67.212  1.00  0.00    -0.324 A  
HETATM   12  C   UNL     1     -10.889   9.131  68.420  1.00  0.00    -0.098 A  
HETATM   13  C   UNL     1     -10.474   7.821  68.775  1.00  0.00    -0.201 A  
HETATM   14 CL   UNL     1      -9.082   9.662  64.887  1.00  0.00    -0.265 Cl 
HETATM   15  C   UNL     1      -9.870   7.036  67.794  1.00  0.00    -0.166 A  
HETATM   16  C   UNL     1      -9.506   7.620  66.576  1.00  0.00    -0.250 A  
HETATM   17  C   UNL     1      -9.769   8.975  66.318  1.00  0.00    -0.275 A  
BRANCH  13  18
HETATM   18  C   UNL     1     -10.422   7.467  70.250  1.00  0.00    -0.222 C  
HETATM   19  C   UNL     1      -9.598   8.956  71.780  1.00  0.00    -0.282 C  
HETATM   20  C   UNL     1      -9.252   7.535  72.165  1.00  0.00    -0.136 C  
HETATM   21  O   UNL     1     -10.677   8.779  70.862  1.00  0.00    -0.206 OA 
HETATM   22  H   UNL     1     -13.434   6.899  71.529  1.00  0.00     0.000 HD 
HETATM   23  O   UNL     1      -9.148   6.985  70.819  1.00  0.00    -0.153 OA 
HETATM   24  C   UNL     1     -10.321   6.684  72.927  1.00  0.00    -0.213 C  
HETATM   25  O   UNL     1     -12.712   7.430  71.214  1.00  0.00    -0.349 OA 
HETATM   26  C   UNL     1     -11.133   5.776  71.969  1.00  0.00    -0.260 C  
HETATM   27  O   UNL     1     -11.145   7.526  73.733  1.00  0.00    -0.522 OA 
HETATM   28  H   UNL     1     -10.851   4.097  70.954  1.00  0.00     0.000 HD 
HETATM   29  H   UNL     1     -11.794   7.009  74.195  1.00  0.00     0.000 HD 
HETATM   30  O   UNL     1     -10.353   4.654  71.541  1.00  0.00    -0.182 OA 
HETATM   31  C   UNL     1     -11.613   6.591  70.770  1.00  0.00    -0.377 C  
BRANCH  20  32
HETATM   32  C   UNL     1      -8.008   7.613  73.080  1.00  0.00    -0.115 C  
HETATM   33  O   UNL     1      -7.488   8.937  73.228  1.00  0.00    -0.362 OA 
HETATM   34  H   UNL     1      -6.723   8.985  73.790  1.00  0.00     0.000 HD 
ENDBRANCH  20  32
ENDBRANCH  13  18
ENDBRANCH  10  11
ENDBRANCH   7  10
ENDBRANCH   3   4
ENDBRANCH   2   3
TORSDOF 6
ENDMDL
MODEL       78
REMARK 921   NORMALIZED FREE ENERGY PREDICTED BY IDOCK:   -6.11 KCAL/MOL
REMARK 922        TOTAL FREE ENERGY PREDICTED BY IDOCK:   -9.40 KCAL/MOL
REMARK 923 INTER-LIGAND FREE ENERGY PREDICTED BY IDOCK:   -8.13 KCAL/MOL
REMARK 924 INTRA-LIGAND FREE ENERGY PREDICTED BY IDOCK:   -1.27 KCAL/MOL
REMARK 927      BINDING AFFINITY PREDICTED BY RF-SCORE:    0.00 PKD
ROOT
HETATM    1  C   UNL     1     -10.169   2.922  63.323  1.00  0.00    -0.158 C  
HETATM    2  C   UNL     1     -10.335   4.204  64.124  1.00  0.00    -0.093 C  
ENDROOT
BRANCH   2   3
HETATM    3  O   UNL     1      -9.352   4.246  65.167  1.00  0.00    -0.147 OA 
BRANCH   3   4
HETATM    4  C   UNL     1      -9.548   5.223  66.110  1.00  0.00    -0.161 A  
HETATM    5  C   UNL     1      -8.403   5.869  66.572  1.00  0.00    -0.112 A  
HETATM    6  C   UNL     1      -8.471   6.760  67.651  1.00  0.00    -0.122 A  
HETATM    7  C   UNL     1      -9.696   7.015  68.291  1.00  0.00    -0.136 A  
HETATM    8  C   UNL     1     -10.858   6.461  67.732  1.00  0.00    -0.418 A  
HETATM    9  C   UNL     1     -10.786   5.576  66.646  1.00  0.00    -0.332 A  
BRANCH   7  10
HETATM   10  C   UNL     1      -9.733   7.682  69.656  1.00  0.00    -0.171 C  
BRANCH  10  11
HETATM   11  C   UNL     1     -10.531   8.952  69.851  1.00  0.00    -0.223 A  
HETATM   12  C   UNL     1     -10.567   9.893  68.813  1.00  0.00    -0.246 A  
HETATM   13  C   UNL     1     -11.279  11.116  68.913  1.00  0.00    -0.317 A  
HETATM   14 CL   UNL     1     -11.177   8.265  72.419  1.00  0.00    -0.433 Cl 
HETATM   15  C   UNL     1     -12.149  11.283  69.989  1.00  0.00    -0.425 A  
HETATM   16  C   UNL     1     -12.139  10.350  71.031  1.00  0.00    -0.488 A  
HETATM   17  C   UNL     1     -11.287   9.234  70.992  1.00  0.00    -0.320 A  
BRANCH  13  18
HETATM   18  C   UNL     1     -10.829  12.274  68.039  1.00  0.00    -0.220 C  
HETATM   19  C   UNL     1      -8.715  12.322  67.164  1.00  0.00    -0.193 C  
HETATM   20  C   UNL     1      -9.187  13.715  67.519  1.00  0.00    -0.218 C  
HETATM   21  O   UNL     1      -9.935  11.583  67.098  1.00  0.00    -0.196 OA 
HETATM   22  H   UNL     1     -12.634  12.553  65.266  1.00  0.00     0.000 HD 
HETATM   23  O   UNL     1     -10.031  13.354  68.652  1.00  0.00    -0.216 OA 
HETATM   24  C   UNL     1     -10.092  14.481  66.499  1.00  0.00    -0.274 C  
HETATM   25  O   UNL     1     -11.963  12.187  65.831  1.00  0.00    -0.561 OA 
HETATM   26  C   UNL     1     -11.598  14.344  66.838  1.00  0.00    -0.388 C  
HETATM   27  O   UNL     1      -9.782  14.085  65.163  1.00  0.00    -0.578 OA 
HETATM   28  H   UNL     1     -12.871  15.076  68.170  1.00  0.00     0.000 HD 
HETATM   29  H   UNL     1     -10.331  14.550  64.544  1.00  0.00     0.000 HD 
HETATM   30  O   UNL     1     -11.947  15.160  67.962  1.00  0.00    -0.277 OA 
HETATM   31  C   UNL     1     -11.934  12.878  67.108  1.00  0.00    -0.310 C  
BRANCH  20  32
HETATM   32  C   UNL     1      -7.919  14.574  67.726  1.00  0.00    -0.159 C  
HETATM   33  O   UNL     1      -7.550  15.338  66.574  1.00  0.00    -0.234 OA 
HETATM   34  H   UNL     1      -6.771  15.866  66.701  1.00  0.00     0.000 HD 
ENDBRANCH  20  32
ENDBRANCH  13  18
ENDBRANCH  10  11
ENDBRANCH   7  10
ENDBRANCH   3   4
ENDBRANCH   2   3
TORSDOF 6
ENDMDL
MODEL       79
REMARK 921   NORMALIZED FREE ENERGY PREDICTED BY IDOCK:   -6.10 KCAL/MOL
REMARK 922        TOTAL FREE ENERGY PREDICTED BY IDOCK:   -9.37 KCAL/MOL
REMARK 923 INTER-LIGAND FREE ENERGY PREDICTED BY IDOCK:   -7.91 KCAL/MOL
REMARK 924 INTRA-LIGAND FREE ENERGY PREDICTED BY IDOCK:   -1.46 KCAL/MOL
REMARK 927      BINDING AFFINITY PREDICTED BY RF-SCORE:    0.00 PKD
ROOT
HETATM    1  C   UNL     1     -12.361  15.484  74.287  1.00  0.00    -0.815 C  
HETATM    2  C   UNL     1     -13.386  15.681  73.180  1.00  0.00    -0.558 C  
ENDROOT
BRANCH   2   3
HETATM    3  O   UNL     1     -13.964  14.416  72.834  1.00  0.00    -0.564 OA 
BRANCH   3   4
HETATM    4  C   UNL     1     -13.220  13.653  71.971  1.00  0.00    -0.434 A  
HETATM    5  C   UNL     1     -12.713  14.311  70.851  1.00  0.00    -0.427 A  
HETATM    6  C   UNL     1     -12.085  13.593  69.824  1.00  0.00    -0.396 A  
HETATM    7  C   UNL     1     -11.957  12.195  69.905  1.00  0.00    -0.380 A  
HETATM    8  C   UNL     1     -12.351  11.566  71.095  1.00  0.00    -0.382 A  
HETATM    9  C   UNL     1     -12.973  12.289  72.123  1.00  0.00    -0.291 A  
BRANCH   7  10
HETATM   10  C   UNL     1     -11.611  11.377  68.671  1.00  0.00    -0.384 C  
BRANCH  10  11
HETATM   11  C   UNL     1     -10.342  10.555  68.647  1.00  0.00    -0.201 A  
HETATM   12  C   UNL     1     -10.426   9.177  68.892  1.00  0.00    -0.239 A  
HETATM   13  C   UNL     1      -9.287   8.331  68.901  1.00  0.00    -0.147 A  
HETATM   14 CL   UNL     1      -8.800  12.773  68.217  1.00  0.00    -0.186 Cl 
HETATM   15  C   UNL     1      -8.080   8.849  68.431  1.00  0.00    -0.109 A  
HETATM   16  C   UNL     1      -7.978  10.219  68.169  1.00  0.00    -0.109 A  
HETATM   17  C   UNL     1      -9.080  11.072  68.343  1.00  0.00    -0.161 A  
BRANCH  13  18
HETATM   18  C   UNL     1      -9.367   7.040  69.696  1.00  0.00    -0.149 C  
HETATM   19  C   UNL     1      -9.074   7.048  71.966  1.00  0.00    -0.131 C  
HETATM   20  C   UNL     1      -8.505   5.789  71.350  1.00  0.00    -0.128 C  
HETATM   21  O   UNL     1      -9.961   7.522  70.952  1.00  0.00    -0.181 OA 
HETATM   22  H   UNL     1     -12.348   5.594  69.479  1.00  0.00     0.000 HD 
HETATM   23  O   UNL     1      -8.111   6.358  70.067  1.00  0.00    -0.116 OA 
HETATM   24  C   UNL     1      -9.476   4.600  71.046  1.00  0.00    -0.161 C  
HETATM   25  O   UNL     1     -11.712   6.225  69.794  1.00  0.00    -0.403 OA 
HETATM   26  C   UNL     1      -9.950   4.598  69.570  1.00  0.00    -0.196 C  
HETATM   27  O   UNL     1     -10.554   4.586  71.980  1.00  0.00    -0.145 OA 
HETATM   28  H   UNL     1      -9.201   4.144  67.793  1.00  0.00     0.000 HD 
HETATM   29  H   UNL     1     -11.143   3.864  71.795  1.00  0.00     0.000 HD 
HETATM   30  O   UNL     1      -8.909   4.146  68.697  1.00  0.00    -0.094 OA 
HETATM   31  C   UNL     1     -10.416   5.999  69.177  1.00  0.00    -0.257 C  
BRANCH  20  32
HETATM   32  C   UNL     1      -7.439   5.256  72.334  1.00  0.00    -0.096 C  
HETATM   33  O   UNL     1      -7.707   3.934  72.809  1.00  0.00    -0.071 OA 
HETATM   34  H   UNL     1      -7.052   3.607  73.414  1.00  0.00     0.000 HD 
ENDBRANCH  20  32
ENDBRANCH  13  18
ENDBRANCH  10  11
ENDBRANCH   7  10
ENDBRANCH   3   4
ENDBRANCH   2   3
TORSDOF 6
ENDMDL
MODEL       80
REMARK 921   NORMALIZED FREE ENERGY PREDICTED BY IDOCK:   -6.07 KCAL/MOL
REMARK 922        TOTAL FREE ENERGY PREDICTED BY IDOCK:   -9.33 KCAL/MOL
REMARK 923 INTER-LIGAND FREE ENERGY PREDICTED BY IDOCK:   -8.01 KCAL/MOL
REMARK 924 INTRA-LIGAND FREE ENERGY PREDICTED BY IDOCK:   -1.32 KCAL/MOL
REMARK 927      BINDING AFFINITY PREDICTED BY RF-SCORE:    0.00 PKD
ROOT
HETATM    1  C   UNL     1     -12.043  13.535  63.988  1.00  0.00    -0.494 C  
HETATM    2  C   UNL     1     -12.692  13.735  65.348  1.00  0.00    -0.472 C  
ENDROOT
BRANCH   2   3
HETATM    3  O   UNL     1     -11.702  14.167  66.291  1.00  0.00    -0.359 OA 
BRANCH   3   4
HETATM    4  C   UNL     1     -11.701  13.489  67.484  1.00  0.00    -0.367 A  
HETATM    5  C   UNL     1     -11.628  12.099  67.400  1.00  0.00    -0.410 A  
HETATM    6  C   UNL     1     -11.789  11.305  68.543  1.00  0.00    -0.355 A  
HETATM    7  C   UNL     1     -12.030  11.896  69.796  1.00  0.00    -0.377 A  
HETATM    8  C   UNL     1     -11.967  13.295  69.886  1.00  0.00    -0.400 A  
HETATM    9  C   UNL     1     -11.798  14.086  68.740  1.00  0.00    -0.396 A  
BRANCH   7  10
HETATM   10  C   UNL     1     -12.552  11.065  70.957  1.00  0.00    -0.512 C  
BRANCH  10  11
HETATM   11  C   UNL     1     -11.848   9.784  71.340  1.00  0.00    -0.488 A  
HETATM   12  C   UNL     1     -10.469   9.676  71.113  1.00  0.00    -0.281 A  
HETATM   13  C   UNL     1      -9.729   8.507  71.430  1.00  0.00    -0.287 A  
HETATM   14 CL   UNL     1     -14.196   8.615  72.119  1.00  0.00    -0.515 Cl 
HETATM   15  C   UNL     1     -10.353   7.523  72.195  1.00  0.00    -0.252 A  
HETATM   16  C   UNL     1     -11.727   7.616  72.444  1.00  0.00    -0.366 A  
HETATM   17  C   UNL     1     -12.476   8.701  71.961  1.00  0.00    -0.373 A  
BRANCH  13  18
HETATM   18  C   UNL     1      -8.438   8.256  70.672  1.00  0.00    -0.130 C  
HETATM   19  C   UNL     1      -8.388   8.360  68.386  1.00  0.00    -0.131 C  
HETATM   20  C   UNL     1      -7.449   7.291  68.902  1.00  0.00    -0.101 C  
HETATM   21  O   UNL     1      -8.595   9.178  69.538  1.00  0.00    -0.126 OA 
HETATM   22  H   UNL     1      -6.069  10.458  71.426  1.00  0.00     0.000 HD 
HETATM   23  O   UNL     1      -8.208   6.919  70.090  1.00  0.00    -0.128 OA 
HETATM   24  C   UNL     1      -6.023   7.716  69.383  1.00  0.00    -0.030 C  
HETATM   25  O   UNL     1      -6.858  10.146  70.998  1.00  0.00    -0.341 OA 
HETATM   26  C   UNL     1      -5.960   7.912  70.919  1.00  0.00    -0.034 C  
HETATM   27  O   UNL     1      -5.571   8.857  68.654  1.00  0.00    -0.040 OA 
HETATM   28  H   UNL     1      -5.919   6.771  72.539  1.00  0.00     0.000 HD 
HETATM   29  H   UNL     1      -4.705   9.115  68.947  1.00  0.00     0.000 HD 
HETATM   30  O   UNL     1      -5.958   6.651  71.598  1.00  0.00    -0.036 OA 
HETATM   31  C   UNL     1      -7.137   8.771  71.377  1.00  0.00    -0.090 C  
BRANCH  20  32
HETATM   32  C   UNL     1      -7.250   6.281  67.749  1.00  0.00    -0.083 C  
HETATM   33  O   UNL     1      -6.396   6.762  66.707  1.00  0.00    -0.039 OA 
HETATM   34  H   UNL     1      -6.274   6.141  65.998  1.00  0.00     0.000 HD 
ENDBRANCH  20  32
ENDBRANCH  13  18
ENDBRANCH  10  11
ENDBRANCH   7  10
ENDBRANCH   3   4
ENDBRANCH   2   3
TORSDOF 6
ENDMDL
MODEL       81
REMARK 921   NORMALIZED FREE ENERGY PREDICTED BY IDOCK:   -6.06 KCAL/MOL
REMARK 922        TOTAL FREE ENERGY PREDICTED BY IDOCK:   -9.33 KCAL/MOL
REMARK 923 INTER-LIGAND FREE ENERGY PREDICTED BY IDOCK:   -8.60 KCAL/MOL
REMARK 924 INTRA-LIGAND FREE ENERGY PREDICTED BY IDOCK:   -0.73 KCAL/MOL
REMARK 927      BINDING AFFINITY PREDICTED BY RF-SCORE:    0.00 PKD
ROOT
HETATM    1  C   UNL     1     -11.857  13.923  64.336  1.00  0.00    -0.456 C  
HETATM    2  C   UNL     1     -12.680  14.066  65.607  1.00  0.00    -0.481 C  
ENDROOT
BRANCH   2   3
HETATM    3  O   UNL     1     -11.842  14.541  66.669  1.00  0.00    -0.393 OA 
BRANCH   3   4
HETATM    4  C   UNL     1     -11.802  13.739  67.780  1.00  0.00    -0.369 A  
HETATM    5  C   UNL     1     -11.765  12.365  67.545  1.00  0.00    -0.425 A  
HETATM    6  C   UNL     1     -11.891  11.455  68.604  1.00  0.00    -0.377 A  
HETATM    7  C   UNL     1     -12.059  11.913  69.922  1.00  0.00    -0.344 A  
HETATM    8  C   UNL     1     -11.960  13.292  70.158  1.00  0.00    -0.388 A  
HETATM    9  C   UNL     1     -11.826  14.198  69.096  1.00  0.00    -0.380 A  
BRANCH   7  10
HETATM   10  C   UNL     1     -12.546  10.972  71.012  1.00  0.00    -0.512 C  
BRANCH  10  11
HETATM   11  C   UNL     1     -12.174   9.507  70.962  1.00  0.00    -0.385 A  
HETATM   12  C   UNL     1     -11.053   9.120  70.215  1.00  0.00    -0.272 A  
HETATM   13  C   UNL     1     -10.638   7.768  70.102  1.00  0.00    -0.237 A  
HETATM   14 CL   UNL     1     -14.357   8.804  72.454  1.00  0.00    -0.494 Cl 
HETATM   15  C   UNL     1     -11.233   6.826  70.941  1.00  0.00    -0.338 A  
HETATM   16  C   UNL     1     -12.346   7.194  71.705  1.00  0.00    -0.398 A  
HETATM   17  C   UNL     1     -12.851   8.503  71.660  1.00  0.00    -0.338 A  
BRANCH  13  18
HETATM   18  C   UNL     1      -9.818   7.375  68.886  1.00  0.00    -0.157 C  
HETATM   19  C   UNL     1      -8.489   8.910  67.831  1.00  0.00    -0.125 C  
HETATM   20  C   UNL     1      -9.095   7.943  66.837  1.00  0.00    -0.143 C  
HETATM   21  O   UNL     1      -8.625   8.214  69.070  1.00  0.00    -0.131 OA 
HETATM   22  H   UNL     1      -7.587   5.011  69.564  1.00  0.00     0.000 HD 
HETATM   23  O   UNL     1     -10.345   7.693  67.544  1.00  0.00    -0.212 OA 
HETATM   24  C   UNL     1      -8.403   6.556  66.625  1.00  0.00    -0.113 C  
HETATM   25  O   UNL     1      -7.937   5.895  69.549  1.00  0.00    -0.101 OA 
HETATM   26  C   UNL     1      -9.065   5.439  67.470  1.00  0.00    -0.107 C  
HETATM   27  O   UNL     1      -6.996   6.663  66.841  1.00  0.00    -0.063 OA 
HETATM   28  H   UNL     1     -10.728   4.362  67.427  1.00  0.00     0.000 HD 
HETATM   29  H   UNL     1      -6.577   5.821  66.712  1.00  0.00     0.000 HD 
HETATM   30  O   UNL     1     -10.323   5.047  66.909  1.00  0.00    -0.228 OA 
HETATM   31  C   UNL     1      -9.241   5.919  68.910  1.00  0.00    -0.119 C  
BRANCH  20  32
HETATM   32  C   UNL     1      -9.096   8.658  65.467  1.00  0.00    -0.131 C  
HETATM   33  O   UNL     1     -10.139   9.627  65.327  1.00  0.00    -0.379 OA 
HETATM   34  H   UNL     1     -10.139  10.066  64.484  1.00  0.00     0.000 HD 
ENDBRANCH  20  32
ENDBRANCH  13  18
ENDBRANCH  10  11
ENDBRANCH   7  10
ENDBRANCH   3   4
ENDBRANCH   2   3
TORSDOF 6
ENDMDL
MODEL       82
REMARK 921   NORMALIZED FREE ENERGY PREDICTED BY IDOCK:   -6.06 KCAL/MOL
REMARK 922        TOTAL FREE ENERGY PREDICTED BY IDOCK:   -9.32 KCAL/MOL
REMARK 923 INTER-LIGAND FREE ENERGY PREDICTED BY IDOCK:   -8.40 KCAL/MOL
REMARK 924 INTRA-LIGAND FREE ENERGY PREDICTED BY IDOCK:   -0.92 KCAL/MOL
REMARK 927      BINDING AFFINITY PREDICTED BY RF-SCORE:    0.00 PKD
ROOT
HETATM    1  C   UNL     1     -11.854  13.924  64.339  1.00  0.00    -0.456 C  
HETATM    2  C   UNL     1     -12.659  14.078  65.620  1.00  0.00    -0.512 C  
ENDROOT
BRANCH   2   3
HETATM    3  O   UNL     1     -11.809  14.571  66.663  1.00  0.00    -0.393 OA 
BRANCH   3   4
HETATM    4  C   UNL     1     -11.745  13.781  67.782  1.00  0.00    -0.358 A  
HETATM    5  C   UNL     1     -11.700  12.405  67.562  1.00  0.00    -0.425 A  
HETATM    6  C   UNL     1     -11.803  11.506  68.632  1.00  0.00    -0.382 A  
HETATM    7  C   UNL     1     -11.956  11.977  69.948  1.00  0.00    -0.391 A  
HETATM    8  C   UNL     1     -11.865  13.359  70.167  1.00  0.00    -0.342 A  
HETATM    9  C   UNL     1     -11.754  14.255  69.093  1.00  0.00    -0.360 A  
BRANCH   7  10
HETATM   10  C   UNL     1     -12.418  11.043  71.055  1.00  0.00    -0.512 C  
BRANCH  10  11
HETATM   11  C   UNL     1     -12.030   9.583  71.017  1.00  0.00    -0.407 A  
HETATM   12  C   UNL     1     -10.916   9.199  70.259  1.00  0.00    -0.279 A  
HETATM   13  C   UNL     1     -10.487   7.850  70.157  1.00  0.00    -0.231 A  
HETATM   14 CL   UNL     1     -14.184   8.874  72.549  1.00  0.00    -0.485 Cl 
HETATM   15  C   UNL     1     -11.059   6.912  71.016  1.00  0.00    -0.305 A  
HETATM   16  C   UNL     1     -12.165   7.277  71.791  1.00  0.00    -0.368 A  
HETATM   17  C   UNL     1     -12.686   8.580  71.737  1.00  0.00    -0.349 A  
BRANCH  13  18
HETATM   18  C   UNL     1      -9.679   7.452  68.935  1.00  0.00    -0.150 C  
HETATM   19  C   UNL     1      -8.195   5.713  69.032  1.00  0.00    -0.100 C  
HETATM   20  C   UNL     1      -7.689   6.807  68.118  1.00  0.00    -0.109 C  
HETATM   21  O   UNL     1      -9.591   5.996  69.119  1.00  0.00    -0.129 OA 
HETATM   22  H   UNL     1     -11.597   6.463  66.409  1.00  0.00     0.000 HD 
HETATM   23  O   UNL     1      -8.291   7.938  68.813  1.00  0.00    -0.125 OA 
HETATM   24  C   UNL     1      -8.207   6.848  66.642  1.00  0.00    -0.115 C  
HETATM   25  O   UNL     1     -11.144   6.376  67.240  1.00  0.00    -0.368 OA 
HETATM   26  C   UNL     1      -9.390   7.834  66.466  1.00  0.00    -0.189 C  
HETATM   27  O   UNL     1      -8.503   5.530  66.182  1.00  0.00    -0.115 OA 
HETATM   28  H   UNL     1      -9.660   9.795  66.376  1.00  0.00     0.000 HD 
HETATM   29  H   UNL     1      -8.817   5.555  65.286  1.00  0.00     0.000 HD 
HETATM   30  O   UNL     1      -8.934   9.191  66.484  1.00  0.00    -0.137 OA 
HETATM   31  C   UNL     1     -10.426   7.596  67.564  1.00  0.00    -0.266 C  
BRANCH  20  32
HETATM   32  C   UNL     1      -6.153   6.654  68.049  1.00  0.00    -0.028 C  
HETATM   33  O   UNL     1      -5.707   5.816  66.979  1.00  0.00    -0.016 OA 
HETATM   34  H   UNL     1      -4.763   5.722  66.937  1.00  0.00     0.000 HD 
ENDBRANCH  20  32
ENDBRANCH  13  18
ENDBRANCH  10  11
ENDBRANCH   7  10
ENDBRANCH   3   4
ENDBRANCH   2   3
TORSDOF 6
ENDMDL
MODEL       83
REMARK 921   NORMALIZED FREE ENERGY PREDICTED BY IDOCK:   -6.05 KCAL/MOL
REMARK 922        TOTAL FREE ENERGY PREDICTED BY IDOCK:   -9.31 KCAL/MOL
REMARK 923 INTER-LIGAND FREE ENERGY PREDICTED BY IDOCK:   -7.93 KCAL/MOL
REMARK 924 INTRA-LIGAND FREE ENERGY PREDICTED BY IDOCK:   -1.38 KCAL/MOL
REMARK 927      BINDING AFFINITY PREDICTED BY RF-SCORE:    0.00 PKD
ROOT
HETATM    1  C   UNL     1     -10.151   1.814  72.154  1.00  0.00    -0.227 C  
HETATM    2  C   UNL     1      -9.268   2.918  71.594  1.00  0.00    -0.111 C  
ENDROOT
BRANCH   2   3
HETATM    3  O   UNL     1      -9.874   3.464  70.416  1.00  0.00    -0.137 OA 
BRANCH   3   4
HETATM    4  C   UNL     1      -9.512   4.754  70.120  1.00  0.00    -0.175 A  
HETATM    5  C   UNL     1      -8.385   5.242  70.780  1.00  0.00    -0.115 A  
HETATM    6  C   UNL     1      -8.028   6.593  70.680  1.00  0.00    -0.111 A  
HETATM    7  C   UNL     1      -8.802   7.482  69.914  1.00  0.00    -0.141 A  
HETATM    8  C   UNL     1      -9.852   6.950  69.151  1.00  0.00    -0.156 A  
HETATM    9  C   UNL     1     -10.202   5.595  69.248  1.00  0.00    -0.309 A  
BRANCH   7  10
HETATM   10  C   UNL     1      -8.645   8.985  70.077  1.00  0.00    -0.157 C  
BRANCH  10  11
HETATM   11  C   UNL     1      -9.851   9.886  69.944  1.00  0.00    -0.285 A  
HETATM   12  C   UNL     1      -9.881  10.827  68.906  1.00  0.00    -0.209 A  
HETATM   13  C   UNL     1     -10.966  11.721  68.713  1.00  0.00    -0.281 A  
HETATM   14 CL   UNL     1     -10.997   8.842  72.200  1.00  0.00    -0.412 Cl 
HETATM   15  C   UNL     1     -12.134  11.503  69.444  1.00  0.00    -0.345 A  
HETATM   16  C   UNL     1     -12.130  10.560  70.477  1.00  0.00    -0.437 A  
HETATM   17  C   UNL     1     -10.978   9.811  70.767  1.00  0.00    -0.336 A  
BRANCH  13  18
HETATM   18  C   UNL     1     -10.695  13.020  67.976  1.00  0.00    -0.232 C  
HETATM   19  C   UNL     1     -12.351  14.051  66.781  1.00  0.00    -0.332 C  
HETATM   20  C   UNL     1     -11.006  14.229  66.110  1.00  0.00    -0.313 C  
HETATM   21  O   UNL     1     -11.992  13.698  68.116  1.00  0.00    -0.362 OA 
HETATM   22  H   UNL     1      -9.807  15.481  70.022  1.00  0.00     0.000 HD 
HETATM   23  O   UNL     1     -10.409  12.967  66.530  1.00  0.00    -0.257 OA 
HETATM   24  C   UNL     1     -10.064  15.372  66.614  1.00  0.00    -0.265 C  
HETATM   25  O   UNL     1     -10.411  14.889  69.589  1.00  0.00    -0.226 OA 
HETATM   26  C   UNL     1      -9.012  14.856  67.629  1.00  0.00    -0.180 C  
HETATM   27  O   UNL     1     -10.831  16.467  67.111  1.00  0.00    -0.262 OA 
HETATM   28  H   UNL     1      -7.336  13.799  67.589  1.00  0.00     0.000 HD 
HETATM   29  H   UNL     1     -10.259  17.161  67.417  1.00  0.00     0.000 HD 
HETATM   30  O   UNL     1      -7.980  14.115  66.967  1.00  0.00    -0.129 OA 
HETATM   31  C   UNL     1      -9.699  13.997  68.690  1.00  0.00    -0.179 C  
BRANCH  20  32
HETATM   32  C   UNL     1     -11.289  14.507  64.616  1.00  0.00    -0.370 C  
HETATM   33  O   UNL     1     -10.976  15.843  64.213  1.00  0.00    -0.875 OA 
HETATM   34  H   UNL     1     -11.150  16.014  63.295  1.00  0.00     0.000 HD 
ENDBRANCH  20  32
ENDBRANCH  13  18
ENDBRANCH  10  11
ENDBRANCH   7  10
ENDBRANCH   3   4
ENDBRANCH   2   3
TORSDOF 6
ENDMDL
MODEL       84
REMARK 921   NORMALIZED FREE ENERGY PREDICTED BY IDOCK:   -6.03 KCAL/MOL
REMARK 922        TOTAL FREE ENERGY PREDICTED BY IDOCK:   -9.28 KCAL/MOL
REMARK 923 INTER-LIGAND FREE ENERGY PREDICTED BY IDOCK:   -7.66 KCAL/MOL
REMARK 924 INTRA-LIGAND FREE ENERGY PREDICTED BY IDOCK:   -1.62 KCAL/MOL
REMARK 927      BINDING AFFINITY PREDICTED BY RF-SCORE:    0.00 PKD
ROOT
HETATM    1  C   UNL     1     -12.968  10.609  71.452  1.00  0.00    -0.545 C  
HETATM    2  C   UNL     1     -13.643   9.438  72.150  1.00  0.00    -0.457 C  
ENDROOT
BRANCH   2   3
HETATM    3  O   UNL     1     -12.691   8.766  72.985  1.00  0.00    -0.249 OA 
BRANCH   3   4
HETATM    4  C   UNL     1     -11.761   8.013  72.316  1.00  0.00    -0.371 A  
HETATM    5  C   UNL     1     -10.425   8.335  72.551  1.00  0.00    -0.406 A  
HETATM    6  C   UNL     1      -9.404   7.744  71.796  1.00  0.00    -0.179 A  
HETATM    7  C   UNL     1      -9.708   6.818  70.783  1.00  0.00    -0.187 A  
HETATM    8  C   UNL     1     -11.043   6.405  70.649  1.00  0.00    -0.376 A  
HETATM    9  C   UNL     1     -12.061   6.994  71.413  1.00  0.00    -0.396 A  
BRANCH   7  10
HETATM   10  C   UNL     1      -8.671   6.445  69.737  1.00  0.00    -0.138 C  
BRANCH  10  11
HETATM   11  C   UNL     1      -8.808   6.965  68.324  1.00  0.00    -0.122 A  
HETATM   12  C   UNL     1      -8.708   8.345  68.099  1.00  0.00    -0.143 A  
HETATM   13  C   UNL     1      -8.837   8.922  66.809  1.00  0.00    -0.142 A  
HETATM   14 CL   UNL     1      -9.317   4.459  67.350  1.00  0.00    -0.162 Cl 
HETATM   15  C   UNL     1      -8.839   8.069  65.706  1.00  0.00    -0.170 A  
HETATM   16  C   UNL     1      -8.926   6.687  65.907  1.00  0.00    -0.096 A  
HETATM   17  C   UNL     1      -8.980   6.149  67.203  1.00  0.00    -0.111 A  
BRANCH  13  18
HETATM   18  C   UNL     1      -9.273  10.373  66.720  1.00  0.00    -0.155 C  
HETATM   19  C   UNL     1      -7.724  12.058  66.709  1.00  0.00    -0.014 C  
HETATM   20  C   UNL     1      -8.977  12.478  67.445  1.00  0.00    -0.188 C  
HETATM   21  O   UNL     1      -8.173  10.948  65.932  1.00  0.00    -0.160 OA 
HETATM   22  H   UNL     1     -10.907  11.041  63.907  1.00  0.00     0.000 HD 
HETATM   23  O   UNL     1      -9.351  11.167  67.962  1.00  0.00    -0.156 OA 
HETATM   24  C   UNL     1     -10.193  13.006  66.614  1.00  0.00    -0.257 C  
HETATM   25  O   UNL     1     -10.143  10.880  64.449  1.00  0.00    -0.288 OA 
HETATM   26  C   UNL     1     -11.238  11.895  66.339  1.00  0.00    -0.331 C  
HETATM   27  O   UNL     1      -9.740  13.653  65.425  1.00  0.00    -0.518 OA 
HETATM   28  H   UNL     1     -12.640  10.923  67.348  1.00  0.00     0.000 HD 
HETATM   29  H   UNL     1     -10.478  13.974  64.921  1.00  0.00     0.000 HD 
HETATM   30  O   UNL     1     -12.000  11.604  67.517  1.00  0.00    -0.622 OA 
HETATM   31  C   UNL     1     -10.533  10.639  65.827  1.00  0.00    -0.164 C  
BRANCH  20  32
HETATM   32  C   UNL     1      -8.567  13.615  68.409  1.00  0.00    -0.151 C  
HETATM   33  O   UNL     1      -9.653  14.129  69.185  1.00  0.00    -0.406 OA 
HETATM   34  H   UNL     1      -9.400  14.828  69.777  1.00  0.00     0.000 HD 
ENDBRANCH  20  32
ENDBRANCH  13  18
ENDBRANCH  10  11
ENDBRANCH   7  10
ENDBRANCH   3   4
ENDBRANCH   2   3
TORSDOF 6
ENDMDL
MODEL       85
REMARK 921   NORMALIZED FREE ENERGY PREDICTED BY IDOCK:   -6.02 KCAL/MOL
REMARK 922        TOTAL FREE ENERGY PREDICTED BY IDOCK:   -9.27 KCAL/MOL
REMARK 923 INTER-LIGAND FREE ENERGY PREDICTED BY IDOCK:   -7.90 KCAL/MOL
REMARK 924 INTRA-LIGAND FREE ENERGY PREDICTED BY IDOCK:   -1.37 KCAL/MOL
REMARK 927      BINDING AFFINITY PREDICTED BY RF-SCORE:    0.00 PKD
ROOT
HETATM    1  C   UNL     1      -9.831   2.701  63.599  1.00  0.00    -0.136 C  
HETATM    2  C   UNL     1     -10.227   4.075  64.119  1.00  0.00    -0.170 C  
ENDROOT
BRANCH   2   3
HETATM    3  O   UNL     1      -9.137   4.637  64.861  1.00  0.00    -0.153 OA 
BRANCH   3   4
HETATM    4  C   UNL     1      -9.503   5.415  65.930  1.00  0.00    -0.122 A  
HETATM    5  C   UNL     1      -8.524   6.274  66.428  1.00  0.00    -0.125 A  
HETATM    6  C   UNL     1      -8.735   6.986  67.616  1.00  0.00    -0.121 A  
HETATM    7  C   UNL     1      -9.938   6.845  68.329  1.00  0.00    -0.162 A  
HETATM    8  C   UNL     1     -10.962   6.083  67.747  1.00  0.00    -0.333 A  
HETATM    9  C   UNL     1     -10.749   5.378  66.554  1.00  0.00    -0.309 A  
BRANCH   7  10
HETATM   10  C   UNL     1     -10.045   7.318  69.770  1.00  0.00    -0.196 C  
BRANCH  10  11
HETATM   11  C   UNL     1     -10.772   8.605  70.086  1.00  0.00    -0.244 A  
HETATM   12  C   UNL     1     -10.876   9.585  69.090  1.00  0.00    -0.194 A  
HETATM   13  C   UNL     1     -11.529  10.827  69.302  1.00  0.00    -0.369 A  
HETATM   14 CL   UNL     1     -11.187   7.843  72.681  1.00  0.00    -0.431 Cl 
HETATM   15  C   UNL     1     -12.283  10.982  70.465  1.00  0.00    -0.472 A  
HETATM   16  C   UNL     1     -12.204  10.009  71.468  1.00  0.00    -0.496 A  
HETATM   17  C   UNL     1     -11.402   8.869  71.306  1.00  0.00    -0.300 A  
BRANCH  13  18
HETATM   18  C   UNL     1     -11.125  12.002  68.429  1.00  0.00    -0.245 C  
HETATM   19  C   UNL     1     -11.955  12.218  66.308  1.00  0.00    -0.231 C  
HETATM   20  C   UNL     1     -10.527  12.712  66.385  1.00  0.00    -0.249 C  
HETATM   21  O   UNL     1     -12.366  12.229  67.675  1.00  0.00    -0.312 OA 
HETATM   22  H   UNL     1     -12.026  14.923  69.728  1.00  0.00     0.000 HD 
HETATM   23  O   UNL     1     -10.061  11.805  67.426  1.00  0.00    -0.193 OA 
HETATM   24  C   UNL     1     -10.266  14.168  66.895  1.00  0.00    -0.267 C  
HETATM   25  O   UNL     1     -12.156  14.101  69.268  1.00  0.00    -0.326 OA 
HETATM   26  C   UNL     1      -9.910  14.202  68.403  1.00  0.00    -0.231 C  
HETATM   27  O   UNL     1     -11.362  15.018  66.559  1.00  0.00    -0.341 OA 
HETATM   28  H   UNL     1      -8.354  13.763  69.550  1.00  0.00     0.000 HD 
HETATM   29  H   UNL     1     -11.203  15.901  66.868  1.00  0.00     0.000 HD 
HETATM   30  O   UNL     1      -8.572  13.742  68.625  1.00  0.00    -0.148 OA 
HETATM   31  C   UNL     1     -10.911  13.356  69.187  1.00  0.00    -0.168 C  
BRANCH  20  32
HETATM   32  C   UNL     1      -9.951  12.629  64.953  1.00  0.00    -0.146 C  
HETATM   33  O   UNL     1     -10.014  13.865  64.237  1.00  0.00    -0.714 OA 
HETATM   34  H   UNL     1      -9.660  13.813  63.357  1.00  0.00     0.000 HD 
ENDBRANCH  20  32
ENDBRANCH  13  18
ENDBRANCH  10  11
ENDBRANCH   7  10
ENDBRANCH   3   4
ENDBRANCH   2   3
TORSDOF 6
ENDMDL
MODEL       86
REMARK 921   NORMALIZED FREE ENERGY PREDICTED BY IDOCK:   -5.99 KCAL/MOL
REMARK 922        TOTAL FREE ENERGY PREDICTED BY IDOCK:   -9.23 KCAL/MOL
REMARK 923 INTER-LIGAND FREE ENERGY PREDICTED BY IDOCK:   -7.98 KCAL/MOL
REMARK 924 INTRA-LIGAND FREE ENERGY PREDICTED BY IDOCK:   -1.25 KCAL/MOL
REMARK 927      BINDING AFFINITY PREDICTED BY RF-SCORE:    0.00 PKD
ROOT
HETATM    1  C   UNL     1      -7.827  17.521  66.326  1.00  0.00    -0.322 C  
HETATM    2  C   UNL     1      -9.342  17.420  66.402  1.00  0.00    -0.252 C  
ENDROOT
BRANCH   2   3
HETATM    3  O   UNL     1      -9.784  16.287  65.642  1.00  0.00    -0.464 OA 
BRANCH   3   4
HETATM    4  C   UNL     1     -10.153  15.196  66.387  1.00  0.00    -0.273 A  
HETATM    5  C   UNL     1     -11.101  14.352  65.812  1.00  0.00    -0.316 A  
HETATM    6  C   UNL     1     -11.671  13.307  66.552  1.00  0.00    -0.423 A  
HETATM    7  C   UNL     1     -11.297  13.093  67.890  1.00  0.00    -0.321 A  
HETATM    8  C   UNL     1     -10.248  13.865  68.411  1.00  0.00    -0.243 A  
HETATM    9  C   UNL     1      -9.675  14.904  67.664  1.00  0.00    -0.212 A  
BRANCH   7  10
HETATM   10  C   UNL     1     -12.142  12.215  68.799  1.00  0.00    -0.166 C  
BRANCH  10  11
HETATM   11  C   UNL     1     -11.544  10.966  69.404  1.00  0.00    -0.387 A  
HETATM   12  C   UNL     1     -10.622  10.225  68.652  1.00  0.00    -0.232 A  
HETATM   13  C   UNL     1     -10.021   9.034  69.135  1.00  0.00    -0.187 A  
HETATM   14 CL   UNL     1     -13.072  11.214  71.661  1.00  0.00    -0.560 Cl 
HETATM   15  C   UNL     1     -10.185   8.715  70.482  1.00  0.00    -0.229 A  
HETATM   16  C   UNL     1     -11.092   9.449  71.255  1.00  0.00    -0.446 A  
HETATM   17  C   UNL     1     -11.814  10.518  70.700  1.00  0.00    -0.360 A  
BRANCH  13  18
HETATM   18  C   UNL     1      -9.511   8.031  68.115  1.00  0.00    -0.143 C  
HETATM   19  C   UNL     1     -10.894   6.411  67.279  1.00  0.00    -0.385 C  
HETATM   20  C   UNL     1      -9.480   5.895  67.425  1.00  0.00    -0.111 C  
HETATM   21  O   UNL     1     -10.715   7.828  67.297  1.00  0.00    -0.307 OA 
HETATM   22  H   UNL     1      -8.508   9.478  65.299  1.00  0.00     0.000 HD 
HETATM   23  O   UNL     1      -9.097   6.694  68.583  1.00  0.00    -0.128 OA 
HETATM   24  C   UNL     1      -8.448   6.206  66.292  1.00  0.00    -0.132 C  
HETATM   25  O   UNL     1      -9.141   9.137  65.921  1.00  0.00    -0.175 OA 
HETATM   26  C   UNL     1      -7.576   7.445  66.621  1.00  0.00    -0.100 C  
HETATM   27  O   UNL     1      -9.108   6.307  65.030  1.00  0.00    -0.353 OA 
HETATM   28  H   UNL     1      -6.057   7.890  67.814  1.00  0.00     0.000 HD 
HETATM   29  H   UNL     1      -8.482   6.496  64.342  1.00  0.00     0.000 HD 
HETATM   30  O   UNL     1      -6.592   7.131  67.613  1.00  0.00    -0.051 OA 
HETATM   31  C   UNL     1      -8.468   8.593  67.089  1.00  0.00    -0.114 C  
BRANCH  20  32
HETATM   32  C   UNL     1      -9.578   4.356  67.531  1.00  0.00    -0.172 C  
HETATM   33  O   UNL     1      -9.915   3.717  66.297  1.00  0.00    -0.413 OA 
HETATM   34  H   UNL     1      -9.976   2.771  66.362  1.00  0.00     0.000 HD 
ENDBRANCH  20  32
ENDBRANCH  13  18
ENDBRANCH  10  11
ENDBRANCH   7  10
ENDBRANCH   3   4
ENDBRANCH   2   3
TORSDOF 6
ENDMDL
MODEL       87
REMARK 921   NORMALIZED FREE ENERGY PREDICTED BY IDOCK:   -5.98 KCAL/MOL
REMARK 922        TOTAL FREE ENERGY PREDICTED BY IDOCK:   -9.22 KCAL/MOL
REMARK 923 INTER-LIGAND FREE ENERGY PREDICTED BY IDOCK:   -8.33 KCAL/MOL
REMARK 924 INTRA-LIGAND FREE ENERGY PREDICTED BY IDOCK:   -0.89 KCAL/MOL
REMARK 927      BINDING AFFINITY PREDICTED BY RF-SCORE:    0.00 PKD
ROOT
HETATM    1  C   UNL     1     -11.406   6.514  72.060  1.00  0.00    -0.326 C  
HETATM    2  C   UNL     1     -11.181   7.293  70.774  1.00  0.00    -0.274 C  
ENDROOT
BRANCH   2   3
HETATM    3  O   UNL     1     -11.892   8.535  70.836  1.00  0.00    -0.281 OA 
BRANCH   3   4
HETATM    4  C   UNL     1     -11.303   9.577  70.166  1.00  0.00    -0.199 A  
HETATM    5  C   UNL     1     -12.069  10.734  70.032  1.00  0.00    -0.423 A  
HETATM    6  C   UNL     1     -11.631  11.792  69.225  1.00  0.00    -0.378 A  
HETATM    7  C   UNL     1     -10.411  11.704  68.532  1.00  0.00    -0.236 A  
HETATM    8  C   UNL     1      -9.591  10.593  68.781  1.00  0.00    -0.190 A  
HETATM    9  C   UNL     1     -10.030   9.540  69.597  1.00  0.00    -0.220 A  
BRANCH   7  10
HETATM   10  C   UNL     1     -10.095  12.663  67.396  1.00  0.00    -0.218 C  
BRANCH  10  11
HETATM   11  C   UNL     1      -8.980  13.672  67.552  1.00  0.00    -0.209 A  
HETATM   12  C   UNL     1      -9.310  15.017  67.766  1.00  0.00    -0.186 A  
HETATM   13  C   UNL     1      -8.330  16.033  67.912  1.00  0.00    -0.158 A  
HETATM   14 CL   UNL     1      -7.067  11.768  67.100  1.00  0.00    -0.139 Cl 
HETATM   15  C   UNL     1      -7.001  15.644  68.069  1.00  0.00    -0.141 A  
HETATM   16  C   UNL     1      -6.649  14.304  67.872  1.00  0.00    -0.175 A  
HETATM   17  C   UNL     1      -7.621  13.343  67.549  1.00  0.00    -0.169 A  
BRANCH  13  18
HETATM   18  C   UNL     1      -8.730  17.459  67.578  1.00  0.00    -0.219 C  
HETATM   19  C   UNL     1      -7.510  18.694  66.088  1.00  0.00    -0.255 C  
HETATM   20  C   UNL     1      -8.053  19.566  67.198  1.00  0.00    -0.271 C  
HETATM   21  O   UNL     1      -8.340  17.535  66.163  1.00  0.00    -0.432 OA 
HETATM   22  H   UNL     1     -11.742  17.646  66.193  1.00  0.00     0.000 HD 
HETATM   23  O   UNL     1      -8.033  18.567  68.260  1.00  0.00    -0.285 OA 
HETATM   24  C   UNL     1      -9.523  20.089  67.089  1.00  0.00    -0.386 C  
HETATM   25  O   UNL     1     -10.806  17.482  66.214  1.00  0.00    -0.141 OA 
HETATM   26  C   UNL     1     -10.518  19.200  67.878  1.00  0.00    -0.399 C  
HETATM   27  O   UNL     1      -9.890  20.261  65.721  1.00  0.00    -0.608 OA 
HETATM   28  H   UNL     1     -11.013  18.880  69.770  1.00  0.00     0.000 HD 
HETATM   29  H   UNL     1     -10.783  20.579  65.655  1.00  0.00     0.000 HD 
HETATM   30  O   UNL     1     -10.402  19.425  69.287  1.00  0.00    -0.197 OA 
HETATM   31  C   UNL     1     -10.273  17.730  67.543  1.00  0.00    -0.356 C  
BRANCH  20  32
HETATM   32  C   UNL     1      -7.139  20.810  67.273  1.00  0.00    -0.362 C  
HETATM   33  O   UNL     1      -6.630  21.224  66.002  1.00  0.00    -0.496 OA 
HETATM   34  H   UNL     1      -6.068  21.989  66.048  1.00  0.00     0.000 HD 
ENDBRANCH  20  32
ENDBRANCH  13  18
ENDBRANCH  10  11
ENDBRANCH   7  10
ENDBRANCH   3   4
ENDBRANCH   2   3
TORSDOF 6
ENDMDL
MODEL       88
REMARK 921   NORMALIZED FREE ENERGY PREDICTED BY IDOCK:   -5.98 KCAL/MOL
REMARK 922        TOTAL FREE ENERGY PREDICTED BY IDOCK:   -9.21 KCAL/MOL
REMARK 923 INTER-LIGAND FREE ENERGY PREDICTED BY IDOCK:   -7.90 KCAL/MOL
REMARK 924 INTRA-LIGAND FREE ENERGY PREDICTED BY IDOCK:   -1.31 KCAL/MOL
REMARK 927      BINDING AFFINITY PREDICTED BY RF-SCORE:    0.00 PKD
ROOT
HETATM    1  C   UNL     1      -7.577  16.671  66.433  1.00  0.00    -0.297 C  
HETATM    2  C   UNL     1      -9.023  16.201  66.428  1.00  0.00    -0.318 C  
ENDROOT
BRANCH   2   3
HETATM    3  O   UNL     1      -9.699  16.721  67.580  1.00  0.00    -0.245 OA 
BRANCH   3   4
HETATM    4  C   UNL     1     -10.544  15.840  68.204  1.00  0.00    -0.275 A  
HETATM    5  C   UNL     1     -10.621  15.941  69.593  1.00  0.00    -0.301 A  
HETATM    6  C   UNL     1     -11.320  14.986  70.342  1.00  0.00    -0.309 A  
HETATM    7  C   UNL     1     -11.955  13.905  69.706  1.00  0.00    -0.398 A  
HETATM    8  C   UNL     1     -11.982  13.890  68.303  1.00  0.00    -0.392 A  
HETATM    9  C   UNL     1     -11.287  14.853  67.557  1.00  0.00    -0.351 A  
BRANCH   7  10
HETATM   10  C   UNL     1     -12.403  12.691  70.504  1.00  0.00    -0.350 C  
BRANCH  10  11
HETATM   11  C   UNL     1     -11.697  11.367  70.318  1.00  0.00    -0.397 A  
HETATM   12  C   UNL     1     -10.694  11.267  69.344  1.00  0.00    -0.188 A  
HETATM   13  C   UNL     1      -9.988  10.061  69.093  1.00  0.00    -0.213 A  
HETATM   14 CL   UNL     1     -13.279  10.153  72.192  1.00  0.00    -0.524 Cl 
HETATM   15  C   UNL     1     -10.144   9.010  69.995  1.00  0.00    -0.215 A  
HETATM   16  C   UNL     1     -11.130   9.094  70.983  1.00  0.00    -0.374 A  
HETATM   17  C   UNL     1     -11.943  10.233  71.097  1.00  0.00    -0.376 A  
BRANCH  13  18
HETATM   18  C   UNL     1      -9.366   9.875  67.721  1.00  0.00    -0.140 C  
HETATM   19  C   UNL     1      -7.183   9.222  67.508  1.00  0.00    -0.080 C  
HETATM   20  C   UNL     1      -7.572  10.184  66.407  1.00  0.00    -0.108 C  
HETATM   21  O   UNL     1      -8.448   8.756  67.979  1.00  0.00    -0.124 OA 
HETATM   22  H   UNL     1     -10.877   7.507  65.949  1.00  0.00     0.000 HD 
HETATM   23  O   UNL     1      -8.544  10.966  67.162  1.00  0.00    -0.128 OA 
HETATM   24  C   UNL     1      -8.313   9.623  65.149  1.00  0.00    -0.137 C  
HETATM   25  O   UNL     1     -10.294   7.853  66.615  1.00  0.00    -0.291 OA 
HETATM   26  C   UNL     1      -9.850   9.790  65.255  1.00  0.00    -0.265 C  
HETATM   27  O   UNL     1      -7.913   8.276  64.895  1.00  0.00    -0.127 OA 
HETATM   28  H   UNL     1     -11.176  11.255  65.102  1.00  0.00     0.000 HD 
HETATM   29  H   UNL     1      -8.363   7.936  64.131  1.00  0.00     0.000 HD 
HETATM   30  O   UNL     1     -10.234  11.153  65.037  1.00  0.00    -0.261 OA 
HETATM   31  C   UNL     1     -10.328   9.305  66.622  1.00  0.00    -0.222 C  
BRANCH  20  32
HETATM   32  C   UNL     1      -6.263  10.833  65.903  1.00  0.00    -0.121 C  
HETATM   33  O   UNL     1      -6.126  10.818  64.479  1.00  0.00    -0.369 OA 
HETATM   34  H   UNL     1      -5.322  11.217  64.170  1.00  0.00     0.000 HD 
ENDBRANCH  20  32
ENDBRANCH  13  18
ENDBRANCH  10  11
ENDBRANCH   7  10
ENDBRANCH   3   4
ENDBRANCH   2   3
TORSDOF 6
ENDMDL
MODEL       89
REMARK 921   NORMALIZED FREE ENERGY PREDICTED BY IDOCK:   -5.95 KCAL/MOL
REMARK 922        TOTAL FREE ENERGY PREDICTED BY IDOCK:   -9.17 KCAL/MOL
REMARK 923 INTER-LIGAND FREE ENERGY PREDICTED BY IDOCK:   -7.49 KCAL/MOL
REMARK 924 INTRA-LIGAND FREE ENERGY PREDICTED BY IDOCK:   -1.69 KCAL/MOL
REMARK 927      BINDING AFFINITY PREDICTED BY RF-SCORE:    0.00 PKD
ROOT
HETATM    1  C   UNL     1      -5.829  12.312  69.974  1.00  0.00    -0.152 C  
HETATM    2  C   UNL     1      -6.579  10.990  69.960  1.00  0.00    -0.134 C  
ENDROOT
BRANCH   2   3
HETATM    3  O   UNL     1      -6.262  10.273  68.760  1.00  0.00    -0.047 OA 
BRANCH   3   4
HETATM    4  C   UNL     1      -7.216  10.336  67.776  1.00  0.00    -0.086 A  
HETATM    5  C   UNL     1      -6.750  10.276  66.463  1.00  0.00    -0.090 A  
HETATM    6  C   UNL     1      -7.619  10.500  65.386  1.00  0.00    -0.097 A  
HETATM    7  C   UNL     1      -8.975  10.792  65.611  1.00  0.00    -0.205 A  
HETATM    8  C   UNL     1      -9.455  10.716  66.927  1.00  0.00    -0.189 A  
HETATM    9  C   UNL     1      -8.584  10.484  68.001  1.00  0.00    -0.121 A  
BRANCH   7  10
HETATM   10  C   UNL     1      -9.835  11.378  64.503  1.00  0.00    -0.302 C  
BRANCH  10  11
HETATM   11  C   UNL     1     -10.444  12.751  64.671  1.00  0.00    -0.373 A  
HETATM   12  C   UNL     1      -9.693  13.752  65.304  1.00  0.00    -0.037 A  
HETATM   13  C   UNL     1     -10.190  15.064  65.516  1.00  0.00    -0.406 A  
HETATM   14 CL   UNL     1     -12.814  11.938  63.570  1.00  0.00    -0.587 Cl 
HETATM   15  C   UNL     1     -11.374  15.429  64.876  1.00  0.00    -0.367 A  
HETATM   16  C   UNL     1     -12.134  14.449  64.228  1.00  0.00    -0.461 A  
HETATM   17  C   UNL     1     -11.705  13.112  64.189  1.00  0.00    -0.418 A  
BRANCH  13  18
HETATM   18  C   UNL     1      -9.591  15.876  66.650  1.00  0.00    -0.246 C  
HETATM   19  C   UNL     1      -7.500  16.785  66.456  1.00  0.00    -0.287 C  
HETATM   20  C   UNL     1      -7.769  16.341  67.877  1.00  0.00    -0.141 C  
HETATM   21  O   UNL     1      -8.812  16.872  65.900  1.00  0.00    -0.516 OA 
HETATM   22  H   UNL     1     -11.367  18.594  67.346  1.00  0.00     0.000 HD 
HETATM   23  O   UNL     1      -8.643  15.216  67.569  1.00  0.00    -0.163 OA 
HETATM   24  C   UNL     1      -8.568  17.298  68.822  1.00  0.00    -0.230 C  
HETATM   25  O   UNL     1     -10.748  18.065  66.856  1.00  0.00    -0.316 OA 
HETATM   26  C   UNL     1     -10.075  16.939  68.876  1.00  0.00    -0.297 C  
HETATM   27  O   UNL     1      -8.330  18.660  68.469  1.00  0.00    -0.327 OA 
HETATM   28  H   UNL     1     -11.218  15.543  69.696  1.00  0.00     0.000 HD 
HETATM   29  H   UNL     1      -8.815  19.241  69.043  1.00  0.00     0.000 HD 
HETATM   30  O   UNL     1     -10.295  15.763  69.663  1.00  0.00    -0.251 OA 
HETATM   31  C   UNL     1     -10.610  16.750  67.458  1.00  0.00    -0.309 C  
BRANCH  20  32
HETATM   32  C   UNL     1      -6.391  16.108  68.537  1.00  0.00    -0.116 C  
HETATM   33  O   UNL     1      -6.162  16.924  69.690  1.00  0.00    -0.216 OA 
HETATM   34  H   UNL     1      -5.315  16.781  70.095  1.00  0.00     0.000 HD 
ENDBRANCH  20  32
ENDBRANCH  13  18
ENDBRANCH  10  11
ENDBRANCH   7  10
ENDBRANCH   3   4
ENDBRANCH   2   3
TORSDOF 6
ENDMDL
MODEL       90
REMARK 921   NORMALIZED FREE ENERGY PREDICTED BY IDOCK:   -5.92 KCAL/MOL
REMARK 922        TOTAL FREE ENERGY PREDICTED BY IDOCK:   -9.14 KCAL/MOL
REMARK 923 INTER-LIGAND FREE ENERGY PREDICTED BY IDOCK:   -7.67 KCAL/MOL
REMARK 924 INTRA-LIGAND FREE ENERGY PREDICTED BY IDOCK:   -1.46 KCAL/MOL
REMARK 927      BINDING AFFINITY PREDICTED BY RF-SCORE:    0.00 PKD
ROOT
HETATM    1  C   UNL     1     -12.898  10.396  71.857  1.00  0.00    -0.519 C  
HETATM    2  C   UNL     1     -13.311   8.990  72.263  1.00  0.00    -0.467 C  
ENDROOT
BRANCH   2   3
HETATM    3  O   UNL     1     -12.155   8.252  72.679  1.00  0.00    -0.384 OA 
BRANCH   3   4
HETATM    4  C   UNL     1     -11.181   8.113  71.723  1.00  0.00    -0.272 A  
HETATM    5  C   UNL     1      -9.923   8.617  72.050  1.00  0.00    -0.399 A  
HETATM    6  C   UNL     1      -8.906   8.677  71.088  1.00  0.00    -0.249 A  
HETATM    7  C   UNL     1      -9.137   8.233  69.774  1.00  0.00    -0.147 A  
HETATM    8  C   UNL     1     -10.362   7.607  69.498  1.00  0.00    -0.217 A  
HETATM    9  C   UNL     1     -11.374   7.541  70.466  1.00  0.00    -0.279 A  
BRANCH   7  10
HETATM   10  C   UNL     1      -8.187   8.612  68.650  1.00  0.00    -0.121 C  
BRANCH  10  11
HETATM   11  C   UNL     1      -8.703   9.385  67.458  1.00  0.00    -0.123 A  
HETATM   12  C   UNL     1      -8.764  10.783  67.534  1.00  0.00    -0.125 A  
HETATM   13  C   UNL     1      -9.247  11.588  66.469  1.00  0.00    -0.203 A  
HETATM   14 CL   UNL     1      -9.248   7.083  66.082  1.00  0.00    -0.158 Cl 
HETATM   15  C   UNL     1      -9.455  10.982  65.231  1.00  0.00    -0.259 A  
HETATM   16  C   UNL     1      -9.388   9.588  65.129  1.00  0.00    -0.316 A  
HETATM   17  C   UNL     1      -9.084   8.796  66.249  1.00  0.00    -0.193 A  
BRANCH  13  18
HETATM   18  C   UNL     1      -9.798  12.961  66.809  1.00  0.00    -0.241 C  
HETATM   19  C   UNL     1      -8.438  14.580  67.684  1.00  0.00    -0.182 C  
HETATM   20  C   UNL     1      -9.832  14.670  68.264  1.00  0.00    -0.222 C  
HETATM   21  O   UNL     1      -8.640  13.812  66.498  1.00  0.00    -0.016 OA 
HETATM   22  H   UNL     1     -10.988  14.550  64.146  1.00  0.00     0.000 HD 
HETATM   23  O   UNL     1     -10.161  13.251  68.210  1.00  0.00    -0.240 OA 
HETATM   24  C   UNL     1     -10.934  15.427  67.451  1.00  0.00    -0.312 C  
HETATM   25  O   UNL     1     -10.315  14.226  64.734  1.00  0.00    -0.433 OA 
HETATM   26  C   UNL     1     -11.806  14.461  66.611  1.00  0.00    -0.398 C  
HETATM   27  O   UNL     1     -10.349  16.472  66.674  1.00  0.00    -0.293 OA 
HETATM   28  H   UNL     1     -13.260  13.151  66.928  1.00  0.00     0.000 HD 
HETATM   29  H   UNL     1     -11.018  16.932  66.181  1.00  0.00     0.000 HD 
HETATM   30  O   UNL     1     -12.725  13.744  67.443  1.00  0.00     0.131 OA 
HETATM   31  C   UNL     1     -10.908  13.495  65.840  1.00  0.00    -0.275 C  
BRANCH  20  32
HETATM   32  C   UNL     1      -9.702  15.395  69.623  1.00  0.00    -0.246 C  
HETATM   33  O   UNL     1     -10.609  14.914  70.619  1.00  0.00    -0.512 OA 
HETATM   34  H   UNL     1     -10.528  15.360  71.454  1.00  0.00     0.000 HD 
ENDBRANCH  20  32
ENDBRANCH  13  18
ENDBRANCH  10  11
ENDBRANCH   7  10
ENDBRANCH   3   4
ENDBRANCH   2   3
TORSDOF 6
ENDMDL
MODEL       91
REMARK 921   NORMALIZED FREE ENERGY PREDICTED BY IDOCK:   -5.90 KCAL/MOL
REMARK 922        TOTAL FREE ENERGY PREDICTED BY IDOCK:   -9.11 KCAL/MOL
REMARK 923 INTER-LIGAND FREE ENERGY PREDICTED BY IDOCK:   -7.93 KCAL/MOL
REMARK 924 INTRA-LIGAND FREE ENERGY PREDICTED BY IDOCK:   -1.18 KCAL/MOL
REMARK 927      BINDING AFFINITY PREDICTED BY RF-SCORE:    0.00 PKD
ROOT
HETATM    1  C   UNL     1     -14.015  15.021  72.017  1.00  0.00    -0.605 C  
HETATM    2  C   UNL     1     -13.574  13.586  72.260  1.00  0.00    -0.592 C  
ENDROOT
BRANCH   2   3
HETATM    3  O   UNL     1     -12.544  13.238  71.326  1.00  0.00    -0.358 OA 
BRANCH   3   4
HETATM    4  C   UNL     1     -12.414  11.895  71.078  1.00  0.00    -0.290 A  
HETATM    5  C   UNL     1     -13.156  11.044  71.897  1.00  0.00    -0.525 A  
HETATM    6  C   UNL     1     -12.969   9.657  71.840  1.00  0.00    -0.527 A  
HETATM    7  C   UNL     1     -12.028   9.097  70.959  1.00  0.00    -0.344 A  
HETATM    8  C   UNL     1     -11.388   9.954  70.050  1.00  0.00    -0.303 A  
HETATM    9  C   UNL     1     -11.583  11.341  70.105  1.00  0.00    -0.393 A  
BRANCH   7  10
HETATM   10  C   UNL     1     -11.563   7.660  71.132  1.00  0.00    -0.301 C  
BRANCH  10  11
HETATM   11  C   UNL     1     -10.162   7.269  70.719  1.00  0.00    -0.204 A  
HETATM   12  C   UNL     1      -9.977   6.616  69.493  1.00  0.00    -0.178 A  
HETATM   13  C   UNL     1      -8.700   6.201  69.032  1.00  0.00    -0.124 A  
HETATM   14 CL   UNL     1      -9.112   8.180  73.076  1.00  0.00    -0.331 Cl 
HETATM   15  C   UNL     1      -7.575   6.657  69.718  1.00  0.00    -0.104 A  
HETATM   16  C   UNL     1      -7.737   7.322  70.938  1.00  0.00    -0.092 A  
HETATM   17  C   UNL     1      -9.017   7.561  71.464  1.00  0.00    -0.131 A  
BRANCH  13  18
HETATM   18  C   UNL     1      -8.642   5.057  68.036  1.00  0.00    -0.103 C  
HETATM   19  C   UNL     1      -8.549   5.471  65.788  1.00  0.00    -0.145 C  
HETATM   20  C   UNL     1      -9.357   4.225  66.077  1.00  0.00    -0.163 C  
HETATM   21  O   UNL     1      -7.794   5.642  66.987  1.00  0.00    -0.100 OA 
HETATM   22  H   UNL     1      -5.929   3.178  68.414  1.00  0.00     0.000 HD 
HETATM   23  O   UNL     1      -9.889   4.632  67.372  1.00  0.00    -0.174 OA 
HETATM   24  C   UNL     1      -8.598   2.875  66.297  1.00  0.00    -0.116 C  
HETATM   25  O   UNL     1      -6.426   3.937  68.130  1.00  0.00    -0.036 OA 
HETATM   26  C   UNL     1      -8.379   2.567  67.800  1.00  0.00    -0.077 C  
HETATM   27  O   UNL     1      -7.388   2.855  65.540  1.00  0.00    -0.068 OA 
HETATM   28  H   UNL     1      -9.463   1.948  69.340  1.00  0.00     0.000 HD 
HETATM   29  H   UNL     1      -6.928   2.035  65.674  1.00  0.00     0.000 HD 
HETATM   30  O   UNL     1      -9.597   2.137  68.419  1.00  0.00    -0.198 OA 
HETATM   31  C   UNL     1      -7.823   3.805  68.503  1.00  0.00    -0.067 C  
BRANCH  20  32
HETATM   32  C   UNL     1     -10.300   4.017  64.870  1.00  0.00    -0.183 C  
HETATM   33  O   UNL     1     -11.612   4.549  65.069  1.00  0.00    -1.101 OA 
HETATM   34  H   UNL     1     -12.192   4.421  64.327  1.00  0.00     0.000 HD 
ENDBRANCH  20  32
ENDBRANCH  13  18
ENDBRANCH  10  11
ENDBRANCH   7  10
ENDBRANCH   3   4
ENDBRANCH   2   3
TORSDOF 6
ENDMDL
MODEL       92
REMARK 921   NORMALIZED FREE ENERGY PREDICTED BY IDOCK:   -5.90 KCAL/MOL
REMARK 922        TOTAL FREE ENERGY PREDICTED BY IDOCK:   -9.10 KCAL/MOL
REMARK 923 INTER-LIGAND FREE ENERGY PREDICTED BY IDOCK:   -8.01 KCAL/MOL
REMARK 924 INTRA-LIGAND FREE ENERGY PREDICTED BY IDOCK:   -1.09 KCAL/MOL
REMARK 927      BINDING AFFINITY PREDICTED BY RF-SCORE:    0.00 PKD
ROOT
HETATM    1  C   UNL     1     -10.048  16.286  65.871  1.00  0.00    -0.381 C  
HETATM    2  C   UNL     1     -10.072  15.158  66.891  1.00  0.00    -0.255 C  
ENDROOT
BRANCH   2   3
HETATM    3  O   UNL     1     -11.023  14.166  66.485  1.00  0.00    -0.302 OA 
BRANCH   3   4
HETATM    4  C   UNL     1     -11.473  13.347  67.489  1.00  0.00    -0.323 A  
HETATM    5  C   UNL     1     -11.722  13.959  68.716  1.00  0.00    -0.392 A  
HETATM    6  C   UNL     1     -12.021  13.192  69.850  1.00  0.00    -0.387 A  
HETATM    7  C   UNL     1     -12.073  11.789  69.770  1.00  0.00    -0.338 A  
HETATM    8  C   UNL     1     -11.952  11.198  68.503  1.00  0.00    -0.250 A  
HETATM    9  C   UNL     1     -11.660  11.970  67.370  1.00  0.00    -0.388 A  
BRANCH   7  10
HETATM   10  C   UNL     1     -12.041  10.940  71.030  1.00  0.00    -0.425 C  
BRANCH  10  11
HETATM   11  C   UNL     1     -11.871   9.442  70.923  1.00  0.00    -0.365 A  
HETATM   12  C   UNL     1     -10.812   8.935  70.158  1.00  0.00    -0.251 A  
HETATM   13  C   UNL     1     -10.583   7.545  69.991  1.00  0.00    -0.242 A  
HETATM   14 CL   UNL     1     -14.132   8.984  72.395  1.00  0.00    -0.517 Cl 
HETATM   15  C   UNL     1     -11.301   6.661  70.796  1.00  0.00    -0.389 A  
HETATM   16  C   UNL     1     -12.355   7.146  71.577  1.00  0.00    -0.406 A  
HETATM   17  C   UNL     1     -12.679   8.513  71.584  1.00  0.00    -0.332 A  
BRANCH  13  18
HETATM   18  C   UNL     1      -9.822   7.092  68.758  1.00  0.00    -0.152 C  
HETATM   19  C   UNL     1     -10.256   5.060  67.800  1.00  0.00    -0.096 C  
HETATM   20  C   UNL     1      -8.788   5.406  67.696  1.00  0.00    -0.105 C  
HETATM   21  O   UNL     1     -10.861   6.328  68.053  1.00  0.00    -0.272 OA 
HETATM   22  H   UNL     1     -10.303   9.099  66.157  1.00  0.00     0.000 HD 
HETATM   23  O   UNL     1      -8.678   6.175  68.930  1.00  0.00    -0.122 OA 
HETATM   24  C   UNL     1      -8.319   6.339  66.531  1.00  0.00    -0.114 C  
HETATM   25  O   UNL     1     -10.524   8.410  66.773  1.00  0.00    -0.314 OA 
HETATM   26  C   UNL     1      -8.199   7.817  66.981  1.00  0.00    -0.117 C  
HETATM   27  O   UNL     1      -9.157   6.169  65.388  1.00  0.00    -0.364 OA 
HETATM   28  H   UNL     1      -6.958   8.922  68.062  1.00  0.00     0.000 HD 
HETATM   29  H   UNL     1      -8.872   6.735  64.681  1.00  0.00     0.000 HD 
HETATM   30  O   UNL     1      -7.031   8.016  67.787  1.00  0.00    -0.074 OA 
HETATM   31  C   UNL     1      -9.458   8.228  67.743  1.00  0.00    -0.149 C  
BRANCH  20  32
HETATM   32  C   UNL     1      -8.027   4.070  67.532  1.00  0.00    -0.091 C  
HETATM   33  O   UNL     1      -8.232   3.445  66.262  1.00  0.00    -0.095 OA 
HETATM   34  H   UNL     1      -7.765   2.624  66.162  1.00  0.00     0.000 HD 
ENDBRANCH  20  32
ENDBRANCH  13  18
ENDBRANCH  10  11
ENDBRANCH   7  10
ENDBRANCH   3   4
ENDBRANCH   2   3
TORSDOF 6
ENDMDL
MODEL       93
REMARK 921   NORMALIZED FREE ENERGY PREDICTED BY IDOCK:   -5.87 KCAL/MOL
REMARK 922        TOTAL FREE ENERGY PREDICTED BY IDOCK:   -9.07 KCAL/MOL
REMARK 923 INTER-LIGAND FREE ENERGY PREDICTED BY IDOCK:   -7.75 KCAL/MOL
REMARK 924 INTRA-LIGAND FREE ENERGY PREDICTED BY IDOCK:   -1.32 KCAL/MOL
REMARK 927      BINDING AFFINITY PREDICTED BY RF-SCORE:    0.00 PKD
ROOT
HETATM    1  C   UNL     1     -10.034   5.176  74.460  1.00  0.00    -0.252 C  
HETATM    2  C   UNL     1      -9.910   6.491  73.707  1.00  0.00    -0.228 C  
ENDROOT
BRANCH   2   3
HETATM    3  O   UNL     1     -11.216   6.978  73.377  1.00  0.00    -0.191 OA 
BRANCH   3   4
HETATM    4  C   UNL     1     -11.239   8.028  72.495  1.00  0.00    -0.388 A  
HETATM    5  C   UNL     1     -12.484   8.613  72.268  1.00  0.00    -0.460 A  
HETATM    6  C   UNL     1     -12.649   9.578  71.265  1.00  0.00    -0.425 A  
HETATM    7  C   UNL     1     -11.561   9.970  70.466  1.00  0.00    -0.403 A  
HETATM    8  C   UNL     1     -10.291   9.473  70.794  1.00  0.00    -0.377 A  
HETATM    9  C   UNL     1     -10.129   8.514  71.804  1.00  0.00    -0.351 A  
BRANCH   7  10
HETATM   10  C   UNL     1     -11.787  10.730  69.169  1.00  0.00    -0.347 C  
BRANCH  10  11
HETATM   11  C   UNL     1     -10.601  11.183  68.347  1.00  0.00    -0.223 A  
HETATM   12  C   UNL     1     -10.091  12.472  68.551  1.00  0.00    -0.186 A  
HETATM   13  C   UNL     1      -8.990  12.984  67.817  1.00  0.00    -0.191 A  
HETATM   14 CL   UNL     1     -10.575   8.845  66.925  1.00  0.00    -0.306 Cl 
HETATM   15  C   UNL     1      -8.257  12.098  67.029  1.00  0.00    -0.164 A  
HETATM   16  C   UNL     1      -8.742  10.802  66.821  1.00  0.00    -0.145 A  
HETATM   17  C   UNL     1      -9.938  10.375  67.419  1.00  0.00    -0.187 A  
BRANCH  13  18
HETATM   18  C   UNL     1      -8.865  14.491  67.683  1.00  0.00    -0.187 C  
HETATM   19  C   UNL     1     -10.730  15.807  67.523  1.00  0.00    -0.317 C  
HETATM   20  C   UNL     1      -9.601  16.362  66.683  1.00  0.00    -0.256 C  
HETATM   21  O   UNL     1     -10.050  14.938  68.429  1.00  0.00    -0.215 OA 
HETATM   22  H   UNL     1      -7.370  15.882  70.302  1.00  0.00     0.000 HD 
HETATM   23  O   UNL     1      -8.969  15.094  66.340  1.00  0.00    -0.284 OA 
HETATM   24  C   UNL     1      -8.512  17.243  67.380  1.00  0.00    -0.200 C  
HETATM   25  O   UNL     1      -8.091  15.491  69.822  1.00  0.00    -0.183 OA 
HETATM   26  C   UNL     1      -7.255  16.421  67.763  1.00  0.00    -0.138 C  
HETATM   27  O   UNL     1      -9.075  17.951  68.484  1.00  0.00    -0.282 OA 
HETATM   28  H   UNL     1      -5.693  15.620  66.842  1.00  0.00     0.000 HD 
HETATM   29  H   UNL     1      -8.414  18.485  68.907  1.00  0.00     0.000 HD 
HETATM   30  O   UNL     1      -6.464  16.123  66.607  1.00  0.00    -0.254 OA 
HETATM   31  C   UNL     1      -7.676  15.137  68.475  1.00  0.00    -0.122 C  
BRANCH  20  32
HETATM   32  C   UNL     1     -10.251  17.238  65.588  1.00  0.00    -0.124 C  
HETATM   33  O   UNL     1     -10.781  18.472  66.080  1.00  0.00    -0.365 OA 
HETATM   34  H   UNL     1     -11.181  19.010  65.407  1.00  0.00     0.000 HD 
ENDBRANCH  20  32
ENDBRANCH  13  18
ENDBRANCH  10  11
ENDBRANCH   7  10
ENDBRANCH   3   4
ENDBRANCH   2   3
TORSDOF 6
ENDMDL
MODEL       94
REMARK 921   NORMALIZED FREE ENERGY PREDICTED BY IDOCK:   -5.87 KCAL/MOL
REMARK 922        TOTAL FREE ENERGY PREDICTED BY IDOCK:   -9.06 KCAL/MOL
REMARK 923 INTER-LIGAND FREE ENERGY PREDICTED BY IDOCK:   -7.79 KCAL/MOL
REMARK 924 INTRA-LIGAND FREE ENERGY PREDICTED BY IDOCK:   -1.27 KCAL/MOL
REMARK 927      BINDING AFFINITY PREDICTED BY RF-SCORE:    0.00 PKD
ROOT
HETATM    1  C   UNL     1     -10.036  19.918  66.381  1.00  0.00    -0.615 C  
HETATM    2  C   UNL     1     -10.458  20.062  67.835  1.00  0.00    -0.318 C  
ENDROOT
BRANCH   2   3
HETATM    3  O   UNL     1      -9.428  19.543  68.685  1.00  0.00    -0.375 OA 
BRANCH   3   4
HETATM    4  C   UNL     1      -9.197  18.196  68.562  1.00  0.00    -0.314 A  
HETATM    5  C   UNL     1      -7.871  17.817  68.356  1.00  0.00    -0.284 A  
HETATM    6  C   UNL     1      -7.548  16.488  68.050  1.00  0.00    -0.166 A  
HETATM    7  C   UNL     1      -8.555  15.514  67.943  1.00  0.00    -0.156 A  
HETATM    8  C   UNL     1      -9.865  15.883  68.284  1.00  0.00    -0.217 A  
HETATM    9  C   UNL     1     -10.183  17.212  68.597  1.00  0.00    -0.336 A  
BRANCH   7  10
HETATM   10  C   UNL     1      -8.272  14.178  67.276  1.00  0.00    -0.200 C  
BRANCH  10  11
HETATM   11  C   UNL     1      -9.341  13.108  67.253  1.00  0.00    -0.225 A  
HETATM   12  C   UNL     1      -9.305  12.096  68.223  1.00  0.00    -0.198 A  
HETATM   13  C   UNL     1     -10.259  11.047  68.269  1.00  0.00    -0.192 A  
HETATM   14 CL   UNL     1     -10.467  14.149  64.987  1.00  0.00    -0.422 Cl 
HETATM   15  C   UNL     1     -11.392  11.153  67.464  1.00  0.00    -0.351 A  
HETATM   16  C   UNL     1     -11.454  12.163  66.497  1.00  0.00    -0.430 A  
HETATM   17  C   UNL     1     -10.407  13.086  66.350  1.00  0.00    -0.281 A  
BRANCH  13  18
HETATM   18  C   UNL     1      -9.852   9.746  68.939  1.00  0.00    -0.173 C  
HETATM   19  C   UNL     1     -10.254   7.736  67.923  1.00  0.00    -0.206 C  
HETATM   20  C   UNL     1     -10.402   7.624  69.425  1.00  0.00    -0.214 C  
HETATM   21  O   UNL     1      -9.489   8.931  67.771  1.00  0.00    -0.139 OA 
HETATM   22  H   UNL     1      -6.573   9.533  69.420  1.00  0.00     0.000 HD 
HETATM   23  O   UNL     1     -10.876   8.980  69.677  1.00  0.00    -0.231 OA 
HETATM   24  C   UNL     1      -9.116   7.419  70.291  1.00  0.00    -0.151 C  
HETATM   25  O   UNL     1      -7.381   9.496  68.920  1.00  0.00    -0.071 OA 
HETATM   26  C   UNL     1      -8.584   8.754  70.870  1.00  0.00    -0.192 C  
HETATM   27  O   UNL     1      -8.130   6.696  69.555  1.00  0.00    -0.121 OA 
HETATM   28  H   UNL     1      -9.077  10.025  72.309  1.00  0.00     0.000 HD 
HETATM   29  H   UNL     1      -7.349   6.571  70.082  1.00  0.00     0.000 HD 
HETATM   30  O   UNL     1      -9.403   9.207  71.954  1.00  0.00    -0.349 OA 
HETATM   31  C   UNL     1      -8.521   9.807  69.764  1.00  0.00    -0.193 C  
BRANCH  20  32
HETATM   32  C   UNL     1     -11.320   6.409  69.691  1.00  0.00    -0.412 C  
HETATM   33  O   UNL     1     -10.796   5.496  70.659  1.00  0.00    -0.258 OA 
HETATM   34  H   UNL     1     -11.360   4.749  70.823  1.00  0.00     0.000 HD 
ENDBRANCH  20  32
ENDBRANCH  13  18
ENDBRANCH  10  11
ENDBRANCH   7  10
ENDBRANCH   3   4
ENDBRANCH   2   3
TORSDOF 6
ENDMDL
MODEL       95
REMARK 921   NORMALIZED FREE ENERGY PREDICTED BY IDOCK:   -5.84 KCAL/MOL
REMARK 922        TOTAL FREE ENERGY PREDICTED BY IDOCK:   -9.03 KCAL/MOL
REMARK 923 INTER-LIGAND FREE ENERGY PREDICTED BY IDOCK:   -7.38 KCAL/MOL
REMARK 924 INTRA-LIGAND FREE ENERGY PREDICTED BY IDOCK:   -1.65 KCAL/MOL
REMARK 927      BINDING AFFINITY PREDICTED BY RF-SCORE:    0.00 PKD
ROOT
HETATM    1  C   UNL     1      -8.501  15.510  68.741  1.00  0.00    -0.190 C  
HETATM    2  C   UNL     1      -9.947  15.849  69.065  1.00  0.00    -0.233 C  
ENDROOT
BRANCH   2   3
HETATM    3  O   UNL     1     -10.596  16.349  67.889  1.00  0.00    -0.299 OA 
BRANCH   3   4
HETATM    4  C   UNL     1     -10.891  15.402  66.941  1.00  0.00    -0.313 A  
HETATM    5  C   UNL     1     -11.786  14.405  67.327  1.00  0.00    -0.434 A  
HETATM    6  C   UNL     1     -12.026  13.301  66.498  1.00  0.00    -0.448 A  
HETATM    7  C   UNL     1     -11.365  13.178  65.263  1.00  0.00    -0.321 A  
HETATM    8  C   UNL     1     -10.572  14.252  64.831  1.00  0.00    -0.452 A  
HETATM    9  C   UNL     1     -10.341  15.358  65.661  1.00  0.00    -0.395 A  
BRANCH   7  10
HETATM   10  C   UNL     1     -11.337  11.846  64.530  1.00  0.00    -0.382 C  
BRANCH  10  11
HETATM   11  C   UNL     1     -10.286  10.818  64.880  1.00  0.00    -0.388 A  
HETATM   12  C   UNL     1     -10.353  10.181  66.127  1.00  0.00    -0.237 A  
HETATM   13  C   UNL     1      -9.403   9.212  66.544  1.00  0.00    -0.244 A  
HETATM   14 CL   UNL     1      -8.945  11.251  62.535  1.00  0.00    -0.354 Cl 
HETATM   15  C   UNL     1      -8.508   8.720  65.596  1.00  0.00    -0.174 A  
HETATM   16  C   UNL     1      -8.432   9.333  64.340  1.00  0.00    -0.201 A  
HETATM   17  C   UNL     1      -9.266  10.415  64.014  1.00  0.00    -0.263 A  
BRANCH  13  18
HETATM   18  C   UNL     1      -9.209   9.003  68.035  1.00  0.00    -0.135 C  
HETATM   19  C   UNL     1      -7.840  10.386  69.239  1.00  0.00    -0.147 C  
HETATM   20  C   UNL     1      -7.776   8.968  69.763  1.00  0.00    -0.077 C  
HETATM   21  O   UNL     1      -9.059  10.391  68.495  1.00  0.00    -0.133 OA 
HETATM   22  H   UNL     1     -12.040   9.324  69.743  1.00  0.00     0.000 HD 
HETATM   23  O   UNL     1      -8.009   8.280  68.499  1.00  0.00    -0.118 OA 
HETATM   24  C   UNL     1      -8.883   8.486  70.758  1.00  0.00    -0.161 C  
HETATM   25  O   UNL     1     -11.271   9.627  69.273  1.00  0.00    -0.168 OA 
HETATM   26  C   UNL     1     -10.019   7.717  70.038  1.00  0.00    -0.190 C  
HETATM   27  O   UNL     1      -9.358   9.580  71.542  1.00  0.00    -0.285 OA 
HETATM   28  H   UNL     1     -10.289   5.929  69.226  1.00  0.00     0.000 HD 
HETATM   29  H   UNL     1     -10.030   9.288  72.146  1.00  0.00     0.000 HD 
HETATM   30  O   UNL     1      -9.593   6.400  69.667  1.00  0.00    -0.146 OA 
HETATM   31  C   UNL     1     -10.476   8.503  68.810  1.00  0.00    -0.184 C  
BRANCH  20  32
HETATM   32  C   UNL     1      -6.423   8.827  70.497  1.00  0.00    -0.040 C  
HETATM   33  O   UNL     1      -6.468   9.235  71.867  1.00  0.00    -0.264 OA 
HETATM   34  H   UNL     1      -5.636   9.149  72.317  1.00  0.00     0.000 HD 
ENDBRANCH  20  32
ENDBRANCH  13  18
ENDBRANCH  10  11
ENDBRANCH   7  10
ENDBRANCH   3   4
ENDBRANCH   2   3
TORSDOF 6
ENDMDL
MODEL       96
REMARK 921   NORMALIZED FREE ENERGY PREDICTED BY IDOCK:   -5.84 KCAL/MOL
REMARK 922        TOTAL FREE ENERGY PREDICTED BY IDOCK:   -9.02 KCAL/MOL
REMARK 923 INTER-LIGAND FREE ENERGY PREDICTED BY IDOCK:   -7.71 KCAL/MOL
REMARK 924 INTRA-LIGAND FREE ENERGY PREDICTED BY IDOCK:   -1.31 KCAL/MOL
REMARK 927      BINDING AFFINITY PREDICTED BY RF-SCORE:    0.00 PKD
ROOT
HETATM    1  C   UNL     1      -9.343   6.610  74.540  1.00  0.00    -0.256 C  
HETATM    2  C   UNL     1      -8.467   7.531  73.704  1.00  0.00    -0.185 C  
ENDROOT
BRANCH   2   3
HETATM    3  O   UNL     1      -8.284   6.963  72.401  1.00  0.00    -0.104 OA 
BRANCH   3   4
HETATM    4  C   UNL     1      -9.023   7.547  71.404  1.00  0.00    -0.133 A  
HETATM    5  C   UNL     1      -8.518   8.736  70.881  1.00  0.00    -0.209 A  
HETATM    6  C   UNL     1      -9.274   9.500  69.982  1.00  0.00    -0.264 A  
HETATM    7  C   UNL     1     -10.558   9.081  69.593  1.00  0.00    -0.230 A  
HETATM    8  C   UNL     1     -10.997   7.820  70.023  1.00  0.00    -0.218 A  
HETATM    9  C   UNL     1     -10.233   7.055  70.917  1.00  0.00    -0.210 A  
BRANCH   7  10
HETATM   10  C   UNL     1     -11.517  10.048  68.918  1.00  0.00    -0.057 C  
BRANCH  10  11
HETATM   11  C   UNL     1     -11.701  11.440  69.480  1.00  0.00    -0.417 A  
HETATM   12  C   UNL     1     -11.212  12.533  68.751  1.00  0.00    -0.318 A  
HETATM   13  C   UNL     1     -11.329  13.872  69.207  1.00  0.00    -0.321 A  
HETATM   14 CL   UNL     1     -12.855  10.468  71.762  1.00  0.00    -0.563 Cl 
HETATM   15  C   UNL     1     -12.152  14.121  70.305  1.00  0.00    -0.412 A  
HETATM   16  C   UNL     1     -12.661  13.045  71.040  1.00  0.00    -0.386 A  
HETATM   17  C   UNL     1     -12.378  11.720  70.669  1.00  0.00    -0.328 A  
BRANCH  13  18
HETATM   18  C   UNL     1     -10.329  14.889  68.688  1.00  0.00    -0.237 C  
HETATM   19  C   UNL     1      -8.194  14.262  68.156  1.00  0.00    -0.146 C  
HETATM   20  C   UNL     1      -8.220  15.656  68.741  1.00  0.00    -0.183 C  
HETATM   21  O   UNL     1      -9.550  14.065  67.753  1.00  0.00    -0.206 OA 
HETATM   22  H   UNL     1     -11.285  16.263  65.819  1.00  0.00     0.000 HD 
HETATM   23  O   UNL     1      -9.359  15.474  69.633  1.00  0.00    -0.275 OA 
HETATM   24  C   UNL     1      -8.562  16.858  67.800  1.00  0.00    -0.208 C  
HETATM   25  O   UNL     1     -10.921  15.585  66.377  1.00  0.00    -0.309 OA 
HETATM   26  C   UNL     1     -10.057  17.256  67.883  1.00  0.00    -0.317 C  
HETATM   27  O   UNL     1      -8.128  16.586  66.468  1.00  0.00    -0.246 OA 
HETATM   28  H   UNL     1     -11.252  18.202  69.150  1.00  0.00     0.000 HD 
HETATM   29  H   UNL     1      -8.336  17.315  65.896  1.00  0.00     0.000 HD 
HETATM   30  O   UNL     1     -10.335  17.958  69.100  1.00  0.00    -0.340 OA 
HETATM   31  C   UNL     1     -10.930  16.007  67.768  1.00  0.00    -0.307 C  
BRANCH  20  32
HETATM   32  C   UNL     1      -6.809  15.923  69.313  1.00  0.00    -0.189 C  
HETATM   33  O   UNL     1      -6.428  15.013  70.349  1.00  0.00    -0.136 OA 
HETATM   34  H   UNL     1      -5.561  15.178  70.700  1.00  0.00     0.000 HD 
ENDBRANCH  20  32
ENDBRANCH  13  18
ENDBRANCH  10  11
ENDBRANCH   7  10
ENDBRANCH   3   4
ENDBRANCH   2   3
TORSDOF 6
ENDMDL
MODEL       97
REMARK 921   NORMALIZED FREE ENERGY PREDICTED BY IDOCK:   -5.83 KCAL/MOL
REMARK 922        TOTAL FREE ENERGY PREDICTED BY IDOCK:   -9.01 KCAL/MOL
REMARK 923 INTER-LIGAND FREE ENERGY PREDICTED BY IDOCK:   -7.36 KCAL/MOL
REMARK 924 INTRA-LIGAND FREE ENERGY PREDICTED BY IDOCK:   -1.65 KCAL/MOL
REMARK 927      BINDING AFFINITY PREDICTED BY RF-SCORE:    0.00 PKD
ROOT
HETATM    1  C   UNL     1      -7.646  10.073  69.488  1.00  0.00    -0.133 C  
HETATM    2  C   UNL     1      -8.428   8.786  69.276  1.00  0.00    -0.122 C  
ENDROOT
BRANCH   2   3
HETATM    3  O   UNL     1      -8.062   8.207  68.017  1.00  0.00    -0.124 OA 
BRANCH   3   4
HETATM    4  C   UNL     1      -8.617   8.809  66.917  1.00  0.00    -0.115 A  
HETATM    5  C   UNL     1      -7.798   8.910  65.793  1.00  0.00    -0.099 A  
HETATM    6  C   UNL     1      -8.204   9.653  64.677  1.00  0.00    -0.149 A  
HETATM    7  C   UNL     1      -9.445  10.315  64.673  1.00  0.00    -0.351 A  
HETATM    8  C   UNL     1     -10.312  10.094  65.753  1.00  0.00    -0.216 A  
HETATM    9  C   UNL     1      -9.904   9.343  66.865  1.00  0.00    -0.261 A  
BRANCH   7  10
HETATM   10  C   UNL     1      -9.743  11.394  63.645  1.00  0.00    -0.337 C  
BRANCH  10  11
HETATM   11  C   UNL     1     -10.455  12.659  64.068  1.00  0.00    -0.443 A  
HETATM   12  C   UNL     1      -9.721  13.664  64.713  1.00  0.00     0.227 A  
HETATM   13  C   UNL     1     -10.309  14.877  65.156  1.00  0.00    -0.431 A  
HETATM   14 CL   UNL     1     -12.869  11.700  63.208  1.00  0.00    -0.384 Cl 
HETATM   15  C   UNL     1     -11.605  15.169  64.737  1.00  0.00    -0.364 A  
HETATM   16  C   UNL     1     -12.352  14.185  64.080  1.00  0.00    -0.372 A  
HETATM   17  C   UNL     1     -11.803  12.921  63.813  1.00  0.00    -0.504 A  
BRANCH  13  18
HETATM   18  C   UNL     1      -9.630  15.622  66.292  1.00  0.00    -0.308 C  
HETATM   19  C   UNL     1     -10.588  17.494  67.195  1.00  0.00    -0.264 C  
HETATM   20  C   UNL     1      -9.080  17.611  67.177  1.00  0.00    -0.244 C  
HETATM   21  O   UNL     1     -10.796  16.088  67.057  1.00  0.00    -0.309 OA 
HETATM   22  H   UNL     1      -9.280  13.752  69.013  1.00  0.00     0.000 HD 
HETATM   23  O   UNL     1      -8.836  16.825  65.974  1.00  0.00    -0.447 OA 
HETATM   24  C   UNL     1      -8.263  16.945  68.333  1.00  0.00    -0.232 C  
HETATM   25  O   UNL     1      -9.746  14.298  68.391  1.00  0.00    -0.215 OA 
HETATM   26  C   UNL     1      -7.733  15.543  67.940  1.00  0.00    -0.130 C  
HETATM   27  O   UNL     1      -9.024  16.937  69.541  1.00  0.00     0.082 OA 
HETATM   28  H   UNL     1      -6.301  14.787  66.797  1.00  0.00     0.000 HD 
HETATM   29  H   UNL     1      -8.528  16.533  70.242  1.00  0.00     0.000 HD 
HETATM   30  O   UNL     1      -6.626  15.646  67.038  1.00  0.00    -0.283 OA 
HETATM   31  C   UNL     1      -8.862  14.722  67.318  1.00  0.00    -0.204 C  
BRANCH  20  32
HETATM   32  C   UNL     1      -8.752  19.121  67.210  1.00  0.00    -0.286 C  
HETATM   33  O   UNL     1      -8.409  19.606  68.511  1.00  0.00    -0.339 OA 
HETATM   34  H   UNL     1      -8.208  20.534  68.531  1.00  0.00     0.000 HD 
ENDBRANCH  20  32
ENDBRANCH  13  18
ENDBRANCH  10  11
ENDBRANCH   7  10
ENDBRANCH   3   4
ENDBRANCH   2   3
TORSDOF 6
ENDMDL
MODEL       98
REMARK 921   NORMALIZED FREE ENERGY PREDICTED BY IDOCK:   -5.83 KCAL/MOL
REMARK 922        TOTAL FREE ENERGY PREDICTED BY IDOCK:   -9.01 KCAL/MOL
REMARK 923 INTER-LIGAND FREE ENERGY PREDICTED BY IDOCK:   -7.88 KCAL/MOL
REMARK 924 INTRA-LIGAND FREE ENERGY PREDICTED BY IDOCK:   -1.13 KCAL/MOL
REMARK 927      BINDING AFFINITY PREDICTED BY RF-SCORE:    0.00 PKD
ROOT
HETATM    1  C   UNL     1      -9.151  11.083  62.358  1.00  0.00    -0.328 C  
HETATM    2  C   UNL     1     -10.073  11.206  63.561  1.00  0.00    -0.385 C  
ENDROOT
BRANCH   2   3
HETATM    3  O   UNL     1     -10.265  12.591  63.877  1.00  0.00    -0.408 OA 
BRANCH   3   4
HETATM    4  C   UNL     1     -10.638  12.846  65.172  1.00  0.00    -0.302 A  
HETATM    5  C   UNL     1      -9.634  12.735  66.133  1.00  0.00    -0.214 A  
HETATM    6  C   UNL     1      -9.940  12.809  67.498  1.00  0.00    -0.210 A  
HETATM    7  C   UNL     1     -11.267  12.993  67.924  1.00  0.00    -0.304 A  
HETATM    8  C   UNL     1     -12.243  13.237  66.946  1.00  0.00    -0.315 A  
HETATM    9  C   UNL     1     -11.931  13.170  65.580  1.00  0.00    -0.462 A  
BRANCH   7  10
HETATM   10  C   UNL     1     -11.662  12.723  69.366  1.00  0.00    -0.380 C  
BRANCH  10  11
HETATM   11  C   UNL     1     -11.542  11.325  69.929  1.00  0.00    -0.413 A  
HETATM   12  C   UNL     1     -10.636  10.434  69.337  1.00  0.00    -0.267 A  
HETATM   13  C   UNL     1     -10.467   9.100  69.791  1.00  0.00    -0.234 A  
HETATM   14 CL   UNL     1     -13.533  11.784  71.749  1.00  0.00    -0.317 Cl 
HETATM   15  C   UNL     1     -11.057   8.738  71.001  1.00  0.00    -0.328 A  
HETATM   16  C   UNL     1     -11.956   9.617  71.616  1.00  0.00    -0.470 A  
HETATM   17  C   UNL     1     -12.246  10.868  71.046  1.00  0.00    -0.358 A  
BRANCH  13  18
HETATM   18  C   UNL     1      -9.932   8.077  68.806  1.00  0.00    -0.189 C  
HETATM   19  C   UNL     1      -7.762   8.174  68.085  1.00  0.00    -0.110 C  
HETATM   20  C   UNL     1      -8.679   7.691  66.983  1.00  0.00    -0.126 C  
HETATM   21  O   UNL     1      -8.540   7.950  69.261  1.00  0.00    -0.135 OA 
HETATM   22  H   UNL     1     -10.028   4.982  70.007  1.00  0.00     0.000 HD 
HETATM   23  O   UNL     1      -9.868   8.436  67.376  1.00  0.00    -0.164 OA 
HETATM   24  C   UNL     1      -9.076   6.178  66.948  1.00  0.00    -0.127 C  
HETATM   25  O   UNL     1      -9.684   5.862  69.904  1.00  0.00    -0.156 OA 
HETATM   26  C   UNL     1     -10.448   5.920  67.621  1.00  0.00    -0.238 C  
HETATM   27  O   UNL     1      -8.027   5.375  67.490  1.00  0.00    -0.100 OA 
HETATM   28  H   UNL     1     -12.363   6.200  67.193  1.00  0.00     0.000 HD 
HETATM   29  H   UNL     1      -8.269   4.457  67.469  1.00  0.00     0.000 HD 
HETATM   30  O   UNL     1     -11.522   6.358  66.780  1.00  0.00    -0.141 OA 
HETATM   31  C   UNL     1     -10.499   6.625  68.975  1.00  0.00    -0.214 C  
BRANCH  20  32
HETATM   32  C   UNL     1      -7.965   7.997  65.646  1.00  0.00    -0.114 C  
HETATM   33  O   UNL     1      -8.636   7.461  64.502  1.00  0.00    -0.365 OA 
HETATM   34  H   UNL     1      -8.197   7.649  63.681  1.00  0.00     0.000 HD 
ENDBRANCH  20  32
ENDBRANCH  13  18
ENDBRANCH  10  11
ENDBRANCH   7  10
ENDBRANCH   3   4
ENDBRANCH   2   3
TORSDOF 6
ENDMDL
MODEL       99
REMARK 921   NORMALIZED FREE ENERGY PREDICTED BY IDOCK:   -5.78 KCAL/MOL
REMARK 922        TOTAL FREE ENERGY PREDICTED BY IDOCK:   -8.95 KCAL/MOL
REMARK 923 INTER-LIGAND FREE ENERGY PREDICTED BY IDOCK:   -7.62 KCAL/MOL
REMARK 924 INTRA-LIGAND FREE ENERGY PREDICTED BY IDOCK:   -1.33 KCAL/MOL
REMARK 927      BINDING AFFINITY PREDICTED BY RF-SCORE:    0.00 PKD
ROOT
HETATM    1  C   UNL     1     -10.635  19.397  67.375  1.00  0.00    -0.603 C  
HETATM    2  C   UNL     1      -9.973  18.143  66.826  1.00  0.00    -0.351 C  
ENDROOT
BRANCH   2   3
HETATM    3  O   UNL     1     -10.978  17.174  66.503  1.00  0.00    -0.023 OA 
BRANCH   3   4
HETATM    4  C   UNL     1     -10.631  15.871  66.755  1.00  0.00    -0.309 A  
HETATM    5  C   UNL     1     -10.324  15.562  68.079  1.00  0.00    -0.247 A  
HETATM    6  C   UNL     1      -9.798  14.308  68.416  1.00  0.00    -0.233 A  
HETATM    7  C   UNL     1      -9.566  13.340  67.423  1.00  0.00    -0.223 A  
HETATM    8  C   UNL     1     -10.003  13.617  66.119  1.00  0.00    -0.314 A  
HETATM    9  C   UNL     1     -10.538  14.871  65.788  1.00  0.00    -0.342 A  
BRANCH   7  10
HETATM   10  C   UNL     1      -8.683  12.136  67.707  1.00  0.00    -0.171 C  
BRANCH  10  11
HETATM   11  C   UNL     1      -9.247  10.740  67.567  1.00  0.00    -0.150 A  
HETATM   12  C   UNL     1      -9.797  10.118  68.696  1.00  0.00    -0.170 A  
HETATM   13  C   UNL     1     -10.338   8.806  68.660  1.00  0.00    -0.230 A  
HETATM   14 CL   UNL     1      -8.491  10.595  64.941  1.00  0.00    -0.152 Cl 
HETATM   15  C   UNL     1     -10.528   8.209  67.415  1.00  0.00    -0.356 A  
HETATM   16  C   UNL     1      -9.998   8.819  66.273  1.00  0.00    -0.315 A  
HETATM   17  C   UNL     1      -9.304  10.036  66.361  1.00  0.00    -0.168 A  
BRANCH  13  18
HETATM   18  C   UNL     1     -10.383   8.020  69.958  1.00  0.00    -0.218 C  
HETATM   19  C   UNL     1     -10.725   9.084  71.955  1.00  0.00    -0.331 C  
HETATM   20  C   UNL     1      -9.781   7.913  72.119  1.00  0.00    -0.199 C  
HETATM   21  O   UNL     1     -11.376   8.792  70.718  1.00  0.00    -0.265 OA 
HETATM   22  H   UNL     1     -12.861   5.810  70.023  1.00  0.00     0.000 HD 
HETATM   23  O   UNL     1      -9.169   7.967  70.796  1.00  0.00    -0.154 OA 
HETATM   24  C   UNL     1     -10.386   6.481  72.285  1.00  0.00    -0.191 C  
HETATM   25  O   UNL     1     -12.466   6.673  70.084  1.00  0.00    -0.049 OA 
HETATM   26  C   UNL     1     -10.434   5.707  70.943  1.00  0.00    -0.256 C  
HETATM   27  O   UNL     1     -11.655   6.549  72.936  1.00  0.00    -0.476 OA 
HETATM   28  H   UNL     1      -9.157   4.781  69.742  1.00  0.00     0.000 HD 
HETATM   29  H   UNL     1     -12.022   5.679  73.038  1.00  0.00     0.000 HD 
HETATM   30  O   UNL     1      -9.128   5.255  70.565  1.00  0.00    -0.135 OA 
HETATM   31  C   UNL     1     -11.034   6.598  69.857  1.00  0.00    -0.319 C  
BRANCH  20  32
HETATM   32  C   UNL     1      -8.940   8.194  73.385  1.00  0.00    -0.243 C  
HETATM   33  O   UNL     1      -9.289   7.368  74.499  1.00  0.00    -0.427 OA 
HETATM   34  H   UNL     1      -8.772   7.541  75.278  1.00  0.00     0.000 HD 
ENDBRANCH  20  32
ENDBRANCH  13  18
ENDBRANCH  10  11
ENDBRANCH   7  10
ENDBRANCH   3   4
ENDBRANCH   2   3
TORSDOF 6
ENDMDL
MODEL      100
REMARK 921   NORMALIZED FREE ENERGY PREDICTED BY IDOCK:   -5.77 KCAL/MOL
REMARK 922        TOTAL FREE ENERGY PREDICTED BY IDOCK:   -8.94 KCAL/MOL
REMARK 923 INTER-LIGAND FREE ENERGY PREDICTED BY IDOCK:   -7.75 KCAL/MOL
REMARK 924 INTRA-LIGAND FREE ENERGY PREDICTED BY IDOCK:   -1.18 KCAL/MOL
REMARK 927      BINDING AFFINITY PREDICTED BY RF-SCORE:    0.00 PKD
ROOT
HETATM    1  C   UNL     1     -11.949   7.073  71.817  1.00  0.00    -0.361 C  
HETATM    2  C   UNL     1     -11.659   7.837  70.535  1.00  0.00    -0.158 C  
ENDROOT
BRANCH   2   3
HETATM    3  O   UNL     1     -11.961   9.225  70.727  1.00  0.00    -0.276 OA 
BRANCH   3   4
HETATM    4  C   UNL     1     -11.157  10.096  70.038  1.00  0.00    -0.308 A  
HETATM    5  C   UNL     1     -11.810  11.056  69.266  1.00  0.00    -0.411 A  
HETATM    6  C   UNL     1     -11.089  11.883  68.395  1.00  0.00    -0.292 A  
HETATM    7  C   UNL     1      -9.693  11.758  68.282  1.00  0.00    -0.199 A  
HETATM    8  C   UNL     1      -9.038  10.883  69.161  1.00  0.00    -0.058 A  
HETATM    9  C   UNL     1      -9.763  10.062  70.037  1.00  0.00    -0.224 A  
BRANCH   7  10
HETATM   10  C   UNL     1      -8.952  12.382  67.110  1.00  0.00    -0.195 C  
BRANCH  10  11
HETATM   11  C   UNL     1      -7.852  13.386  67.365  1.00  0.00    -0.154 A  
HETATM   12  C   UNL     1      -8.190  14.739  67.502  1.00  0.00    -0.201 A  
HETATM   13  C   UNL     1      -7.222  15.751  67.731  1.00  0.00    -0.172 A  
HETATM   14 CL   UNL     1      -5.920  11.456  67.188  1.00  0.00    -0.084 Cl 
HETATM   15  C   UNL     1      -5.923  15.357  68.051  1.00  0.00    -0.154 A  
HETATM   16  C   UNL     1      -5.567  14.009  67.933  1.00  0.00    -0.099 A  
HETATM   17  C   UNL     1      -6.505  13.047  67.526  1.00  0.00    -0.154 A  
BRANCH  13  18
HETATM   18  C   UNL     1      -7.565  17.170  67.315  1.00  0.00    -0.167 C  
HETATM   19  C   UNL     1      -9.457  18.190  68.099  1.00  0.00    -0.294 C  
HETATM   20  C   UNL     1      -9.163  18.613  66.677  1.00  0.00    -0.321 C  
HETATM   21  O   UNL     1      -8.201  17.675  68.541  1.00  0.00    -0.280 OA 
HETATM   22  H   UNL     1      -5.261  19.367  68.261  1.00  0.00     0.000 HD 
HETATM   23  O   UNL     1      -8.542  17.372  66.228  1.00  0.00    -0.350 OA 
HETATM   24  C   UNL     1      -8.126  19.758  66.435  1.00  0.00    -0.329 C  
HETATM   25  O   UNL     1      -6.005  18.787  68.376  1.00  0.00    -0.205 OA 
HETATM   26  C   UNL     1      -6.713  19.208  66.113  1.00  0.00    -0.220 C  
HETATM   27  O   UNL     1      -8.132  20.675  67.529  1.00  0.00    -0.303 OA 
HETATM   28  H   UNL     1      -5.790  18.355  64.580  1.00  0.00     0.000 HD 
HETATM   29  H   UNL     1      -7.503  21.371  67.382  1.00  0.00     0.000 HD 
HETATM   30  O   UNL     1      -6.655  18.693  64.777  1.00  0.00    -0.472 OA 
HETATM   31  C   UNL     1      -6.339  18.127  67.126  1.00  0.00    -0.168 C  
BRANCH  20  32
HETATM   32  C   UNL     1     -10.503  19.086  66.068  1.00  0.00    -0.458 C  
HETATM   33  O   UNL     1     -11.003  18.224  65.042  1.00  0.00    -0.684 OA 
HETATM   34  H   UNL     1     -11.826  18.516  64.668  1.00  0.00     0.000 HD 
ENDBRANCH  20  32
ENDBRANCH  13  18
ENDBRANCH  10  11
ENDBRANCH   7  10
ENDBRANCH   3   4
ENDBRANCH   2   3
TORSDOF 6
ENDMDL
MODEL      101
REMARK 921   NORMALIZED FREE ENERGY PREDICTED BY IDOCK:   -5.73 KCAL/MOL
REMARK 922        TOTAL FREE ENERGY PREDICTED BY IDOCK:   -8.88 KCAL/MOL
REMARK 923 INTER-LIGAND FREE ENERGY PREDICTED BY IDOCK:   -7.63 KCAL/MOL
REMARK 924 INTRA-LIGAND FREE ENERGY PREDICTED BY IDOCK:   -1.25 KCAL/MOL
REMARK 927      BINDING AFFINITY PREDICTED BY RF-SCORE:    0.00 PKD
ROOT
HETATM    1  C   UNL     1      -5.606  19.653  71.714  1.00  0.00    -0.358 C  
HETATM    2  C   UNL     1      -5.731  20.441  70.420  1.00  0.00    -0.325 C  
ENDROOT
BRANCH   2   3
HETATM    3  O   UNL     1      -5.460  19.579  69.307  1.00  0.00    -0.187 OA 
BRANCH   3   4
HETATM    4  C   UNL     1      -6.515  18.802  68.903  1.00  0.00    -0.263 A  
HETATM    5  C   UNL     1      -7.662  19.485  68.498  1.00  0.00    -0.389 A  
HETATM    6  C   UNL     1      -8.848  18.791  68.227  1.00  0.00    -0.363 A  
HETATM    7  C   UNL     1      -8.905  17.393  68.362  1.00  0.00    -0.271 A  
HETATM    8  C   UNL     1      -7.711  16.710  68.640  1.00  0.00    -0.224 A  
HETATM    9  C   UNL     1      -6.524  17.408  68.902  1.00  0.00    -0.208 A  
BRANCH   7  10
HETATM   10  C   UNL     1     -10.243  16.674  68.422  1.00  0.00    -0.284 C  
BRANCH  10  11
HETATM   11  C   UNL     1     -10.569  15.607  67.402  1.00  0.00    -0.301 A  
HETATM   12  C   UNL     1     -10.580  14.266  67.807  1.00  0.00    -0.253 A  
HETATM   13  C   UNL     1     -10.863  13.198  66.916  1.00  0.00    -0.278 A  
HETATM   14 CL   UNL     1     -10.749  17.452  65.389  1.00  0.00    -0.180 Cl 
HETATM   15  C   UNL     1     -11.363  13.513  65.653  1.00  0.00    -0.312 A  
HETATM   16  C   UNL     1     -11.372  14.847  65.232  1.00  0.00    -0.358 A  
HETATM   17  C   UNL     1     -10.915  15.873  66.074  1.00  0.00    -0.139 A  
BRANCH  13  18
HETATM   18  C   UNL     1     -10.321  11.822  67.260  1.00  0.00    -0.206 C  
HETATM   19  C   UNL     1     -11.506  10.406  68.610  1.00  0.00    -0.172 C  
HETATM   20  C   UNL     1     -10.018  10.257  68.841  1.00  0.00    -0.201 C  
HETATM   21  O   UNL     1     -11.565  11.042  67.334  1.00  0.00    -0.525 OA 
HETATM   22  H   UNL     1      -9.923   9.904  64.578  1.00  0.00     0.000 HD 
HETATM   23  O   UNL     1      -9.636  11.634  68.553  1.00  0.00    -0.196 OA 
HETATM   24  C   UNL     1      -9.198   9.342  67.872  1.00  0.00    -0.129 C  
HETATM   25  O   UNL     1     -10.409  10.333  65.273  1.00  0.00    -0.278 OA 
HETATM   26  C   UNL     1      -8.512  10.154  66.745  1.00  0.00    -0.126 C  
HETATM   27  O   UNL     1     -10.015   8.281  67.379  1.00  0.00    -0.174 OA 
HETATM   28  H   UNL     1      -6.955  11.366  66.554  1.00  0.00     0.000 HD 
HETATM   29  H   UNL     1      -9.517   7.725  66.792  1.00  0.00     0.000 HD 
HETATM   30  O   UNL     1      -7.376  10.868  67.245  1.00  0.00    -0.095 OA 
HETATM   31  C   UNL     1      -9.519  11.114  66.114  1.00  0.00    -0.204 C  
BRANCH  20  32
HETATM   32  C   UNL     1      -9.845   9.674  70.262  1.00  0.00    -0.266 C  
HETATM   33  O   UNL     1      -8.508   9.767  70.761  1.00  0.00    -0.365 OA 
HETATM   34  H   UNL     1      -8.402   9.408  71.634  1.00  0.00     0.000 HD 
ENDBRANCH  20  32
ENDBRANCH  13  18
ENDBRANCH  10  11
ENDBRANCH   7  10
ENDBRANCH   3   4
ENDBRANCH   2   3
TORSDOF 6
ENDMDL
MODEL      102
REMARK 921   NORMALIZED FREE ENERGY PREDICTED BY IDOCK:   -5.68 KCAL/MOL
REMARK 922        TOTAL FREE ENERGY PREDICTED BY IDOCK:   -8.81 KCAL/MOL
REMARK 923 INTER-LIGAND FREE ENERGY PREDICTED BY IDOCK:   -7.47 KCAL/MOL
REMARK 924 INTRA-LIGAND FREE ENERGY PREDICTED BY IDOCK:   -1.33 KCAL/MOL
REMARK 927      BINDING AFFINITY PREDICTED BY RF-SCORE:    0.00 PKD
ROOT
HETATM    1  C   UNL     1     -10.427  19.827  66.135  1.00  0.00    -0.613 C  
HETATM    2  C   UNL     1     -10.575  18.329  65.921  1.00  0.00    -0.254 C  
ENDROOT
BRANCH   2   3
HETATM    3  O   UNL     1     -10.735  17.678  67.188  1.00  0.00    -0.306 OA 
BRANCH   3   4
HETATM    4  C   UNL     1     -10.338  16.366  67.221  1.00  0.00    -0.287 A  
HETATM    5  C   UNL     1     -10.897  15.580  68.228  1.00  0.00    -0.292 A  
HETATM    6  C   UNL     1     -10.436  14.277  68.456  1.00  0.00    -0.253 A  
HETATM    7  C   UNL     1      -9.398  13.739  67.675  1.00  0.00    -0.213 A  
HETATM    8  C   UNL     1      -8.939  14.491  66.583  1.00  0.00    -0.247 A  
HETATM    9  C   UNL     1      -9.409  15.792  66.354  1.00  0.00    -0.333 A  
BRANCH   7  10
HETATM   10  C   UNL     1      -8.656  12.492  68.127  1.00  0.00    -0.189 C  
BRANCH  10  11
HETATM   11  C   UNL     1      -9.254  11.127  67.870  1.00  0.00    -0.154 A  
HETATM   12  C   UNL     1     -10.063  10.547  68.857  1.00  0.00    -0.215 A  
HETATM   13  C   UNL     1     -10.655   9.266  68.707  1.00  0.00    -0.220 A  
HETATM   14 CL   UNL     1      -7.969  10.913  65.464  1.00  0.00    -0.064 Cl 
HETATM   15  C   UNL     1     -10.611   8.666  67.449  1.00  0.00    -0.298 A  
HETATM   16  C   UNL     1      -9.818   9.234  66.445  1.00  0.00    -0.347 A  
HETATM   17  C   UNL     1      -9.094  10.414  66.679  1.00  0.00    -0.151 A  
BRANCH  13  18
HETATM   18  C   UNL     1     -11.016   8.498  69.965  1.00  0.00    -0.196 C  
HETATM   19  C   UNL     1      -9.406   7.403  71.166  1.00  0.00    -0.155 C  
HETATM   20  C   UNL     1     -10.714   6.643  71.193  1.00  0.00    -0.234 C  
HETATM   21  O   UNL     1      -9.813   8.716  70.781  1.00  0.00    -0.174 OA 
HETATM   22  H   UNL     1     -12.301  10.452  72.324  1.00  0.00     0.000 HD 
HETATM   23  O   UNL     1     -11.197   7.036  69.875  1.00  0.00    -0.272 OA 
HETATM   24  C   UNL     1     -11.807   7.070  72.228  1.00  0.00    -0.233 C  
HETATM   25  O   UNL     1     -11.608  10.067  71.799  1.00  0.00    -0.245 OA 
HETATM   26  C   UNL     1     -12.861   8.019  71.605  1.00  0.00    -0.329 C  
HETATM   27  O   UNL     1     -11.198   7.604  73.403  1.00  0.00    -0.564 OA 
HETATM   28  H   UNL     1     -14.406   7.881  70.371  1.00  0.00     0.000 HD 
HETATM   29  H   UNL     1     -11.861   7.863  74.032  1.00  0.00     0.000 HD 
HETATM   30  O   UNL     1     -13.760   7.299  70.753  1.00  0.00    -0.007 OA 
HETATM   31  C   UNL     1     -12.158   9.133  70.831  1.00  0.00    -0.214 C  
BRANCH  20  32
HETATM   32  C   UNL     1     -10.364   5.168  71.494  1.00  0.00    -0.208 C  
HETATM   33  O   UNL     1     -10.880   4.700  72.743  1.00  0.00    -0.209 OA 
HETATM   34  H   UNL     1     -10.665   3.793  72.928  1.00  0.00     0.000 HD 
ENDBRANCH  20  32
ENDBRANCH  13  18
ENDBRANCH  10  11
ENDBRANCH   7  10
ENDBRANCH   3   4
ENDBRANCH   2   3
TORSDOF 6
ENDMDL
MODEL      103
REMARK 921   NORMALIZED FREE ENERGY PREDICTED BY IDOCK:   -5.67 KCAL/MOL
REMARK 922        TOTAL FREE ENERGY PREDICTED BY IDOCK:   -8.79 KCAL/MOL
REMARK 923 INTER-LIGAND FREE ENERGY PREDICTED BY IDOCK:   -7.68 KCAL/MOL
REMARK 924 INTRA-LIGAND FREE ENERGY PREDICTED BY IDOCK:   -1.12 KCAL/MOL
REMARK 927      BINDING AFFINITY PREDICTED BY RF-SCORE:    0.00 PKD
ROOT
HETATM    1  C   UNL     1      -9.134  10.927  62.418  1.00  0.00    -0.336 C  
HETATM    2  C   UNL     1      -9.918  11.036  63.717  1.00  0.00    -0.350 C  
ENDROOT
BRANCH   2   3
HETATM    3  O   UNL     1     -10.163  12.417  64.012  1.00  0.00    -0.366 OA 
BRANCH   3   4
HETATM    4  C   UNL     1     -10.546  12.676  65.303  1.00  0.00    -0.291 A  
HETATM    5  C   UNL     1      -9.572  12.483  66.283  1.00  0.00    -0.246 A  
HETATM    6  C   UNL     1      -9.903  12.556  67.642  1.00  0.00    -0.202 A  
HETATM    7  C   UNL     1     -11.223  12.822  68.043  1.00  0.00    -0.310 A  
HETATM    8  C   UNL     1     -12.160  13.146  67.050  1.00  0.00    -0.366 A  
HETATM    9  C   UNL     1     -11.823  13.079  65.690  1.00  0.00    -0.445 A  
BRANCH   7  10
HETATM   10  C   UNL     1     -11.667  12.556  69.473  1.00  0.00    -0.375 C  
BRANCH  10  11
HETATM   11  C   UNL     1     -11.499  11.177  70.068  1.00  0.00    -0.376 A  
HETATM   12  C   UNL     1     -10.605  10.284  69.461  1.00  0.00    -0.270 A  
HETATM   13  C   UNL     1     -10.393   8.966  69.944  1.00  0.00    -0.215 A  
HETATM   14 CL   UNL     1     -13.416  11.656  71.960  1.00  0.00    -0.447 Cl 
HETATM   15  C   UNL     1     -10.924   8.629  71.188  1.00  0.00    -0.320 A  
HETATM   16  C   UNL     1     -11.810   9.511  71.817  1.00  0.00    -0.430 A  
HETATM   17  C   UNL     1     -12.146  10.740  71.227  1.00  0.00    -0.261 A  
BRANCH  13  18
HETATM   18  C   UNL     1      -9.884   7.924  68.964  1.00  0.00    -0.171 C  
HETATM   19  C   UNL     1     -10.848   5.851  68.860  1.00  0.00    -0.303 C  
HETATM   20  C   UNL     1      -9.359   5.770  68.607  1.00  0.00    -0.122 C  
HETATM   21  O   UNL     1     -11.133   7.229  68.621  1.00  0.00    -0.048 OA 
HETATM   22  H   UNL     1     -10.195   8.890  65.802  1.00  0.00     0.000 HD 
HETATM   23  O   UNL     1      -8.954   6.887  69.453  1.00  0.00    -0.138 OA 
HETATM   24  C   UNL     1      -8.827   6.069  67.167  1.00  0.00    -0.108 C  
HETATM   25  O   UNL     1     -10.493   8.550  66.638  1.00  0.00    -0.289 OA 
HETATM   26  C   UNL     1      -8.342   7.534  67.017  1.00  0.00    -0.121 C  
HETATM   27  O   UNL     1      -9.799   5.699  66.190  1.00  0.00    -0.254 OA 
HETATM   28  H   UNL     1      -6.783   8.623  67.574  1.00  0.00     0.000 HD 
HETATM   29  H   UNL     1      -9.476   5.881  65.316  1.00  0.00     0.000 HD 
HETATM   30  O   UNL     1      -7.080   7.726  67.667  1.00  0.00    -0.078 OA 
HETATM   31  C   UNL     1      -9.393   8.485  67.586  1.00  0.00    -0.137 C  
BRANCH  20  32
HETATM   32  C   UNL     1      -8.928   4.327  68.953  1.00  0.00    -0.109 C  
HETATM   33  O   UNL     1      -9.534   3.333  68.123  1.00  0.00    -0.192 OA 
HETATM   34  H   UNL     1      -9.270   2.445  68.336  1.00  0.00     0.000 HD 
ENDBRANCH  20  32
ENDBRANCH  13  18
ENDBRANCH  10  11
ENDBRANCH   7  10
ENDBRANCH   3   4
ENDBRANCH   2   3
TORSDOF 6
ENDMDL
MODEL      104
REMARK 921   NORMALIZED FREE ENERGY PREDICTED BY IDOCK:   -5.67 KCAL/MOL
REMARK 922        TOTAL FREE ENERGY PREDICTED BY IDOCK:   -8.79 KCAL/MOL
REMARK 923 INTER-LIGAND FREE ENERGY PREDICTED BY IDOCK:   -7.61 KCAL/MOL
REMARK 924 INTRA-LIGAND FREE ENERGY PREDICTED BY IDOCK:   -1.19 KCAL/MOL
REMARK 927      BINDING AFFINITY PREDICTED BY RF-SCORE:    0.00 PKD
ROOT
HETATM    1  C   UNL     1      -9.818  20.203  66.148  1.00  0.00    -0.515 C  
HETATM    2  C   UNL     1     -10.563  18.878  66.132  1.00  0.00    -0.407 C  
ENDROOT
BRANCH   2   3
HETATM    3  O   UNL     1     -10.380  18.211  67.387  1.00  0.00    -0.355 OA 
BRANCH   3   4
HETATM    4  C   UNL     1      -9.812  16.966  67.306  1.00  0.00    -0.265 A  
HETATM    5  C   UNL     1      -9.898  16.330  66.068  1.00  0.00    -0.371 A  
HETATM    6  C   UNL     1      -9.501  14.994  65.922  1.00  0.00    -0.313 A  
HETATM    7  C   UNL     1      -9.013  14.269  67.023  1.00  0.00    -0.251 A  
HETATM    8  C   UNL     1      -8.808  14.960  68.227  1.00  0.00    -0.172 A  
HETATM    9  C   UNL     1      -9.199  16.299  68.366  1.00  0.00    -0.203 A  
BRANCH   7  10
HETATM   10  C   UNL     1      -8.919  12.753  66.971  1.00  0.00    -0.221 C  
BRANCH  10  11
HETATM   11  C   UNL     1      -9.839  11.913  67.827  1.00  0.00    -0.187 A  
HETATM   12  C   UNL     1      -9.287  11.148  68.863  1.00  0.00    -0.117 A  
HETATM   13  C   UNL     1     -10.074  10.321  69.707  1.00  0.00    -0.244 A  
HETATM   14 CL   UNL     1     -12.022  12.616  66.335  1.00  0.00    -0.468 Cl 
HETATM   15  C   UNL     1     -11.460  10.449  69.644  1.00  0.00    -0.326 A  
HETATM   16  C   UNL     1     -12.033  11.218  68.625  1.00  0.00    -0.314 A  
HETATM   17  C   UNL     1     -11.229  11.884  67.686  1.00  0.00    -0.276 A  
BRANCH  13  18
HETATM   18  C   UNL     1      -9.392   9.148  70.388  1.00  0.00    -0.232 C  
HETATM   19  C   UNL     1     -10.615   7.371  71.151  1.00  0.00    -0.222 C  
HETATM   20  C   UNL     1      -9.441   7.652  72.062  1.00  0.00    -0.153 C  
HETATM   21  O   UNL     1     -10.242   8.034  69.943  1.00  0.00    -0.195 OA 
HETATM   22  H   UNL     1      -7.247   7.587  68.389  1.00  0.00     0.000 HD 
HETATM   23  O   UNL     1      -9.378   9.095  71.863  1.00  0.00    -0.349 OA 
HETATM   24  C   UNL     1      -8.039   7.075  71.676  1.00  0.00    -0.103 C  
HETATM   25  O   UNL     1      -8.103   7.815  68.734  1.00  0.00    -0.123 OA 
HETATM   26  C   UNL     1      -7.165   8.116  70.932  1.00  0.00    -0.055 C  
HETATM   27  O   UNL     1      -8.185   5.851  70.958  1.00  0.00    -0.118 OA 
HETATM   28  H   UNL     1      -6.121   9.740  71.381  1.00  0.00     0.000 HD 
HETATM   29  H   UNL     1      -7.333   5.501  70.724  1.00  0.00     0.000 HD 
HETATM   30  O   UNL     1      -6.657   9.102  71.838  1.00  0.00    -0.249 OA 
HETATM   31  C   UNL     1      -7.981   8.773  69.819  1.00  0.00    -0.095 C  
BRANCH  20  32
HETATM   32  C   UNL     1      -9.801   7.065  73.446  1.00  0.00    -0.237 C  
HETATM   33  O   UNL     1     -11.206   7.050  73.714  1.00  0.00    -0.473 OA 
HETATM   34  H   UNL     1     -11.427   6.689  74.564  1.00  0.00     0.000 HD 
ENDBRANCH  20  32
ENDBRANCH  13  18
ENDBRANCH  10  11
ENDBRANCH   7  10
ENDBRANCH   3   4
ENDBRANCH   2   3
TORSDOF 6
ENDMDL
MODEL      105
REMARK 921   NORMALIZED FREE ENERGY PREDICTED BY IDOCK:   -5.64 KCAL/MOL
REMARK 922        TOTAL FREE ENERGY PREDICTED BY IDOCK:   -8.76 KCAL/MOL
REMARK 923 INTER-LIGAND FREE ENERGY PREDICTED BY IDOCK:   -7.32 KCAL/MOL
REMARK 924 INTRA-LIGAND FREE ENERGY PREDICTED BY IDOCK:   -1.44 KCAL/MOL
REMARK 927      BINDING AFFINITY PREDICTED BY RF-SCORE:    0.00 PKD
ROOT
HETATM    1  C   UNL     1      -5.757  20.098  70.827  1.00  0.00    -0.346 C  
HETATM    2  C   UNL     1      -6.374  19.946  69.446  1.00  0.00    -0.339 C  
ENDROOT
BRANCH   2   3
HETATM    3  O   UNL     1      -6.193  18.601  68.986  1.00  0.00    -0.222 OA 
BRANCH   3   4
HETATM    4  C   UNL     1      -7.297  18.030  68.407  1.00  0.00    -0.261 A  
HETATM    5  C   UNL     1      -8.494  18.732  68.544  1.00  0.00    -0.379 A  
HETATM    6  C   UNL     1      -9.708  18.160  68.139  1.00  0.00    -0.331 A  
HETATM    7  C   UNL     1      -9.740  16.867  67.589  1.00  0.00    -0.249 A  
HETATM    8  C   UNL     1      -8.516  16.229  67.335  1.00  0.00    -0.190 A  
HETATM    9  C   UNL     1      -7.303  16.809  67.735  1.00  0.00    -0.165 A  
BRANCH   7  10
HETATM   10  C   UNL     1     -11.051  16.105  67.479  1.00  0.00    -0.175 C  
BRANCH  10  11
HETATM   11  C   UNL     1     -11.106  14.815  66.693  1.00  0.00    -0.333 A  
HETATM   12  C   UNL     1     -10.919  13.602  67.371  1.00  0.00    -0.289 A  
HETATM   13  C   UNL     1     -10.942  12.345  66.713  1.00  0.00    -0.305 A  
HETATM   14 CL   UNL     1     -11.439  16.156  64.332  1.00  0.00    -0.364 Cl 
HETATM   15  C   UNL     1     -11.386  12.304  65.392  1.00  0.00    -0.389 A  
HETATM   16  C   UNL     1     -11.591  13.503  64.699  1.00  0.00    -0.395 A  
HETATM   17  C   UNL     1     -11.384  14.742  65.325  1.00  0.00    -0.363 A  
BRANCH  13  18
HETATM   18  C   UNL     1     -10.201  11.190  67.361  1.00  0.00    -0.190 C  
HETATM   19  C   UNL     1      -8.168  11.520  68.358  1.00  0.00    -0.152 C  
HETATM   20  C   UNL     1      -8.232  10.162  67.693  1.00  0.00    -0.110 C  
HETATM   21  O   UNL     1      -9.545  11.873  68.485  1.00  0.00    -0.200 OA 
HETATM   22  H   UNL     1     -11.895   9.847  69.882  1.00  0.00     0.000 HD 
HETATM   23  O   UNL     1      -9.128  10.520  66.600  1.00  0.00    -0.152 OA 
HETATM   24  C   UNL     1      -8.904   8.981  68.468  1.00  0.00    -0.134 C  
HETATM   25  O   UNL     1     -11.344  10.492  69.454  1.00  0.00    -0.239 OA 
HETATM   26  C   UNL     1     -10.385   8.780  68.056  1.00  0.00    -0.220 C  
HETATM   27  O   UNL     1      -8.733   9.146  69.875  1.00  0.00    -0.137 OA 
HETATM   28  H   UNL     1     -11.388   8.041  66.515  1.00  0.00     0.000 HD 
HETATM   29  H   UNL     1      -9.140   8.429  70.345  1.00  0.00     0.000 HD 
HETATM   30  O   UNL     1     -10.481   8.164  66.767  1.00  0.00    -0.326 OA 
HETATM   31  C   UNL     1     -11.109  10.126  68.068  1.00  0.00    -0.240 C  
BRANCH  20  32
HETATM   32  C   UNL     1      -6.774   9.737  67.407  1.00  0.00    -0.074 C  
HETATM   33  O   UNL     1      -6.316   8.665  68.236  1.00  0.00    -0.053 OA 
HETATM   34  H   UNL     1      -5.419   8.405  68.060  1.00  0.00     0.000 HD 
ENDBRANCH  20  32
ENDBRANCH  13  18
ENDBRANCH  10  11
ENDBRANCH   7  10
ENDBRANCH   3   4
ENDBRANCH   2   3
TORSDOF 6
ENDMDL
MODEL      106
REMARK 921   NORMALIZED FREE ENERGY PREDICTED BY IDOCK:   -5.63 KCAL/MOL
REMARK 922        TOTAL FREE ENERGY PREDICTED BY IDOCK:   -8.75 KCAL/MOL
REMARK 923 INTER-LIGAND FREE ENERGY PREDICTED BY IDOCK:   -7.45 KCAL/MOL
REMARK 924 INTRA-LIGAND FREE ENERGY PREDICTED BY IDOCK:   -1.29 KCAL/MOL
REMARK 927      BINDING AFFINITY PREDICTED BY RF-SCORE:    0.00 PKD
ROOT
HETATM    1  C   UNL     1      -9.825   6.662  72.131  1.00  0.00    -0.166 C  
HETATM    2  C   UNL     1      -8.432   7.018  71.635  1.00  0.00    -0.115 C  
ENDROOT
BRANCH   2   3
HETATM    3  O   UNL     1      -8.496   8.214  70.848  1.00  0.00    -0.120 OA 
BRANCH   3   4
HETATM    4  C   UNL     1      -8.086   8.076  69.546  1.00  0.00    -0.120 A  
HETATM    5  C   UNL     1      -6.853   8.645  69.227  1.00  0.00    -0.050 A  
HETATM    6  C   UNL     1      -6.419   8.709  67.896  1.00  0.00    -0.057 A  
HETATM    7  C   UNL     1      -7.220   8.203  66.858  1.00  0.00    -0.083 A  
HETATM    8  C   UNL     1      -8.392   7.516  67.207  1.00  0.00    -0.118 A  
HETATM    9  C   UNL     1      -8.819   7.447  68.541  1.00  0.00    -0.126 A  
BRANCH   7  10
HETATM   10  C   UNL     1      -6.939   8.575  65.412  1.00  0.00    -0.078 C  
BRANCH  10  11
HETATM   11  C   UNL     1      -7.971   9.347  64.621  1.00  0.00    -0.124 A  
HETATM   12  C   UNL     1      -8.498  10.526  65.167  1.00  0.00    -0.170 A  
HETATM   13  C   UNL     1      -9.478  11.307  64.501  1.00  0.00    -0.211 A  
HETATM   14 CL   UNL     1      -7.992   7.467  62.633  1.00  0.00    -0.136 Cl 
HETATM   15  C   UNL     1      -9.758  11.011  63.168  1.00  0.00    -0.398 A  
HETATM   16  C   UNL     1      -9.232   9.846  62.598  1.00  0.00    -0.297 A  
HETATM   17  C   UNL     1      -8.405   8.990  63.341  1.00  0.00    -0.187 A  
BRANCH  13  18
HETATM   18  C   UNL     1     -10.374  12.194  65.347  1.00  0.00    -0.269 C  
HETATM   19  C   UNL     1      -9.873  12.606  67.541  1.00  0.00    -0.203 C  
HETATM   20  C   UNL     1     -11.369  12.521  67.333  1.00  0.00    -0.313 C  
HETATM   21  O   UNL     1      -9.385  12.841  66.220  1.00  0.00    -0.228 OA 
HETATM   22  H   UNL     1     -10.561  15.297  64.179  1.00  0.00     0.000 HD 
HETATM   23  O   UNL     1     -11.361  11.557  66.240  1.00  0.00    -0.283 OA 
HETATM   24  C   UNL     1     -12.127  13.790  66.819  1.00  0.00    -0.418 C  
HETATM   25  O   UNL     1     -10.164  14.566  64.638  1.00  0.00    -0.327 OA 
HETATM   26  C   UNL     1     -12.340  13.760  65.284  1.00  0.00    -0.464 C  
HETATM   27  O   UNL     1     -11.474  14.977  67.270  1.00  0.00    -0.342 OA 
HETATM   28  H   UNL     1     -13.505  12.817  63.987  1.00  0.00     0.000 HD 
HETATM   29  H   UNL     1     -11.934  15.746  66.958  1.00  0.00     0.000 HD 
HETATM   30  O   UNL     1     -13.374  12.835  64.928  1.00  0.00    -0.736 OA 
HETATM   31  C   UNL     1     -11.029  13.399  64.589  1.00  0.00    -0.377 C  
BRANCH  20  32
HETATM   32  C   UNL     1     -11.987  12.154  68.701  1.00  0.00    -0.237 C  
HETATM   33  O   UNL     1     -12.626  10.875  68.717  1.00  0.00    -0.699 OA 
HETATM   34  H   UNL     1     -13.006  10.649  69.558  1.00  0.00     0.000 HD 
ENDBRANCH  20  32
ENDBRANCH  13  18
ENDBRANCH  10  11
ENDBRANCH   7  10
ENDBRANCH   3   4
ENDBRANCH   2   3
TORSDOF 6
ENDMDL
MODEL      107
REMARK 921   NORMALIZED FREE ENERGY PREDICTED BY IDOCK:   -5.63 KCAL/MOL
REMARK 922        TOTAL FREE ENERGY PREDICTED BY IDOCK:   -8.75 KCAL/MOL
REMARK 923 INTER-LIGAND FREE ENERGY PREDICTED BY IDOCK:   -7.33 KCAL/MOL
REMARK 924 INTRA-LIGAND FREE ENERGY PREDICTED BY IDOCK:   -1.42 KCAL/MOL
REMARK 927      BINDING AFFINITY PREDICTED BY RF-SCORE:    0.00 PKD
ROOT
HETATM    1  C   UNL     1     -12.325  11.732  63.373  1.00  0.00    -0.476 C  
HETATM    2  C   UNL     1     -12.143  13.241  63.346  1.00  0.00    -0.439 C  
ENDROOT
BRANCH   2   3
HETATM    3  O   UNL     1     -12.758  13.818  64.505  1.00  0.00    -0.643 OA 
BRANCH   3   4
HETATM    4  C   UNL     1     -11.886  14.329  65.432  1.00  0.00    -0.363 A  
HETATM    5  C   UNL     1     -10.742  14.945  64.926  1.00  0.00    -0.426 A  
HETATM    6  C   UNL     1      -9.709  15.349  65.782  1.00  0.00    -0.385 A  
HETATM    7  C   UNL     1      -9.808  15.138  67.169  1.00  0.00    -0.228 A  
HETATM    8  C   UNL     1     -11.018  14.641  67.674  1.00  0.00    -0.296 A  
HETATM    9  C   UNL     1     -12.052  14.245  66.814  1.00  0.00    -0.446 A  
BRANCH   7  10
HETATM   10  C   UNL     1      -8.578  15.239  68.056  1.00  0.00    -0.152 C  
BRANCH  10  11
HETATM   11  C   UNL     1      -7.873  13.980  68.509  1.00  0.00    -0.140 A  
HETATM   12  C   UNL     1      -8.369  12.739  68.087  1.00  0.00    -0.172 A  
HETATM   13  C   UNL     1      -7.779  11.507  68.473  1.00  0.00    -0.134 A  
HETATM   14 CL   UNL     1      -6.111  15.405  70.043  1.00  0.00    -0.146 Cl 
HETATM   15  C   UNL     1      -6.538  11.544  69.107  1.00  0.00    -0.102 A  
HETATM   16  C   UNL     1      -6.018  12.774  69.527  1.00  0.00    -0.112 A  
HETATM   17  C   UNL     1      -6.714  13.970  69.291  1.00  0.00    -0.120 A  
BRANCH  13  18
HETATM   18  C   UNL     1      -8.653  10.266  68.459  1.00  0.00    -0.126 C  
HETATM   19  C   UNL     1      -8.637   8.810  70.224  1.00  0.00    -0.152 C  
HETATM   20  C   UNL     1      -8.819   8.074  68.915  1.00  0.00    -0.141 C  
HETATM   21  O   UNL     1      -8.995  10.149  69.884  1.00  0.00    -0.185 OA 
HETATM   22  H   UNL     1     -11.890  10.990  68.306  1.00  0.00     0.000 HD 
HETATM   23  O   UNL     1      -8.046   8.977  68.072  1.00  0.00    -0.104 OA 
HETATM   24  C   UNL     1     -10.254   7.987  68.299  1.00  0.00    -0.205 C  
HETATM   25  O   UNL     1     -11.044  10.885  68.725  1.00  0.00    -0.216 OA 
HETATM   26  C   UNL     1     -10.496   9.080  67.228  1.00  0.00    -0.273 C  
HETATM   27  O   UNL     1     -11.241   7.986  69.330  1.00  0.00    -0.438 OA 
HETATM   28  H   UNL     1      -9.958   9.438  65.354  1.00  0.00     0.000 HD 
HETATM   29  H   UNL     1     -12.112   7.934  68.956  1.00  0.00     0.000 HD 
HETATM   30  O   UNL     1      -9.810   8.767  66.010  1.00  0.00    -0.258 OA 
HETATM   31  C   UNL     1     -10.048  10.438  67.767  1.00  0.00    -0.181 C  
BRANCH  20  32
HETATM   32  C   UNL     1      -8.345   6.622  69.152  1.00  0.00    -0.124 C  
HETATM   33  O   UNL     1      -8.926   6.010  70.308  1.00  0.00    -0.144 OA 
HETATM   34  H   UNL     1      -8.634   5.118  70.454  1.00  0.00     0.000 HD 
ENDBRANCH  20  32
ENDBRANCH  13  18
ENDBRANCH  10  11
ENDBRANCH   7  10
ENDBRANCH   3   4
ENDBRANCH   2   3
TORSDOF 6
ENDMDL
MODEL      108
REMARK 921   NORMALIZED FREE ENERGY PREDICTED BY IDOCK:   -5.62 KCAL/MOL
REMARK 922        TOTAL FREE ENERGY PREDICTED BY IDOCK:   -8.73 KCAL/MOL
REMARK 923 INTER-LIGAND FREE ENERGY PREDICTED BY IDOCK:   -7.36 KCAL/MOL
REMARK 924 INTRA-LIGAND FREE ENERGY PREDICTED BY IDOCK:   -1.37 KCAL/MOL
REMARK 927      BINDING AFFINITY PREDICTED BY RF-SCORE:    0.00 PKD
ROOT
HETATM    1  C   UNL     1      -7.163  15.158  69.040  1.00  0.00    -0.149 C  
HETATM    2  C   UNL     1      -8.136  16.315  69.200  1.00  0.00    -0.215 C  
ENDROOT
BRANCH   2   3
HETATM    3  O   UNL     1      -8.679  16.663  67.919  1.00  0.00    -0.189 OA 
BRANCH   3   4
HETATM    4  C   UNL     1      -9.589  15.771  67.412  1.00  0.00    -0.217 A  
HETATM    5  C   UNL     1     -10.480  15.214  68.328  1.00  0.00    -0.241 A  
HETATM    6  C   UNL     1     -11.336  14.172  67.950  1.00  0.00    -0.318 A  
HETATM    7  C   UNL     1     -11.309  13.665  66.639  1.00  0.00    -0.343 A  
HETATM    8  C   UNL     1     -10.504  14.323  65.696  1.00  0.00    -0.336 A  
HETATM    9  C   UNL     1      -9.655  15.371  66.078  1.00  0.00    -0.382 A  
BRANCH   7  10
HETATM   10  C   UNL     1     -11.956  12.329  66.311  1.00  0.00    -0.307 C  
BRANCH  10  11
HETATM   11  C   UNL     1     -11.126  11.066  66.337  1.00  0.00    -0.137 A  
HETATM   12  C   UNL     1     -11.172  10.250  67.476  1.00  0.00    -0.192 A  
HETATM   13  C   UNL     1     -10.418   9.054  67.593  1.00  0.00    -0.324 A  
HETATM   14 CL   UNL     1     -10.035  11.618  63.889  1.00  0.00    -0.330 Cl 
HETATM   15  C   UNL     1      -9.785   8.563  66.452  1.00  0.00    -0.328 A  
HETATM   16  C   UNL     1      -9.737   9.355  65.300  1.00  0.00    -0.184 A  
HETATM   17  C   UNL     1     -10.342  10.622  65.269  1.00  0.00    -0.251 A  
BRANCH  13  18
HETATM   18  C   UNL     1     -10.086   8.557  68.989  1.00  0.00    -0.199 C  
HETATM   19  C   UNL     1     -11.530   7.182  70.112  1.00  0.00    -0.205 C  
HETATM   20  C   UNL     1     -10.830   8.128  71.063  1.00  0.00    -0.235 C  
HETATM   21  O   UNL     1     -10.688   7.216  68.959  1.00  0.00    -0.213 OA 
HETATM   22  H   UNL     1      -7.323   6.714  69.060  1.00  0.00     0.000 HD 
HETATM   23  O   UNL     1     -10.679   9.252  70.148  1.00  0.00    -0.213 OA 
HETATM   24  C   UNL     1      -9.398   7.755  71.571  1.00  0.00    -0.137 C  
HETATM   25  O   UNL     1      -8.244   6.892  68.901  1.00  0.00    -0.119 OA 
HETATM   26  C   UNL     1      -8.286   8.445  70.741  1.00  0.00    -0.130 C  
HETATM   27  O   UNL     1      -9.247   6.337  71.638  1.00  0.00    -0.145 OA 
HETATM   28  H   UNL     1      -7.505  10.258  70.564  1.00  0.00     0.000 HD 
HETATM   29  H   UNL     1      -8.378   6.111  71.947  1.00  0.00     0.000 HD 
HETATM   30  O   UNL     1      -8.186   9.835  71.073  1.00  0.00    -0.189 OA 
HETATM   31  C   UNL     1      -8.569   8.264  69.251  1.00  0.00    -0.138 C  
BRANCH  20  32
HETATM   32  C   UNL     1     -11.731   8.247  72.313  1.00  0.00    -0.388 C  
HETATM   33  O   UNL     1     -11.218   7.561  73.458  1.00  0.00    -0.603 OA 
HETATM   34  H   UNL     1     -11.772   7.634  74.226  1.00  0.00     0.000 HD 
ENDBRANCH  20  32
ENDBRANCH  13  18
ENDBRANCH  10  11
ENDBRANCH   7  10
ENDBRANCH   3   4
ENDBRANCH   2   3
TORSDOF 6
ENDMDL
MODEL      109
REMARK 921   NORMALIZED FREE ENERGY PREDICTED BY IDOCK:   -5.60 KCAL/MOL
REMARK 922        TOTAL FREE ENERGY PREDICTED BY IDOCK:   -8.70 KCAL/MOL
REMARK 923 INTER-LIGAND FREE ENERGY PREDICTED BY IDOCK:   -7.19 KCAL/MOL
REMARK 924 INTRA-LIGAND FREE ENERGY PREDICTED BY IDOCK:   -1.50 KCAL/MOL
REMARK 927      BINDING AFFINITY PREDICTED BY RF-SCORE:    0.00 PKD
ROOT
HETATM    1  C   UNL     1     -14.384   7.913  71.509  1.00  0.00    -0.563 C  
HETATM    2  C   UNL     1     -13.312   8.714  72.230  1.00  0.00    -0.375 C  
ENDROOT
BRANCH   2   3
HETATM    3  O   UNL     1     -12.275   7.832  72.677  1.00  0.00    -0.210 OA 
BRANCH   3   4
HETATM    4  C   UNL     1     -11.183   7.752  71.850  1.00  0.00    -0.265 A  
HETATM    5  C   UNL     1     -10.379   8.889  71.783  1.00  0.00    -0.426 A  
HETATM    6  C   UNL     1      -9.340   8.975  70.847  1.00  0.00    -0.326 A  
HETATM    7  C   UNL     1      -9.091   7.917  69.957  1.00  0.00    -0.152 A  
HETATM    8  C   UNL     1      -9.819   6.730  70.126  1.00  0.00    -0.187 A  
HETATM    9  C   UNL     1     -10.854   6.645  71.069  1.00  0.00    -0.289 A  
BRANCH   7  10
HETATM   10  C   UNL     1      -8.224   8.128  68.726  1.00  0.00    -0.125 C  
BRANCH  10  11
HETATM   11  C   UNL     1      -8.767   8.903  67.548  1.00  0.00    -0.124 A  
HETATM   12  C   UNL     1      -8.873  10.298  67.648  1.00  0.00    -0.121 A  
HETATM   13  C   UNL     1      -9.383  11.104  66.597  1.00  0.00    -0.194 A  
HETATM   14 CL   UNL     1      -9.240   6.609  66.134  1.00  0.00    -0.155 Cl 
HETATM   15  C   UNL     1      -9.575  10.512  65.349  1.00  0.00    -0.291 A  
HETATM   16  C   UNL     1      -9.463   9.123  65.224  1.00  0.00    -0.169 A  
HETATM   17  C   UNL     1      -9.131   8.324  66.329  1.00  0.00    -0.188 A  
BRANCH  13  18
HETATM   18  C   UNL     1      -9.978  12.453  66.961  1.00  0.00    -0.212 C  
HETATM   19  C   UNL     1      -9.021  14.390  66.208  1.00  0.00     0.004 C  
HETATM   20  C   UNL     1      -9.593  14.572  67.597  1.00  0.00    -0.214 C  
HETATM   21  O   UNL     1      -9.695  13.222  65.741  1.00  0.00    -0.234 OA 
HETATM   22  H   UNL     1     -13.074  12.829  65.822  1.00  0.00     0.000 HD 
HETATM   23  O   UNL     1      -9.380  13.212  68.077  1.00  0.00    -0.205 OA 
HETATM   24  C   UNL     1     -11.121  14.875  67.743  1.00  0.00    -0.309 C  
HETATM   25  O   UNL     1     -12.126  12.806  65.764  1.00  0.00    -0.432 OA 
HETATM   26  C   UNL     1     -11.945  13.594  68.033  1.00  0.00    -0.350 C  
HETATM   27  O   UNL     1     -11.596  15.601  66.610  1.00  0.00     0.021 OA 
HETATM   28  H   UNL     1     -12.270  12.379  69.564  1.00  0.00     0.000 HD 
HETATM   29  H   UNL     1     -12.523  15.785  66.699  1.00  0.00     0.000 HD 
HETATM   30  O   UNL     1     -11.765  13.164  69.387  1.00  0.00    -0.294 OA 
HETATM   31  C   UNL     1     -11.541  12.491  67.056  1.00  0.00    -0.368 C  
BRANCH  20  32
HETATM   32  C   UNL     1      -8.838  15.759  68.237  1.00  0.00    -0.180 C  
HETATM   33  O   UNL     1      -9.657  16.569  69.085  1.00  0.00    -0.260 OA 
HETATM   34  H   UNL     1      -9.193  17.299  69.478  1.00  0.00     0.000 HD 
ENDBRANCH  20  32
ENDBRANCH  13  18
ENDBRANCH  10  11
ENDBRANCH   7  10
ENDBRANCH   3   4
ENDBRANCH   2   3
TORSDOF 6
ENDMDL
MODEL      110
REMARK 921   NORMALIZED FREE ENERGY PREDICTED BY IDOCK:   -5.59 KCAL/MOL
REMARK 922        TOTAL FREE ENERGY PREDICTED BY IDOCK:   -8.69 KCAL/MOL
REMARK 923 INTER-LIGAND FREE ENERGY PREDICTED BY IDOCK:   -7.57 KCAL/MOL
REMARK 924 INTRA-LIGAND FREE ENERGY PREDICTED BY IDOCK:   -1.12 KCAL/MOL
REMARK 927      BINDING AFFINITY PREDICTED BY RF-SCORE:    0.00 PKD
ROOT
HETATM    1  C   UNL     1     -10.661  19.126  65.981  1.00  0.00    -0.451 C  
HETATM    2  C   UNL     1      -9.735  17.951  66.248  1.00  0.00    -0.269 C  
ENDROOT
BRANCH   2   3
HETATM    3  O   UNL     1     -10.139  16.832  65.448  1.00  0.00    -0.587 OA 
BRANCH   3   4
HETATM    4  C   UNL     1      -9.852  15.602  65.983  1.00  0.00    -0.333 A  
HETATM    5  C   UNL     1      -9.004  15.595  67.089  1.00  0.00    -0.232 A  
HETATM    6  C   UNL     1      -8.513  14.389  67.607  1.00  0.00    -0.191 A  
HETATM    7  C   UNL     1      -8.866  13.163  67.017  1.00  0.00    -0.212 A  
HETATM    8  C   UNL     1      -9.823  13.177  65.991  1.00  0.00    -0.266 A  
HETATM    9  C   UNL     1     -10.317  14.387  65.482  1.00  0.00    -0.382 A  
BRANCH   7  10
HETATM   10  C   UNL     1      -8.081  11.899  67.329  1.00  0.00    -0.171 C  
BRANCH  10  11
HETATM   11  C   UNL     1      -8.755  10.550  67.224  1.00  0.00    -0.126 A  
HETATM   12  C   UNL     1      -9.373  10.013  68.361  1.00  0.00    -0.139 A  
HETATM   13  C   UNL     1     -10.018   8.749  68.357  1.00  0.00    -0.200 A  
HETATM   14 CL   UNL     1      -7.971  10.256  64.619  1.00  0.00    -0.148 Cl 
HETATM   15  C   UNL     1     -10.236   8.127  67.129  1.00  0.00    -0.366 A  
HETATM   16  C   UNL     1      -9.640   8.654  65.978  1.00  0.00    -0.265 A  
HETATM   17  C   UNL     1      -8.851   9.813  66.040  1.00  0.00    -0.147 A  
BRANCH  13  18
HETATM   18  C   UNL     1     -10.148   8.013  69.679  1.00  0.00    -0.198 C  
HETATM   19  C   UNL     1     -11.739   6.393  69.960  1.00  0.00    -0.275 C  
HETATM   20  C   UNL     1     -11.525   7.171  71.240  1.00  0.00    -0.282 C  
HETATM   21  O   UNL     1     -10.554   6.678  69.217  1.00  0.00    -0.204 OA 
HETATM   22  H   UNL     1      -7.408   6.307  70.461  1.00  0.00     0.000 HD 
HETATM   23  O   UNL     1     -11.182   8.453  70.635  1.00  0.00    -0.256 OA 
HETATM   24  C   UNL     1     -10.334   6.770  72.170  1.00  0.00    -0.200 C  
HETATM   25  O   UNL     1      -8.226   6.473  70.007  1.00  0.00    -0.125 OA 
HETATM   26  C   UNL     1      -9.081   7.650  71.927  1.00  0.00    -0.127 C  
HETATM   27  O   UNL     1     -10.065   5.372  72.061  1.00  0.00    -0.178 OA 
HETATM   28  H   UNL     1      -8.487   9.495  72.340  1.00  0.00     0.000 HD 
HETATM   29  H   UNL     1      -9.342   5.129  72.626  1.00  0.00     0.000 HD 
HETATM   30  O   UNL     1      -9.254   8.956  72.489  1.00  0.00    -0.334 OA 
HETATM   31  C   UNL     1      -8.799   7.740  70.428  1.00  0.00    -0.146 C  
BRANCH  20  32
HETATM   32  C   UNL     1     -12.817   7.017  72.075  1.00  0.00    -0.167 C  
HETATM   33  O   UNL     1     -13.226   8.223  72.726  1.00  0.00    -0.592 OA 
HETATM   34  H   UNL     1     -14.020   8.127  73.240  1.00  0.00     0.000 HD 
ENDBRANCH  20  32
ENDBRANCH  13  18
ENDBRANCH  10  11
ENDBRANCH   7  10
ENDBRANCH   3   4
ENDBRANCH   2   3
TORSDOF 6
ENDMDL
MODEL      111
REMARK 921   NORMALIZED FREE ENERGY PREDICTED BY IDOCK:   -5.58 KCAL/MOL
REMARK 922        TOTAL FREE ENERGY PREDICTED BY IDOCK:   -8.68 KCAL/MOL
REMARK 923 INTER-LIGAND FREE ENERGY PREDICTED BY IDOCK:   -7.82 KCAL/MOL
REMARK 924 INTRA-LIGAND FREE ENERGY PREDICTED BY IDOCK:   -0.86 KCAL/MOL
REMARK 927      BINDING AFFINITY PREDICTED BY RF-SCORE:    0.00 PKD
ROOT
HETATM    1  C   UNL     1     -11.384  16.180  70.687  1.00  0.00    -0.394 C  
HETATM    2  C   UNL     1     -12.060  14.906  70.205  1.00  0.00    -0.325 C  
ENDROOT
BRANCH   2   3
HETATM    3  O   UNL     1     -12.432  14.106  71.335  1.00  0.00    -0.334 OA 
BRANCH   3   4
HETATM    4  C   UNL     1     -12.507  12.758  71.092  1.00  0.00    -0.239 A  
HETATM    5  C   UNL     1     -13.257  12.012  72.000  1.00  0.00    -0.481 A  
HETATM    6  C   UNL     1     -13.261  10.611  71.943  1.00  0.00    -0.528 A  
HETATM    7  C   UNL     1     -12.505   9.934  70.970  1.00  0.00    -0.441 A  
HETATM    8  C   UNL     1     -11.865  10.700  69.984  1.00  0.00    -0.403 A  
HETATM    9  C   UNL     1     -11.871  12.101  70.040  1.00  0.00    -0.383 A  
BRANCH   7  10
HETATM   10  C   UNL     1     -12.215   8.449  71.110  1.00  0.00    -0.248 C  
BRANCH  10  11
HETATM   11  C   UNL     1     -10.811   7.933  70.890  1.00  0.00    -0.245 A  
HETATM   12  C   UNL     1     -10.316   7.859  69.581  1.00  0.00    -0.216 A  
HETATM   13  C   UNL     1      -9.016   7.376  69.280  1.00  0.00    -0.136 A  
HETATM   14 CL   UNL     1     -10.481   7.418  73.557  1.00  0.00    -0.411 Cl 
HETATM   15  C   UNL     1      -8.128   7.181  70.336  1.00  0.00    -0.118 A  
HETATM   16  C   UNL     1      -8.597   7.262  71.652  1.00  0.00    -0.120 A  
HETATM   17  C   UNL     1      -9.942   7.566  71.920  1.00  0.00    -0.171 A  
BRANCH  13  18
HETATM   18  C   UNL     1      -8.771   6.811  67.892  1.00  0.00    -0.120 C  
HETATM   19  C   UNL     1     -10.516   6.447  66.457  1.00  0.00    -0.080 C  
HETATM   20  C   UNL     1      -9.446   5.390  66.290  1.00  0.00    -0.157 C  
HETATM   21  O   UNL     1      -9.817   7.499  67.121  1.00  0.00    -0.168 OA 
HETATM   22  H   UNL     1      -6.863   8.791  66.029  1.00  0.00     0.000 HD 
HETATM   23  O   UNL     1      -8.976   5.367  67.670  1.00  0.00    -0.110 OA 
HETATM   24  C   UNL     1      -8.208   5.713  65.390  1.00  0.00    -0.132 C  
HETATM   25  O   UNL     1      -7.667   8.505  66.448  1.00  0.00    -0.095 OA 
HETATM   26  C   UNL     1      -6.995   6.203  66.220  1.00  0.00    -0.066 C  
HETATM   27  O   UNL     1      -8.573   6.615  64.346  1.00  0.00    -0.341 OA 
HETATM   28  H   UNL     1      -5.630   5.415  67.422  1.00  0.00     0.000 HD 
HETATM   29  H   UNL     1      -7.822   6.811  63.799  1.00  0.00     0.000 HD 
HETATM   30  O   UNL     1      -6.374   5.115  66.913  1.00  0.00    -0.037 OA 
HETATM   31  C   UNL     1      -7.446   7.283  67.202  1.00  0.00    -0.105 C  
BRANCH  20  32
HETATM   32  C   UNL     1     -10.137   4.152  65.674  1.00  0.00    -0.176 C  
HETATM   33  O   UNL     1     -11.378   4.450  65.028  1.00  0.00    -1.040 OA 
HETATM   34  H   UNL     1     -11.802   3.689  64.650  1.00  0.00     0.000 HD 
ENDBRANCH  20  32
ENDBRANCH  13  18
ENDBRANCH  10  11
ENDBRANCH   7  10
ENDBRANCH   3   4
ENDBRANCH   2   3
TORSDOF 6
ENDMDL
MODEL      112
REMARK 921   NORMALIZED FREE ENERGY PREDICTED BY IDOCK:   -5.55 KCAL/MOL
REMARK 922        TOTAL FREE ENERGY PREDICTED BY IDOCK:   -8.64 KCAL/MOL
REMARK 923 INTER-LIGAND FREE ENERGY PREDICTED BY IDOCK:   -7.15 KCAL/MOL
REMARK 924 INTRA-LIGAND FREE ENERGY PREDICTED BY IDOCK:   -1.49 KCAL/MOL
REMARK 927      BINDING AFFINITY PREDICTED BY RF-SCORE:    0.00 PKD
ROOT
HETATM    1  C   UNL     1      -9.393  15.321  69.660  1.00  0.00    -0.161 C  
HETATM    2  C   UNL     1     -10.878  15.144  69.384  1.00  0.00    -0.262 C  
ENDROOT
BRANCH   2   3
HETATM    3  O   UNL     1     -11.214  15.785  68.147  1.00  0.00    -0.329 OA 
BRANCH   3   4
HETATM    4  C   UNL     1     -11.270  14.954  67.057  1.00  0.00    -0.344 A  
HETATM    5  C   UNL     1     -12.148  13.875  67.153  1.00  0.00    -0.422 A  
HETATM    6  C   UNL     1     -12.160  12.875  66.172  1.00  0.00    -0.458 A  
HETATM    7  C   UNL     1     -11.285  12.941  65.073  1.00  0.00    -0.324 A  
HETATM    8  C   UNL     1     -10.505  14.098  64.922  1.00  0.00    -0.461 A  
HETATM    9  C   UNL     1     -10.502  15.100  65.903  1.00  0.00    -0.350 A  
BRANCH   7  10
HETATM   10  C   UNL     1     -11.036  11.717  64.207  1.00  0.00    -0.418 C  
BRANCH  10  11
HETATM   11  C   UNL     1     -10.012  10.690  64.636  1.00  0.00    -0.401 A  
HETATM   12  C   UNL     1     -10.193  10.023  65.855  1.00  0.00    -0.275 A  
HETATM   13  C   UNL     1      -9.278   9.054  66.342  1.00  0.00    -0.239 A  
HETATM   14 CL   UNL     1      -8.454  11.189  62.442  1.00  0.00    -0.313 Cl 
HETATM   15  C   UNL     1      -8.289   8.592  65.474  1.00  0.00    -0.163 A  
HETATM   16  C   UNL     1      -8.099   9.235  64.246  1.00  0.00    -0.144 A  
HETATM   17  C   UNL     1      -8.908  10.316  63.864  1.00  0.00    -0.220 A  
BRANCH  13  18
HETATM   18  C   UNL     1      -9.228   8.812  67.839  1.00  0.00    -0.139 C  
HETATM   19  C   UNL     1      -7.223   8.625  68.925  1.00  0.00    -0.077 C  
HETATM   20  C   UNL     1      -8.260   7.710  69.539  1.00  0.00    -0.129 C  
HETATM   21  O   UNL     1      -8.020   9.565  68.205  1.00  0.00    -0.094 OA 
HETATM   22  H   UNL     1     -10.624  11.276  69.574  1.00  0.00     0.000 HD 
HETATM   23  O   UNL     1      -9.021   7.435  68.327  1.00  0.00    -0.131 OA 
HETATM   24  C   UNL     1      -9.260   8.307  70.584  1.00  0.00    -0.152 C  
HETATM   25  O   UNL     1      -9.939  10.849  69.072  1.00  0.00    -0.205 OA 
HETATM   26  C   UNL     1     -10.611   8.704  69.936  1.00  0.00    -0.224 C  
HETATM   27  O   UNL     1      -8.649   9.378  71.303  1.00  0.00    -0.299 OA 
HETATM   28  H   UNL     1     -12.229   7.788  69.248  1.00  0.00     0.000 HD 
HETATM   29  H   UNL     1      -9.256   9.740  71.937  1.00  0.00     0.000 HD 
HETATM   30  O   UNL     1     -11.400   7.544  69.645  1.00  0.00    -0.081 OA 
HETATM   31  C   UNL     1     -10.356   9.517  68.668  1.00  0.00    -0.205 C  
BRANCH  20  32
HETATM   32  C   UNL     1      -7.486   6.580  70.256  1.00  0.00    -0.094 C  
HETATM   33  O   UNL     1      -6.372   7.044  71.023  1.00  0.00    -0.039 OA 
HETATM   34  H   UNL     1      -5.897   6.349  71.463  1.00  0.00     0.000 HD 
ENDBRANCH  20  32
ENDBRANCH  13  18
ENDBRANCH  10  11
ENDBRANCH   7  10
ENDBRANCH   3   4
ENDBRANCH   2   3
TORSDOF 6
ENDMDL
MODEL      113
REMARK 921   NORMALIZED FREE ENERGY PREDICTED BY IDOCK:   -5.55 KCAL/MOL
REMARK 922        TOTAL FREE ENERGY PREDICTED BY IDOCK:   -8.64 KCAL/MOL
REMARK 923 INTER-LIGAND FREE ENERGY PREDICTED BY IDOCK:   -7.84 KCAL/MOL
REMARK 924 INTRA-LIGAND FREE ENERGY PREDICTED BY IDOCK:   -0.80 KCAL/MOL
REMARK 927      BINDING AFFINITY PREDICTED BY RF-SCORE:    0.00 PKD
ROOT
HETATM    1  C   UNL     1      -8.083   5.106  64.849  1.00  0.00    -0.119 C  
HETATM    2  C   UNL     1      -7.642   6.527  65.162  1.00  0.00    -0.090 C  
ENDROOT
BRANCH   2   3
HETATM    3  O   UNL     1      -8.762   7.279  65.648  1.00  0.00    -0.143 OA 
BRANCH   3   4
HETATM    4  C   UNL     1      -8.446   8.478  66.234  1.00  0.00    -0.124 A  
HETATM    5  C   UNL     1      -8.954   8.687  67.516  1.00  0.00    -0.143 A  
HETATM    6  C   UNL     1      -8.834   9.937  68.137  1.00  0.00    -0.118 A  
HETATM    7  C   UNL     1      -8.202  11.005  67.476  1.00  0.00    -0.117 A  
HETATM    8  C   UNL     1      -7.581  10.742  66.246  1.00  0.00    -0.142 A  
HETATM    9  C   UNL     1      -7.696   9.487  65.632  1.00  0.00    -0.101 A  
BRANCH   7  10
HETATM   10  C   UNL     1      -8.374  12.432  67.971  1.00  0.00    -0.170 C  
BRANCH  10  11
HETATM   11  C   UNL     1      -9.065  13.453  67.095  1.00  0.00    -0.235 A  
HETATM   12  C   UNL     1      -8.599  14.775  67.100  1.00  0.00    -0.248 A  
HETATM   13  C   UNL     1      -9.194  15.800  66.320  1.00  0.00    -0.368 A  
HETATM   14 CL   UNL     1     -10.923  11.623  66.265  1.00  0.00    -0.334 Cl 
HETATM   15  C   UNL     1     -10.127  15.430  65.352  1.00  0.00    -0.394 A  
HETATM   16  C   UNL     1     -10.597  14.113  65.321  1.00  0.00    -0.387 A  
HETATM   17  C   UNL     1     -10.121  13.155  66.229  1.00  0.00    -0.285 A  
BRANCH  13  18
HETATM   18  C   UNL     1      -9.023  17.235  66.784  1.00  0.00    -0.250 C  
HETATM   19  C   UNL     1      -7.214  18.469  66.119  1.00  0.00    -0.266 C  
HETATM   20  C   UNL     1      -7.619  18.819  67.534  1.00  0.00    -0.229 C  
HETATM   21  O   UNL     1      -8.385  17.837  65.604  1.00  0.00    -0.451 OA 
HETATM   22  H   UNL     1     -11.498  19.204  65.769  1.00  0.00     0.000 HD 
HETATM   23  O   UNL     1      -8.126  17.509  67.924  1.00  0.00    -0.219 OA 
HETATM   24  C   UNL     1      -8.783  19.843  67.747  1.00  0.00    -0.317 C  
HETATM   25  O   UNL     1     -10.692  18.708  65.680  1.00  0.00    -0.555 OA 
HETATM   26  C   UNL     1     -10.143  19.139  67.985  1.00  0.00    -0.397 C  
HETATM   27  O   UNL     1      -8.821  20.785  66.676  1.00  0.00    -0.550 OA 
HETATM   28  H   UNL     1     -11.044  18.154  69.450  1.00  0.00     0.000 HD 
HETATM   29  H   UNL     1      -9.527  21.406  66.805  1.00  0.00     0.000 HD 
HETATM   30  O   UNL     1     -10.211  18.585  69.304  1.00  0.00    -0.248 OA 
HETATM   31  C   UNL     1     -10.352  18.053  66.931  1.00  0.00    -0.370 C  
BRANCH  20  32
HETATM   32  C   UNL     1      -6.369  19.414  68.220  1.00  0.00    -0.234 C  
HETATM   33  O   UNL     1      -6.035  20.728  67.765  1.00  0.00    -0.231 OA 
HETATM   34  H   UNL     1      -5.266  21.093  68.187  1.00  0.00     0.000 HD 
ENDBRANCH  20  32
ENDBRANCH  13  18
ENDBRANCH  10  11
ENDBRANCH   7  10
ENDBRANCH   3   4
ENDBRANCH   2   3
TORSDOF 6
ENDMDL
MODEL      114
REMARK 921   NORMALIZED FREE ENERGY PREDICTED BY IDOCK:   -5.55 KCAL/MOL
REMARK 922        TOTAL FREE ENERGY PREDICTED BY IDOCK:   -8.63 KCAL/MOL
REMARK 923 INTER-LIGAND FREE ENERGY PREDICTED BY IDOCK:   -7.41 KCAL/MOL
REMARK 924 INTRA-LIGAND FREE ENERGY PREDICTED BY IDOCK:   -1.22 KCAL/MOL
REMARK 927      BINDING AFFINITY PREDICTED BY RF-SCORE:    0.00 PKD
ROOT
HETATM    1  C   UNL     1     -11.356   6.341  69.423  1.00  0.00    -0.448 C  
HETATM    2  C   UNL     1     -10.955   7.372  70.467  1.00  0.00    -0.253 C  
ENDROOT
BRANCH   2   3
HETATM    3  O   UNL     1      -9.527   7.482  70.505  1.00  0.00    -0.164 OA 
BRANCH   3   4
HETATM    4  C   UNL     1      -8.994   8.429  69.667  1.00  0.00    -0.145 A  
HETATM    5  C   UNL     1      -9.173   9.758  70.048  1.00  0.00    -0.266 A  
HETATM    6  C   UNL     1      -8.818  10.803  69.185  1.00  0.00    -0.098 A  
HETATM    7  C   UNL     1      -8.278  10.529  67.917  1.00  0.00    -0.107 A  
HETATM    8  C   UNL     1      -7.980   9.195  67.602  1.00  0.00    -0.100 A  
HETATM    9  C   UNL     1      -8.330   8.152  68.473  1.00  0.00    -0.126 A  
BRANCH   7  10
HETATM   10  C   UNL     1      -8.222  11.610  66.849  1.00  0.00    -0.169 C  
BRANCH  10  11
HETATM   11  C   UNL     1      -9.306  12.663  66.788  1.00  0.00    -0.232 A  
HETATM   12  C   UNL     1      -8.935  14.015  66.792  1.00  0.00    -0.217 A  
HETATM   13  C   UNL     1      -9.884  15.069  66.750  1.00  0.00    -0.252 A  
HETATM   14 CL   UNL     1     -11.280  10.770  66.859  1.00  0.00    -0.209 Cl 
HETATM   15  C   UNL     1     -11.212  14.746  66.472  1.00  0.00    -0.342 A  
HETATM   16  C   UNL     1     -11.601  13.403  66.451  1.00  0.00    -0.381 A  
HETATM   17  C   UNL     1     -10.669  12.377  66.677  1.00  0.00    -0.235 A  
BRANCH  13  18
HETATM   18  C   UNL     1      -9.472  16.419  67.310  1.00  0.00    -0.227 C  
HETATM   19  C   UNL     1     -10.594  18.321  66.712  1.00  0.00    -0.312 C  
HETATM   20  C   UNL     1      -9.119  18.599  66.905  1.00  0.00    -0.294 C  
HETATM   21  O   UNL     1     -10.776  17.090  67.410  1.00  0.00    -0.318 OA 
HETATM   22  H   UNL     1      -9.758  16.567  70.616  1.00  0.00     0.000 HD 
HETATM   23  O   UNL     1      -8.617  17.295  66.486  1.00  0.00    -0.235 OA 
HETATM   24  C   UNL     1      -8.588  18.850  68.354  1.00  0.00    -0.346 C  
HETATM   25  O   UNL     1     -10.067  16.578  69.717  1.00  0.00    -0.163 OA 
HETATM   26  C   UNL     1      -7.995  17.567  68.989  1.00  0.00    -0.094 C  
HETATM   27  O   UNL     1      -9.601  19.455  69.158  1.00  0.00    -0.389 OA 
HETATM   28  H   UNL     1      -6.349  16.477  68.819  1.00  0.00     0.000 HD 
HETATM   29  H   UNL     1      -9.279  19.608  70.038  1.00  0.00     0.000 HD 
HETATM   30  O   UNL     1      -6.712  17.263  68.430  1.00  0.00    -0.169 OA 
HETATM   31  C   UNL     1      -8.962  16.401  68.792  1.00  0.00    -0.245 C  
BRANCH  20  32
HETATM   32  C   UNL     1      -8.794  19.867  66.082  1.00  0.00    -0.306 C  
HETATM   33  O   UNL     1      -8.813  21.071  66.854  1.00  0.00    -0.567 OA 
HETATM   34  H   UNL     1      -8.613  21.850  66.349  1.00  0.00     0.000 HD 
ENDBRANCH  20  32
ENDBRANCH  13  18
ENDBRANCH  10  11
ENDBRANCH   7  10
ENDBRANCH   3   4
ENDBRANCH   2   3
TORSDOF 6
ENDMDL
MODEL      115
REMARK 921   NORMALIZED FREE ENERGY PREDICTED BY IDOCK:   -5.54 KCAL/MOL
REMARK 922        TOTAL FREE ENERGY PREDICTED BY IDOCK:   -8.62 KCAL/MOL
REMARK 923 INTER-LIGAND FREE ENERGY PREDICTED BY IDOCK:   -7.14 KCAL/MOL
REMARK 924 INTRA-LIGAND FREE ENERGY PREDICTED BY IDOCK:   -1.48 KCAL/MOL
REMARK 927      BINDING AFFINITY PREDICTED BY RF-SCORE:    0.00 PKD
ROOT
HETATM    1  C   UNL     1      -7.812   7.177  74.417  1.00  0.00    -0.153 C  
HETATM    2  C   UNL     1      -6.602   7.306  73.506  1.00  0.00    -0.065 C  
ENDROOT
BRANCH   2   3
HETATM    3  O   UNL     1      -6.757   6.437  72.377  1.00  0.00    -0.065 OA 
BRANCH   3   4
HETATM    4  C   UNL     1      -7.604   6.898  71.401  1.00  0.00    -0.087 A  
HETATM    5  C   UNL     1      -7.468   8.241  71.053  1.00  0.00    -0.068 A  
HETATM    6  C   UNL     1      -8.389   8.853  70.193  1.00  0.00    -0.142 A  
HETATM    7  C   UNL     1      -9.470   8.125  69.669  1.00  0.00    -0.159 A  
HETATM    8  C   UNL     1      -9.518   6.745  69.921  1.00  0.00    -0.156 A  
HETATM    9  C   UNL     1      -8.589   6.135  70.776  1.00  0.00    -0.135 A  
BRANCH   7  10
HETATM   10  C   UNL     1     -10.654   8.841  69.039  1.00  0.00    -0.191 C  
BRANCH  10  11
HETATM   11  C   UNL     1     -11.189  10.106  69.670  1.00  0.00    -0.310 A  
HETATM   12  C   UNL     1     -11.129  11.302  68.941  1.00  0.00    -0.295 A  
HETATM   13  C   UNL     1     -11.595  12.538  69.458  1.00  0.00    -0.348 A  
HETATM   14 CL   UNL     1     -11.758   8.811  72.012  1.00  0.00    -0.429 Cl 
HETATM   15  C   UNL     1     -12.338  12.518  70.638  1.00  0.00    -0.369 A  
HETATM   16  C   UNL     1     -12.422  11.332  71.375  1.00  0.00    -0.392 A  
HETATM   17  C   UNL     1     -11.794  10.158  70.928  1.00  0.00    -0.374 A  
BRANCH  13  18
HETATM   18  C   UNL     1     -11.007  13.816  68.886  1.00  0.00    -0.252 C  
HETATM   19  C   UNL     1     -11.907  14.780  67.016  1.00  0.00    -0.271 C  
HETATM   20  C   UNL     1     -10.404  14.955  67.048  1.00  0.00    -0.264 C  
HETATM   21  O   UNL     1     -12.216  14.478  68.377  1.00  0.00    -0.251 OA 
HETATM   22  H   UNL     1     -11.176  16.360  71.015  1.00  0.00     0.000 HD 
HETATM   23  O   UNL     1     -10.076  13.717  67.745  1.00  0.00    -0.236 OA 
HETATM   24  C   UNL     1      -9.805  16.129  67.891  1.00  0.00    -0.235 C  
HETATM   25  O   UNL     1     -11.508  15.743  70.372  1.00  0.00    -0.304 OA 
HETATM   26  C   UNL     1      -9.353  15.664  69.298  1.00  0.00    -0.267 C  
HETATM   27  O   UNL     1     -10.713  17.229  67.929  1.00  0.00    -0.372 OA 
HETATM   28  H   UNL     1      -7.857  14.633  70.089  1.00  0.00     0.000 HD 
HETATM   29  H   UNL     1     -10.349  17.941  68.440  1.00  0.00     0.000 HD 
HETATM   30  O   UNL     1      -8.133  14.917  69.226  1.00  0.00    -0.172 OA 
HETATM   31  C   UNL     1     -10.459  14.833  69.946  1.00  0.00    -0.014 C  
BRANCH  20  32
HETATM   32  C   UNL     1      -9.952  15.177  65.586  1.00  0.00    -0.354 C  
HETATM   33  O   UNL     1      -9.424  16.483  65.342  1.00  0.00    -0.411 OA 
HETATM   34  H   UNL     1      -9.146  16.619  64.443  1.00  0.00     0.000 HD 
ENDBRANCH  20  32
ENDBRANCH  13  18
ENDBRANCH  10  11
ENDBRANCH   7  10
ENDBRANCH   3   4
ENDBRANCH   2   3
TORSDOF 6
ENDMDL
MODEL      116
REMARK 921   NORMALIZED FREE ENERGY PREDICTED BY IDOCK:   -5.52 KCAL/MOL
REMARK 922        TOTAL FREE ENERGY PREDICTED BY IDOCK:   -8.60 KCAL/MOL
REMARK 923 INTER-LIGAND FREE ENERGY PREDICTED BY IDOCK:   -7.28 KCAL/MOL
REMARK 924 INTRA-LIGAND FREE ENERGY PREDICTED BY IDOCK:   -1.32 KCAL/MOL
REMARK 927      BINDING AFFINITY PREDICTED BY RF-SCORE:    0.00 PKD
ROOT
HETATM    1  C   UNL     1      -7.440  19.600  68.263  1.00  0.00    -0.349 C  
HETATM    2  C   UNL     1      -8.187  18.942  67.113  1.00  0.00    -0.269 C  
ENDROOT
BRANCH   2   3
HETATM    3  O   UNL     1      -9.221  18.099  67.636  1.00  0.00    -0.256 OA 
BRANCH   3   4
HETATM    4  C   UNL     1      -8.971  16.753  67.554  1.00  0.00    -0.205 A  
HETATM    5  C   UNL     1      -9.292  16.141  66.342  1.00  0.00    -0.329 A  
HETATM    6  C   UNL     1      -9.234  14.748  66.208  1.00  0.00    -0.278 A  
HETATM    7  C   UNL     1      -8.856  13.940  67.295  1.00  0.00    -0.227 A  
HETATM    8  C   UNL     1      -8.409  14.577  68.463  1.00  0.00    -0.160 A  
HETATM    9  C   UNL     1      -8.460  15.972  68.590  1.00  0.00    -0.208 A  
BRANCH   7  10
HETATM   10  C   UNL     1      -9.127  12.445  67.280  1.00  0.00    -0.187 C  
BRANCH  10  11
HETATM   11  C   UNL     1     -10.114  11.850  68.258  1.00  0.00    -0.203 A  
HETATM   12  C   UNL     1      -9.684  10.826  69.114  1.00  0.00    -0.181 A  
HETATM   13  C   UNL     1     -10.545  10.202  70.054  1.00  0.00    -0.338 A  
HETATM   14 CL   UNL     1     -12.150  13.401  67.292  1.00  0.00    -0.386 Cl 
HETATM   15  C   UNL     1     -11.792  10.780  70.286  1.00  0.00    -0.438 A  
HETATM   16  C   UNL     1     -12.237  11.811  69.452  1.00  0.00    -0.219 A  
HETATM   17  C   UNL     1     -11.432  12.291  68.406  1.00  0.00    -0.307 A  
BRANCH  13  18
HETATM   18  C   UNL     1     -10.198   8.797  70.511  1.00  0.00    -0.202 C  
HETATM   19  C   UNL     1      -8.139   8.333  71.396  1.00  0.00    -0.125 C  
HETATM   20  C   UNL     1      -8.657   7.165  70.585  1.00  0.00    -0.143 C  
HETATM   21  O   UNL     1      -9.324   9.084  71.659  1.00  0.00    -0.265 OA 
HETATM   22  H   UNL     1     -12.161   7.738  72.972  1.00  0.00     0.000 HD 
HETATM   23  O   UNL     1      -9.420   7.929  69.606  1.00  0.00    -0.160 OA 
HETATM   24  C   UNL     1      -9.651   6.166  71.263  1.00  0.00    -0.171 C  
HETATM   25  O   UNL     1     -11.444   8.226  72.583  1.00  0.00    -0.395 OA 
HETATM   26  C   UNL     1     -11.128   6.500  70.934  1.00  0.00    -0.292 C  
HETATM   27  O   UNL     1      -9.395   6.081  72.664  1.00  0.00    -0.147 OA 
HETATM   28  H   UNL     1     -12.360   6.326  69.391  1.00  0.00     0.000 HD 
HETATM   29  H   UNL     1      -9.998   5.474  73.075  1.00  0.00     0.000 HD 
HETATM   30  O   UNL     1     -11.454   6.121  69.592  1.00  0.00    -0.429 OA 
HETATM   31  C   UNL     1     -11.380   7.991  71.151  1.00  0.00    -0.266 C  
BRANCH  20  32
HETATM   32  C   UNL     1      -7.422   6.343  70.151  1.00  0.00    -0.094 C  
HETATM   33  O   UNL     1      -6.831   5.592  71.215  1.00  0.00    -0.053 OA 
HETATM   34  H   UNL     1      -6.072   5.087  70.948  1.00  0.00     0.000 HD 
ENDBRANCH  20  32
ENDBRANCH  13  18
ENDBRANCH  10  11
ENDBRANCH   7  10
ENDBRANCH   3   4
ENDBRANCH   2   3
TORSDOF 6
ENDMDL
MODEL      117
REMARK 921   NORMALIZED FREE ENERGY PREDICTED BY IDOCK:   -5.52 KCAL/MOL
REMARK 922        TOTAL FREE ENERGY PREDICTED BY IDOCK:   -8.60 KCAL/MOL
REMARK 923 INTER-LIGAND FREE ENERGY PREDICTED BY IDOCK:   -7.38 KCAL/MOL
REMARK 924 INTRA-LIGAND FREE ENERGY PREDICTED BY IDOCK:   -1.22 KCAL/MOL
REMARK 927      BINDING AFFINITY PREDICTED BY RF-SCORE:    0.00 PKD
ROOT
HETATM    1  C   UNL     1      -6.519  19.964  68.168  1.00  0.00    -0.290 C  
HETATM    2  C   UNL     1      -7.257  18.658  68.419  1.00  0.00    -0.280 C  
ENDROOT
BRANCH   2   3
HETATM    3  O   UNL     1      -8.620  18.791  67.996  1.00  0.00    -0.282 OA 
BRANCH   3   4
HETATM    4  C   UNL     1      -9.348  17.629  68.009  1.00  0.00    -0.274 A  
HETATM    5  C   UNL     1      -8.841  16.578  67.246  1.00  0.00    -0.206 A  
HETATM    6  C   UNL     1      -9.588  15.408  67.054  1.00  0.00    -0.227 A  
HETATM    7  C   UNL     1     -10.866  15.275  67.625  1.00  0.00    -0.295 A  
HETATM    8  C   UNL     1     -11.305  16.283  68.497  1.00  0.00    -0.330 A  
HETATM    9  C   UNL     1     -10.550  17.448  68.693  1.00  0.00    -0.318 A  
BRANCH   7  10
HETATM   10  C   UNL     1     -11.819  14.193  67.146  1.00  0.00    -0.454 C  
BRANCH  10  11
HETATM   11  C   UNL     1     -11.393  13.250  66.043  1.00  0.00    -0.329 A  
HETATM   12  C   UNL     1     -10.780  12.039  66.389  1.00  0.00    -0.294 A  
HETATM   13  C   UNL     1     -10.337  11.100  65.421  1.00  0.00    -0.331 A  
HETATM   14 CL   UNL     1     -12.179  15.014  64.104  1.00  0.00    -0.381 Cl 
HETATM   15  C   UNL     1     -10.727  11.291  64.096  1.00  0.00    -0.436 A  
HETATM   16  C   UNL     1     -11.352  12.489  63.730  1.00  0.00    -0.534 A  
HETATM   17  C   UNL     1     -11.617  13.485  64.684  1.00  0.00    -0.368 A  
BRANCH  13  18
HETATM   18  C   UNL     1      -9.229  10.141  65.816  1.00  0.00    -0.178 C  
HETATM   19  C   UNL     1      -9.692   8.267  67.045  1.00  0.00    -0.211 C  
HETATM   20  C   UNL     1      -8.343   8.842  67.419  1.00  0.00    -0.109 C  
HETATM   21  O   UNL     1      -9.942   8.856  65.769  1.00  0.00    -0.188 OA 
HETATM   22  H   UNL     1      -7.727   8.779  63.185  1.00  0.00     0.000 HD 
HETATM   23  O   UNL     1      -8.652  10.245  67.170  1.00  0.00    -0.125 OA 
HETATM   24  C   UNL     1      -7.104   8.481  66.535  1.00  0.00    -0.079 C  
HETATM   25  O   UNL     1      -8.417   8.888  63.829  1.00  0.00    -0.186 OA 
HETATM   26  C   UNL     1      -6.802   9.575  65.479  1.00  0.00    -0.085 C  
HETATM   27  O   UNL     1      -7.260   7.182  65.964  1.00  0.00    -0.071 OA 
HETATM   28  H   UNL     1      -6.016  11.394  65.441  1.00  0.00     0.000 HD 
HETATM   29  H   UNL     1      -6.508   6.963  65.428  1.00  0.00     0.000 HD 
HETATM   30  O   UNL     1      -6.201  10.723  66.088  1.00  0.00    -0.112 OA 
HETATM   31  C   UNL     1      -8.091   9.960  64.754  1.00  0.00    -0.151 C  
BRANCH  20  32
HETATM   32  C   UNL     1      -8.031   8.347  68.850  1.00  0.00    -0.115 C  
HETATM   33  O   UNL     1      -8.710   9.083  69.871  1.00  0.00    -0.137 OA 
HETATM   34  H   UNL     1      -8.518   8.779  70.751  1.00  0.00     0.000 HD 
ENDBRANCH  20  32
ENDBRANCH  13  18
ENDBRANCH  10  11
ENDBRANCH   7  10
ENDBRANCH   3   4
ENDBRANCH   2   3
TORSDOF 6
ENDMDL
MODEL      118
REMARK 921   NORMALIZED FREE ENERGY PREDICTED BY IDOCK:   -5.51 KCAL/MOL
REMARK 922        TOTAL FREE ENERGY PREDICTED BY IDOCK:   -8.58 KCAL/MOL
REMARK 923 INTER-LIGAND FREE ENERGY PREDICTED BY IDOCK:   -7.36 KCAL/MOL
REMARK 924 INTRA-LIGAND FREE ENERGY PREDICTED BY IDOCK:   -1.22 KCAL/MOL
REMARK 927      BINDING AFFINITY PREDICTED BY RF-SCORE:    0.00 PKD
ROOT
HETATM    1  C   UNL     1      -6.323  19.785  69.041  1.00  0.00    -0.341 C  
HETATM    2  C   UNL     1      -7.259  18.602  69.234  1.00  0.00    -0.125 C  
ENDROOT
BRANCH   2   3
HETATM    3  O   UNL     1      -8.049  18.419  68.053  1.00  0.00    -0.260 OA 
BRANCH   3   4
HETATM    4  C   UNL     1      -9.004  17.438  68.139  1.00  0.00    -0.260 A  
HETATM    5  C   UNL     1      -8.535  16.126  68.190  1.00  0.00    -0.175 A  
HETATM    6  C   UNL     1      -9.424  15.046  68.110  1.00  0.00    -0.196 A  
HETATM    7  C   UNL     1     -10.805  15.267  67.973  1.00  0.00    -0.288 A  
HETATM    8  C   UNL     1     -11.272  16.587  68.057  1.00  0.00    -0.202 A  
HETATM    9  C   UNL     1     -10.380  17.664  68.146  1.00  0.00    -0.386 A  
BRANCH   7  10
HETATM   10  C   UNL     1     -11.729  14.142  67.533  1.00  0.00    -0.418 C  
BRANCH  10  11
HETATM   11  C   UNL     1     -11.182  12.998  66.710  1.00  0.00    -0.333 A  
HETATM   12  C   UNL     1     -11.037  11.741  67.313  1.00  0.00    -0.342 A  
HETATM   13  C   UNL     1     -10.520  10.615  66.622  1.00  0.00    -0.296 A  
HETATM   14 CL   UNL     1     -10.791  14.620  64.541  1.00  0.00    -0.303 Cl 
HETATM   15  C   UNL     1     -10.362  10.709  65.240  1.00  0.00    -0.321 A  
HETATM   16  C   UNL     1     -10.514  11.952  64.615  1.00  0.00    -0.340 A  
HETATM   17  C   UNL     1     -10.851  13.096  65.356  1.00  0.00    -0.282 A  
BRANCH  13  18
HETATM   18  C   UNL     1      -9.885   9.507  67.442  1.00  0.00    -0.170 C  
HETATM   19  C   UNL     1     -10.906   7.469  67.640  1.00  0.00    -0.127 C  
HETATM   20  C   UNL     1     -10.190   7.843  68.919  1.00  0.00    -0.205 C  
HETATM   21  O   UNL     1     -10.291   8.321  66.674  1.00  0.00    -0.308 OA 
HETATM   22  H   UNL     1      -6.923   8.583  66.257  1.00  0.00     0.000 HD 
HETATM   23  O   UNL     1     -10.358   9.288  68.823  1.00  0.00    -0.201 OA 
HETATM   24  C   UNL     1      -8.654   7.566  69.025  1.00  0.00    -0.136 C  
HETATM   25  O   UNL     1      -7.872   8.617  66.288  1.00  0.00    -0.098 OA 
HETATM   26  C   UNL     1      -7.810   8.822  68.687  1.00  0.00    -0.103 C  
HETATM   27  O   UNL     1      -8.297   6.426  68.244  1.00  0.00    -0.115 OA 
HETATM   28  H   UNL     1      -7.331  10.540  69.552  1.00  0.00     0.000 HD 
HETATM   29  H   UNL     1      -7.365   6.259  68.309  1.00  0.00     0.000 HD 
HETATM   30  O   UNL     1      -7.849   9.770  69.760  1.00  0.00    -0.119 OA 
HETATM   31  C   UNL     1      -8.319   9.450  67.391  1.00  0.00    -0.125 C  
BRANCH  20  32
HETATM   32  C   UNL     1     -10.868   7.047  70.057  1.00  0.00    -0.261 C  
HETATM   33  O   UNL     1     -12.235   7.407  70.273  1.00  0.00    -0.526 OA 
HETATM   34  H   UNL     1     -12.652   6.917  70.972  1.00  0.00     0.000 HD 
ENDBRANCH  20  32
ENDBRANCH  13  18
ENDBRANCH  10  11
ENDBRANCH   7  10
ENDBRANCH   3   4
ENDBRANCH   2   3
TORSDOF 6
ENDMDL
MODEL      119
REMARK 921   NORMALIZED FREE ENERGY PREDICTED BY IDOCK:   -5.51 KCAL/MOL
REMARK 922        TOTAL FREE ENERGY PREDICTED BY IDOCK:   -8.58 KCAL/MOL
REMARK 923 INTER-LIGAND FREE ENERGY PREDICTED BY IDOCK:   -7.44 KCAL/MOL
REMARK 924 INTRA-LIGAND FREE ENERGY PREDICTED BY IDOCK:   -1.14 KCAL/MOL
REMARK 927      BINDING AFFINITY PREDICTED BY RF-SCORE:    0.00 PKD
ROOT
HETATM    1  C   UNL     1      -8.027   7.254  63.686  1.00  0.00    -0.073 C  
HETATM    2  C   UNL     1      -8.127   8.467  64.597  1.00  0.00    -0.153 C  
ENDROOT
BRANCH   2   3
HETATM    3  O   UNL     1      -9.184   9.322  64.141  1.00  0.00    -0.110 OA 
BRANCH   3   4
HETATM    4  C   UNL     1      -9.682  10.184  65.084  1.00  0.00    -0.304 A  
HETATM    5  C   UNL     1      -9.711  11.532  64.730  1.00  0.00    -0.250 A  
HETATM    6  C   UNL     1     -10.042  12.512  65.675  1.00  0.00    -0.285 A  
HETATM    7  C   UNL     1     -10.348  12.153  66.999  1.00  0.00    -0.232 A  
HETATM    8  C   UNL     1     -10.445  10.787  67.305  1.00  0.00    -0.282 A  
HETATM    9  C   UNL     1     -10.121   9.809  66.353  1.00  0.00    -0.313 A  
BRANCH   7  10
HETATM   10  C   UNL     1     -10.358  13.199  68.103  1.00  0.00    -0.247 C  
BRANCH  10  11
HETATM   11  C   UNL     1      -9.133  14.053  68.339  1.00  0.00    -0.191 A  
HETATM   12  C   UNL     1      -9.238  15.442  68.182  1.00  0.00    -0.186 A  
HETATM   13  C   UNL     1      -8.138  16.319  68.371  1.00  0.00    -0.183 A  
HETATM   14 CL   UNL     1      -7.572  11.854  68.800  1.00  0.00    -0.117 Cl 
HETATM   15  C   UNL     1      -6.979  15.802  68.947  1.00  0.00    -0.135 A  
HETATM   16  C   UNL     1      -6.858  14.420  69.125  1.00  0.00    -0.120 A  
HETATM   17  C   UNL     1      -7.898  13.551  68.759  1.00  0.00    -0.029 A  
BRANCH  13  18
HETATM   18  C   UNL     1      -8.170  17.662  67.663  1.00  0.00    -0.224 C  
HETATM   19  C   UNL     1      -9.961  19.066  67.905  1.00  0.00    -0.358 C  
HETATM   20  C   UNL     1      -9.386  19.155  66.509  1.00  0.00    -0.348 C  
HETATM   21  O   UNL     1      -8.892  18.480  68.648  1.00  0.00    -0.326 OA 
HETATM   22  H   UNL     1      -5.701  19.665  68.622  1.00  0.00     0.000 HD 
HETATM   23  O   UNL     1      -8.922  17.777  66.398  1.00  0.00    -0.304 OA 
HETATM   24  C   UNL     1      -8.146  20.077  66.267  1.00  0.00    -0.288 C  
HETATM   25  O   UNL     1      -6.541  19.226  68.698  1.00  0.00    -0.247 OA 
HETATM   26  C   UNL     1      -6.814  19.286  66.305  1.00  0.00    -0.215 C  
HETATM   27  O   UNL     1      -8.165  21.184  67.168  1.00  0.00    -0.577 OA 
HETATM   28  H   UNL     1      -5.824  18.030  65.134  1.00  0.00     0.000 HD 
HETATM   29  H   UNL     1      -7.412  21.744  67.021  1.00  0.00     0.000 HD 
HETATM   30  O   UNL     1      -6.640  18.515  65.111  1.00  0.00    -0.479 OA 
HETATM   31  C   UNL     1      -6.786  18.385  67.539  1.00  0.00    -0.198 C  
BRANCH  20  32
HETATM   32  C   UNL     1     -10.518  19.678  65.595  1.00  0.00    -0.349 C  
HETATM   33  O   UNL     1     -11.264  18.640  64.955  1.00  0.00    -0.314 OA 
HETATM   34  H   UNL     1     -11.959  18.962  64.393  1.00  0.00     0.000 HD 
ENDBRANCH  20  32
ENDBRANCH  13  18
ENDBRANCH  10  11
ENDBRANCH   7  10
ENDBRANCH   3   4
ENDBRANCH   2   3
TORSDOF 6
ENDMDL
MODEL      120
REMARK 921   NORMALIZED FREE ENERGY PREDICTED BY IDOCK:   -5.48 KCAL/MOL
REMARK 922        TOTAL FREE ENERGY PREDICTED BY IDOCK:   -8.54 KCAL/MOL
REMARK 923 INTER-LIGAND FREE ENERGY PREDICTED BY IDOCK:   -6.96 KCAL/MOL
REMARK 924 INTRA-LIGAND FREE ENERGY PREDICTED BY IDOCK:   -1.58 KCAL/MOL
REMARK 927      BINDING AFFINITY PREDICTED BY RF-SCORE:    0.00 PKD
ROOT
HETATM    1  C   UNL     1     -12.368  11.844  63.424  1.00  0.00    -0.577 C  
HETATM    2  C   UNL     1     -12.333  13.359  63.549  1.00  0.00    -0.326 C  
ENDROOT
BRANCH   2   3
HETATM    3  O   UNL     1     -12.880  13.746  64.816  1.00  0.00    -0.685 OA 
BRANCH   3   4
HETATM    4  C   UNL     1     -11.981  14.299  65.692  1.00  0.00    -0.386 A  
HETATM    5  C   UNL     1     -10.922  15.005  65.123  1.00  0.00    -0.417 A  
HETATM    6  C   UNL     1      -9.861  15.464  65.915  1.00  0.00    -0.387 A  
HETATM    7  C   UNL     1      -9.845  15.219  67.299  1.00  0.00    -0.220 A  
HETATM    8  C   UNL     1     -10.978  14.627  67.875  1.00  0.00    -0.283 A  
HETATM    9  C   UNL     1     -12.041  14.175  67.080  1.00  0.00    -0.449 A  
BRANCH   7  10
HETATM   10  C   UNL     1      -8.564  15.388  68.100  1.00  0.00    -0.152 C  
BRANCH  10  11
HETATM   11  C   UNL     1      -7.615  14.221  68.256  1.00  0.00    -0.130 A  
HETATM   12  C   UNL     1      -7.803  13.086  67.457  1.00  0.00    -0.178 A  
HETATM   13  C   UNL     1      -6.970  11.941  67.545  1.00  0.00    -0.123 A  
HETATM   14 CL   UNL     1      -6.282  15.458  70.301  1.00  0.00    -0.110 Cl 
HETATM   15  C   UNL     1      -5.796  12.039  68.291  1.00  0.00    -0.051 A  
HETATM   16  C   UNL     1      -5.582  13.169  69.087  1.00  0.00    -0.073 A  
HETATM   17  C   UNL     1      -6.517  14.216  69.121  1.00  0.00    -0.111 A  
BRANCH  13  18
HETATM   18  C   UNL     1      -7.543  10.608  67.096  1.00  0.00    -0.099 C  
HETATM   19  C   UNL     1      -9.805  10.310  66.924  1.00  0.00    -0.197 C  
HETATM   20  C   UNL     1      -9.125   9.042  67.391  1.00  0.00    -0.131 C  
HETATM   21  O   UNL     1      -8.729  11.051  66.349  1.00  0.00    -0.161 OA 
HETATM   22  H   UNL     1      -6.592   9.783  64.023  1.00  0.00     0.000 HD 
HETATM   23  O   UNL     1      -8.028   9.665  68.123  1.00  0.00    -0.099 OA 
HETATM   24  C   UNL     1      -8.484   8.098  66.320  1.00  0.00    -0.131 C  
HETATM   25  O   UNL     1      -7.103  10.244  64.678  1.00  0.00    -0.136 OA 
HETATM   26  C   UNL     1      -6.963   8.349  66.158  1.00  0.00    -0.072 C  
HETATM   27  O   UNL     1      -9.200   8.184  65.089  1.00  0.00    -0.375 OA 
HETATM   28  H   UNL     1      -5.300   7.962  67.165  1.00  0.00     0.000 HD 
HETATM   29  H   UNL     1      -8.810   7.611  64.439  1.00  0.00     0.000 HD 
HETATM   30  O   UNL     1      -6.232   7.808  67.265  1.00  0.00    -0.050 OA 
HETATM   31  C   UNL     1      -6.700   9.847  66.016  1.00  0.00    -0.094 C  
BRANCH  20  32
HETATM   32  C   UNL     1     -10.195   8.212  68.136  1.00  0.00    -0.209 C  
HETATM   33  O   UNL     1     -11.137   7.579  67.266  1.00  0.00    -0.551 OA 
HETATM   34  H   UNL     1     -11.795   7.069  67.724  1.00  0.00     0.000 HD 
ENDBRANCH  20  32
ENDBRANCH  13  18
ENDBRANCH  10  11
ENDBRANCH   7  10
ENDBRANCH   3   4
ENDBRANCH   2   3
TORSDOF 6
ENDMDL
MODEL      121
REMARK 921   NORMALIZED FREE ENERGY PREDICTED BY IDOCK:   -5.45 KCAL/MOL
REMARK 922        TOTAL FREE ENERGY PREDICTED BY IDOCK:   -8.50 KCAL/MOL
REMARK 923 INTER-LIGAND FREE ENERGY PREDICTED BY IDOCK:   -7.33 KCAL/MOL
REMARK 924 INTRA-LIGAND FREE ENERGY PREDICTED BY IDOCK:   -1.17 KCAL/MOL
REMARK 927      BINDING AFFINITY PREDICTED BY RF-SCORE:    0.00 PKD
ROOT
HETATM    1  C   UNL     1      -6.443  19.924  69.862  1.00  0.00    -0.372 C  
HETATM    2  C   UNL     1      -6.575  19.185  68.540  1.00  0.00    -0.255 C  
ENDROOT
BRANCH   2   3
HETATM    3  O   UNL     1      -7.911  18.686  68.402  1.00  0.00    -0.304 OA 
BRANCH   3   4
HETATM    4  C   UNL     1      -8.005  17.386  67.975  1.00  0.00    -0.224 A  
HETATM    5  C   UNL     1      -8.557  17.193  66.709  1.00  0.00    -0.270 A  
HETATM    6  C   UNL     1      -8.852  15.904  66.247  1.00  0.00    -0.386 A  
HETATM    7  C   UNL     1      -8.600  14.781  67.054  1.00  0.00    -0.260 A  
HETATM    8  C   UNL     1      -7.923  14.980  68.267  1.00  0.00    -0.128 A  
HETATM    9  C   UNL     1      -7.622  16.272  68.722  1.00  0.00    -0.199 A  
BRANCH   7  10
HETATM   10  C   UNL     1      -9.229  13.436  66.727  1.00  0.00    -0.242 C  
BRANCH  10  11
HETATM   11  C   UNL     1     -10.120  12.757  67.742  1.00  0.00    -0.224 A  
HETATM   12  C   UNL     1      -9.627  11.643  68.437  1.00  0.00    -0.195 A  
HETATM   13  C   UNL     1     -10.398  10.937  69.397  1.00  0.00    -0.174 A  
HETATM   14 CL   UNL     1     -12.209  14.428  67.167  1.00  0.00    -0.366 Cl 
HETATM   15  C   UNL     1     -11.598  11.505  69.822  1.00  0.00    -0.401 A  
HETATM   16  C   UNL     1     -12.103  12.624  69.150  1.00  0.00    -0.191 A  
HETATM   17  C   UNL     1     -11.403  13.199  68.077  1.00  0.00    -0.292 A  
BRANCH  13  18
HETATM   18  C   UNL     1     -10.039   9.487  69.669  1.00  0.00    -0.212 C  
HETATM   19  C   UNL     1      -8.963   8.235  68.085  1.00  0.00    -0.139 C  
HETATM   20  C   UNL     1      -9.939   7.390  68.874  1.00  0.00    -0.169 C  
HETATM   21  O   UNL     1      -8.773   9.369  68.931  1.00  0.00    -0.127 OA 
HETATM   22  H   UNL     1      -7.946   9.151  72.225  1.00  0.00     0.000 HD 
HETATM   23  O   UNL     1     -10.924   8.429  69.145  1.00  0.00    -0.084 OA 
HETATM   24  C   UNL     1      -9.485   6.817  70.257  1.00  0.00    -0.162 C  
HETATM   25  O   UNL     1      -8.196   9.346  71.329  1.00  0.00    -0.315 OA 
HETATM   26  C   UNL     1      -9.954   7.703  71.438  1.00  0.00    -0.181 C  
HETATM   27  O   UNL     1      -8.077   6.580  70.260  1.00  0.00    -0.116 OA 
HETATM   28  H   UNL     1     -11.643   8.079  72.404  1.00  0.00     0.000 HD 
HETATM   29  H   UNL     1      -7.802   6.232  71.099  1.00  0.00     0.000 HD 
HETATM   30  O   UNL     1     -11.356   7.536  71.680  1.00  0.00    -0.244 OA 
HETATM   31  C   UNL     1      -9.626   9.166  71.146  1.00  0.00    -0.277 C  
BRANCH  20  32
HETATM   32  C   UNL     1     -10.298   6.179  67.983  1.00  0.00    -0.199 C  
HETATM   33  O   UNL     1     -11.554   6.314  67.312  1.00  0.00    -0.621 OA 
HETATM   34  H   UNL     1     -11.775   5.569  66.765  1.00  0.00     0.000 HD 
ENDBRANCH  20  32
ENDBRANCH  13  18
ENDBRANCH  10  11
ENDBRANCH   7  10
ENDBRANCH   3   4
ENDBRANCH   2   3
TORSDOF 6
ENDMDL
MODEL      122
REMARK 921   NORMALIZED FREE ENERGY PREDICTED BY IDOCK:   -5.43 KCAL/MOL
REMARK 922        TOTAL FREE ENERGY PREDICTED BY IDOCK:   -8.48 KCAL/MOL
REMARK 923 INTER-LIGAND FREE ENERGY PREDICTED BY IDOCK:   -7.00 KCAL/MOL
REMARK 924 INTRA-LIGAND FREE ENERGY PREDICTED BY IDOCK:   -1.48 KCAL/MOL
REMARK 927      BINDING AFFINITY PREDICTED BY RF-SCORE:    0.00 PKD
ROOT
HETATM    1  C   UNL     1     -13.020  10.960  71.703  1.00  0.00    -0.569 C  
HETATM    2  C   UNL     1     -13.707   9.630  71.970  1.00  0.00    -0.316 C  
ENDROOT
BRANCH   2   3
HETATM    3  O   UNL     1     -12.897   8.842  72.852  1.00  0.00    -0.321 OA 
BRANCH   3   4
HETATM    4  C   UNL     1     -12.078   7.933  72.232  1.00  0.00    -0.315 A  
HETATM    5  C   UNL     1     -10.744   7.931  72.637  1.00  0.00    -0.411 A  
HETATM    6  C   UNL     1      -9.792   7.163  71.955  1.00  0.00    -0.172 A  
HETATM    7  C   UNL     1     -10.164   6.384  70.846  1.00  0.00    -0.226 A  
HETATM    8  C   UNL     1     -11.528   6.292  70.534  1.00  0.00    -0.407 A  
HETATM    9  C   UNL     1     -12.480   7.056  71.225  1.00  0.00    -0.430 A  
BRANCH   7  10
HETATM   10  C   UNL     1      -9.111   5.839  69.894  1.00  0.00    -0.159 C  
BRANCH  10  11
HETATM   11  C   UNL     1      -9.011   6.390  68.489  1.00  0.00    -0.125 A  
HETATM   12  C   UNL     1      -8.801   7.765  68.316  1.00  0.00    -0.129 A  
HETATM   13  C   UNL     1      -8.707   8.371  67.036  1.00  0.00    -0.132 A  
HETATM   14 CL   UNL     1      -9.515   3.936  67.389  1.00  0.00    -0.225 Cl 
HETATM   15  C   UNL     1      -8.597   7.538  65.923  1.00  0.00    -0.165 A  
HETATM   16  C   UNL     1      -8.791   6.161  66.075  1.00  0.00    -0.160 A  
HETATM   17  C   UNL     1      -9.065   5.605  67.335  1.00  0.00    -0.110 A  
BRANCH  13  18
HETATM   18  C   UNL     1      -9.041   9.847  66.922  1.00  0.00    -0.142 C  
HETATM   19  C   UNL     1     -11.006  10.528  65.966  1.00  0.00     0.174 C  
HETATM   20  C   UNL     1      -9.886  11.495  65.652  1.00  0.00    -0.236 C  
HETATM   21  O   UNL     1     -10.500   9.818  67.097  1.00  0.00    -0.243 OA 
HETATM   22  H   UNL     1      -9.265  11.334  69.883  1.00  0.00     0.000 HD 
HETATM   23  O   UNL     1      -8.792  10.532  65.639  1.00  0.00    -0.168 OA 
HETATM   24  C   UNL     1      -9.522  12.588  66.711  1.00  0.00    -0.231 C  
HETATM   25  O   UNL     1      -9.562  10.794  69.159  1.00  0.00    -0.204 OA 
HETATM   26  C   UNL     1      -8.329  12.160  67.604  1.00  0.00    -0.163 C  
HETATM   27  O   UNL     1     -10.677  12.959  67.462  1.00  0.00    -0.223 OA 
HETATM   28  H   UNL     1      -6.362  11.990  67.435  1.00  0.00     0.000 HD 
HETATM   29  H   UNL     1     -10.456  13.622  68.105  1.00  0.00     0.000 HD 
HETATM   30  O   UNL     1      -7.092  12.252  66.888  1.00  0.00    -0.081 OA 
HETATM   31  C   UNL     1      -8.553  10.738  68.115  1.00  0.00    -0.129 C  
BRANCH  20  32
HETATM   32  C   UNL     1     -10.293  12.241  64.361  1.00  0.00    -0.331 C  
HETATM   33  O   UNL     1      -9.292  12.206  63.340  1.00  0.00    -0.651 OA 
HETATM   34  H   UNL     1      -9.542  12.665  62.546  1.00  0.00     0.000 HD 
ENDBRANCH  20  32
ENDBRANCH  13  18
ENDBRANCH  10  11
ENDBRANCH   7  10
ENDBRANCH   3   4
ENDBRANCH   2   3
TORSDOF 6
ENDMDL
MODEL      123
REMARK 921   NORMALIZED FREE ENERGY PREDICTED BY IDOCK:   -5.43 KCAL/MOL
REMARK 922        TOTAL FREE ENERGY PREDICTED BY IDOCK:   -8.47 KCAL/MOL
REMARK 923 INTER-LIGAND FREE ENERGY PREDICTED BY IDOCK:   -7.32 KCAL/MOL
REMARK 924 INTRA-LIGAND FREE ENERGY PREDICTED BY IDOCK:   -1.14 KCAL/MOL
REMARK 927      BINDING AFFINITY PREDICTED BY RF-SCORE:    0.00 PKD
ROOT
HETATM    1  C   UNL     1     -14.404  15.182  71.848  1.00  0.00    -0.693 C  
HETATM    2  C   UNL     1     -13.739  13.928  72.394  1.00  0.00    -0.576 C  
ENDROOT
BRANCH   2   3
HETATM    3  O   UNL     1     -12.655  13.550  71.537  1.00  0.00    -0.331 OA 
BRANCH   3   4
HETATM    4  C   UNL     1     -12.593  12.214  71.234  1.00  0.00    -0.238 A  
HETATM    5  C   UNL     1     -13.323  11.361  72.060  1.00  0.00    -0.388 A  
HETATM    6  C   UNL     1     -13.197   9.971  71.943  1.00  0.00    -0.557 A  
HETATM    7  C   UNL     1     -12.327   9.410  70.992  1.00  0.00    -0.332 A  
HETATM    8  C   UNL     1     -11.703  10.275  70.081  1.00  0.00    -0.364 A  
HETATM    9  C   UNL     1     -11.839  11.666  70.197  1.00  0.00    -0.428 A  
BRANCH   7  10
HETATM   10  C   UNL     1     -11.912   7.951  71.086  1.00  0.00    -0.304 C  
BRANCH  10  11
HETATM   11  C   UNL     1     -10.485   7.554  70.785  1.00  0.00    -0.217 A  
HETATM   12  C   UNL     1     -10.131   7.256  69.462  1.00  0.00    -0.182 A  
HETATM   13  C   UNL     1      -8.819   6.863  69.091  1.00  0.00    -0.134 A  
HETATM   14 CL   UNL     1      -9.798   7.660  73.432  1.00  0.00    -0.349 Cl 
HETATM   15  C   UNL     1      -7.802   6.995  70.035  1.00  0.00    -0.113 A  
HETATM   16  C   UNL     1      -8.131   7.304  71.359  1.00  0.00    -0.102 A  
HETATM   17  C   UNL     1      -9.466   7.512  71.741  1.00  0.00    -0.145 A  
BRANCH  13  18
HETATM   18  C   UNL     1      -8.654   6.044  67.823  1.00  0.00    -0.106 C  
HETATM   19  C   UNL     1      -6.736   6.184  66.584  1.00  0.00    -0.060 C  
HETATM   20  C   UNL     1      -7.943   5.988  65.694  1.00  0.00    -0.116 C  
HETATM   21  O   UNL     1      -7.213   5.757  67.860  1.00  0.00    -0.070 OA 
HETATM   22  H   UNL     1      -8.762   2.775  68.398  1.00  0.00     0.000 HD 
HETATM   23  O   UNL     1      -8.915   6.692  66.523  1.00  0.00    -0.135 OA 
HETATM   24  C   UNL     1      -8.488   4.538  65.480  1.00  0.00    -0.121 C  
HETATM   25  O   UNL     1      -8.367   3.639  68.376  1.00  0.00    -0.080 OA 
HETATM   26  C   UNL     1      -9.668   4.212  66.431  1.00  0.00    -0.208 C  
HETATM   27  O   UNL     1      -7.425   3.589  65.562  1.00  0.00    -0.074 OA 
HETATM   28  H   UNL     1     -11.590   4.668  66.588  1.00  0.00     0.000 HD 
HETATM   29  H   UNL     1      -7.756   2.709  65.432  1.00  0.00     0.000 HD 
HETATM   30  O   UNL     1     -10.867   4.868  66.005  1.00  0.00    -0.301 OA 
HETATM   31  C   UNL     1      -9.306   4.619  67.859  1.00  0.00    -0.134 C  
BRANCH  20  32
HETATM   32  C   UNL     1      -7.560   6.533  64.299  1.00  0.00    -0.100 C  
HETATM   33  O   UNL     1      -8.487   7.491  63.783  1.00  0.00    -0.367 OA 
HETATM   34  H   UNL     1      -8.251   7.825  62.925  1.00  0.00     0.000 HD 
ENDBRANCH  20  32
ENDBRANCH  13  18
ENDBRANCH  10  11
ENDBRANCH   7  10
ENDBRANCH   3   4
ENDBRANCH   2   3
TORSDOF 6
ENDMDL
MODEL      124
REMARK 921   NORMALIZED FREE ENERGY PREDICTED BY IDOCK:   -5.42 KCAL/MOL
REMARK 922        TOTAL FREE ENERGY PREDICTED BY IDOCK:   -8.45 KCAL/MOL
REMARK 923 INTER-LIGAND FREE ENERGY PREDICTED BY IDOCK:   -7.35 KCAL/MOL
REMARK 924 INTRA-LIGAND FREE ENERGY PREDICTED BY IDOCK:   -1.10 KCAL/MOL
REMARK 927      BINDING AFFINITY PREDICTED BY RF-SCORE:    0.00 PKD
ROOT
HETATM    1  C   UNL     1      -7.364  14.653  67.868  1.00  0.00    -0.164 C  
HETATM    2  C   UNL     1      -8.806  14.539  67.400  1.00  0.00    -0.198 C  
ENDROOT
BRANCH   2   3
HETATM    3  O   UNL     1      -9.676  15.102  68.390  1.00  0.00    -0.203 OA 
BRANCH   3   4
HETATM    4  C   UNL     1     -10.592  14.230  68.922  1.00  0.00    -0.245 A  
HETATM    5  C   UNL     1     -11.218  14.638  70.099  1.00  0.00    -0.230 A  
HETATM    6  C   UNL     1     -12.041  13.758  70.813  1.00  0.00    -0.395 A  
HETATM    7  C   UNL     1     -12.247  12.444  70.358  1.00  0.00    -0.370 A  
HETATM    8  C   UNL     1     -11.720  12.091  69.106  1.00  0.00    -0.389 A  
HETATM    9  C   UNL     1     -10.903  12.979  68.391  1.00  0.00    -0.280 A  
BRANCH   7  10
HETATM   10  C   UNL     1     -12.830  11.387  71.281  1.00  0.00    -0.481 C  
BRANCH  10  11
HETATM   11  C   UNL     1     -12.134  10.053  71.430  1.00  0.00    -0.498 A  
HETATM   12  C   UNL     1     -10.803   9.934  71.007  1.00  0.00    -0.300 A  
HETATM   13  C   UNL     1     -10.077   8.718  71.097  1.00  0.00    -0.317 A  
HETATM   14 CL   UNL     1     -14.404   8.870  72.398  1.00  0.00    -0.474 Cl 
HETATM   15  C   UNL     1     -10.633   7.674  71.834  1.00  0.00    -0.257 A  
HETATM   16  C   UNL     1     -11.957   7.776  72.277  1.00  0.00    -0.356 A  
HETATM   17  C   UNL     1     -12.719   8.926  72.015  1.00  0.00    -0.394 A  
BRANCH  13  18
HETATM   18  C   UNL     1      -8.909   8.516  70.148  1.00  0.00    -0.138 C  
HETATM   19  C   UNL     1      -8.983   9.343  68.015  1.00  0.00    -0.127 C  
HETATM   20  C   UNL     1      -8.240   8.026  68.061  1.00  0.00    -0.129 C  
HETATM   21  O   UNL     1      -8.954   9.768  69.378  1.00  0.00    -0.162 OA 
HETATM   22  H   UNL     1      -6.115   9.934  71.246  1.00  0.00     0.000 HD 
HETATM   23  O   UNL     1      -8.981   7.420  69.161  1.00  0.00    -0.136 OA 
HETATM   24  C   UNL     1      -6.731   8.031  68.473  1.00  0.00    -0.066 C  
HETATM   25  O   UNL     1      -6.974   9.911  70.842  1.00  0.00    -0.310 OA 
HETATM   26  C   UNL     1      -6.535   7.707  69.976  1.00  0.00    -0.034 C  
HETATM   27  O   UNL     1      -6.112   9.256  68.079  1.00  0.00    -0.049 OA 
HETATM   28  H   UNL     1      -6.616   6.114  71.152  1.00  0.00     0.000 HD 
HETATM   29  H   UNL     1      -5.196   9.259  68.329  1.00  0.00     0.000 HD 
HETATM   30  O   UNL     1      -6.736   6.312  70.231  1.00  0.00    -0.049 OA 
HETATM   31  C   UNL     1      -7.491   8.554  70.814  1.00  0.00    -0.072 C  
BRANCH  20  32
HETATM   32  C   UNL     1      -8.314   7.424  66.639  1.00  0.00    -0.124 C  
HETATM   33  O   UNL     1      -9.430   7.892  65.876  1.00  0.00    -0.405 OA 
HETATM   34  H   UNL     1      -9.476   7.522  65.002  1.00  0.00     0.000 HD 
ENDBRANCH  20  32
ENDBRANCH  13  18
ENDBRANCH  10  11
ENDBRANCH   7  10
ENDBRANCH   3   4
ENDBRANCH   2   3
TORSDOF 6
ENDMDL
MODEL      125
REMARK 921   NORMALIZED FREE ENERGY PREDICTED BY IDOCK:   -5.42 KCAL/MOL
REMARK 922        TOTAL FREE ENERGY PREDICTED BY IDOCK:   -8.45 KCAL/MOL
REMARK 923 INTER-LIGAND FREE ENERGY PREDICTED BY IDOCK:   -6.88 KCAL/MOL
REMARK 924 INTRA-LIGAND FREE ENERGY PREDICTED BY IDOCK:   -1.57 KCAL/MOL
REMARK 927      BINDING AFFINITY PREDICTED BY RF-SCORE:    0.00 PKD
ROOT
HETATM    1  C   UNL     1      -6.238   7.696  64.792  1.00  0.00    -0.038 C  
HETATM    2  C   UNL     1      -7.395   8.519  64.248  1.00  0.00    -0.102 C  
ENDROOT
BRANCH   2   3
HETATM    3  O   UNL     1      -7.532   9.720  65.019  1.00  0.00    -0.115 OA 
BRANCH   3   4
HETATM    4  C   UNL     1      -8.315   9.605  66.139  1.00  0.00    -0.119 A  
HETATM    5  C   UNL     1      -9.647   9.252  65.924  1.00  0.00    -0.345 A  
HETATM    6  C   UNL     1     -10.570   9.271  66.978  1.00  0.00    -0.263 A  
HETATM    7  C   UNL     1     -10.170   9.650  68.271  1.00  0.00    -0.216 A  
HETATM    8  C   UNL     1      -8.804   9.872  68.499  1.00  0.00    -0.122 A  
HETATM    9  C   UNL     1      -7.882   9.844  67.442  1.00  0.00    -0.098 A  
BRANCH   7  10
HETATM   10  C   UNL     1     -11.203  10.017  69.325  1.00  0.00    -0.213 C  
BRANCH  10  11
HETATM   11  C   UNL     1     -11.469  11.471  69.643  1.00  0.00    -0.373 A  
HETATM   12  C   UNL     1     -10.995  12.453  68.762  1.00  0.00    -0.287 A  
HETATM   13  C   UNL     1     -11.187  13.841  68.987  1.00  0.00    -0.313 A  
HETATM   14 CL   UNL     1     -12.680  10.830  72.011  1.00  0.00    -0.365 Cl 
HETATM   15  C   UNL     1     -12.067  14.226  69.998  1.00  0.00    -0.400 A  
HETATM   16  C   UNL     1     -12.562  13.261  70.881  1.00  0.00    -0.386 A  
HETATM   17  C   UNL     1     -12.209  11.909  70.745  1.00  0.00    -0.303 A  
BRANCH  13  18
HETATM   18  C   UNL     1     -10.210  14.807  68.343  1.00  0.00    -0.224 C  
HETATM   19  C   UNL     1      -7.961  14.619  68.725  1.00  0.00    -0.151 C  
HETATM   20  C   UNL     1      -8.369  16.070  68.590  1.00  0.00    -0.203 C  
HETATM   21  O   UNL     1      -9.053  13.928  68.119  1.00  0.00    -0.181 OA 
HETATM   22  H   UNL     1     -10.271  14.659  65.026  1.00  0.00     0.000 HD 
HETATM   23  O   UNL     1      -9.714  15.948  69.138  1.00  0.00    -0.218 OA 
HETATM   24  C   UNL     1      -8.513  16.677  67.155  1.00  0.00    -0.189 C  
HETATM   25  O   UNL     1     -10.041  14.374  65.903  1.00  0.00    -0.296 OA 
HETATM   26  C   UNL     1      -9.981  16.660  66.659  1.00  0.00    -0.283 C  
HETATM   27  O   UNL     1      -7.610  16.040  66.252  1.00  0.00    -0.135 OA 
HETATM   28  H   UNL     1     -11.654  17.664  67.005  1.00  0.00     0.000 HD 
HETATM   29  H   UNL     1      -7.697  16.408  65.381  1.00  0.00     0.000 HD 
HETATM   30  O   UNL     1     -10.755  17.674  67.309  1.00  0.00    -0.325 OA 
HETATM   31  C   UNL     1     -10.589  15.279  66.898  1.00  0.00    -0.304 C  
BRANCH  20  32
HETATM   32  C   UNL     1      -7.294  16.904  69.323  1.00  0.00    -0.150 C  
HETATM   33  O   UNL     1      -6.276  17.414  68.458  1.00  0.00    -0.161 OA 
HETATM   34  H   UNL     1      -5.615  17.927  68.909  1.00  0.00     0.000 HD 
ENDBRANCH  20  32
ENDBRANCH  13  18
ENDBRANCH  10  11
ENDBRANCH   7  10
ENDBRANCH   3   4
ENDBRANCH   2   3
TORSDOF 6
ENDMDL
MODEL      126
REMARK 921   NORMALIZED FREE ENERGY PREDICTED BY IDOCK:   -5.38 KCAL/MOL
REMARK 922        TOTAL FREE ENERGY PREDICTED BY IDOCK:   -8.40 KCAL/MOL
REMARK 923 INTER-LIGAND FREE ENERGY PREDICTED BY IDOCK:   -7.23 KCAL/MOL
REMARK 924 INTRA-LIGAND FREE ENERGY PREDICTED BY IDOCK:   -1.18 KCAL/MOL
REMARK 927      BINDING AFFINITY PREDICTED BY RF-SCORE:    0.00 PKD
ROOT
HETATM    1  C   UNL     1      -9.847  15.882  65.852  1.00  0.00    -0.383 C  
HETATM    2  C   UNL     1     -10.022  14.836  66.942  1.00  0.00    -0.244 C  
ENDROOT
BRANCH   2   3
HETATM    3  O   UNL     1     -11.084  13.944  66.581  1.00  0.00    -0.299 OA 
BRANCH   3   4
HETATM    4  C   UNL     1     -11.536  13.139  67.595  1.00  0.00    -0.324 A  
HETATM    5  C   UNL     1     -11.785  13.767  68.815  1.00  0.00    -0.391 A  
HETATM    6  C   UNL     1     -12.086  13.015  69.958  1.00  0.00    -0.367 A  
HETATM    7  C   UNL     1     -12.140  11.612  69.896  1.00  0.00    -0.373 A  
HETATM    8  C   UNL     1     -12.019  11.004  68.638  1.00  0.00    -0.247 A  
HETATM    9  C   UNL     1     -11.726  11.761  67.495  1.00  0.00    -0.312 A  
BRANCH   7  10
HETATM   10  C   UNL     1     -12.111  10.779  71.168  1.00  0.00    -0.415 C  
BRANCH  10  11
HETATM   11  C   UNL     1     -11.891   9.286  71.083  1.00  0.00    -0.396 A  
HETATM   12  C   UNL     1     -10.702   8.809  70.514  1.00  0.00    -0.259 A  
HETATM   13  C   UNL     1     -10.417   7.425  70.383  1.00  0.00    -0.230 A  
HETATM   14 CL   UNL     1     -14.365   8.767  72.130  1.00  0.00    -0.503 Cl 
HETATM   15  C   UNL     1     -11.246   6.519  71.042  1.00  0.00    -0.362 A  
HETATM   16  C   UNL     1     -12.432   6.975  71.628  1.00  0.00    -0.413 A  
HETATM   17  C   UNL     1     -12.782   8.334  71.586  1.00  0.00    -0.327 A  
BRANCH  13  18
HETATM   18  C   UNL     1      -9.440   7.000  69.301  1.00  0.00    -0.147 C  
HETATM   19  C   UNL     1      -7.765   8.405  68.625  1.00  0.00    -0.107 C  
HETATM   20  C   UNL     1      -8.289   7.587  67.465  1.00  0.00    -0.117 C  
HETATM   21  O   UNL     1      -8.210   7.662  69.760  1.00  0.00    -0.126 OA 
HETATM   22  H   UNL     1      -7.670   4.326  70.164  1.00  0.00     0.000 HD 
HETATM   23  O   UNL     1      -9.669   7.463  67.919  1.00  0.00    -0.139 OA 
HETATM   24  C   UNL     1      -7.741   6.136  67.264  1.00  0.00    -0.094 C  
HETATM   25  O   UNL     1      -7.903   5.247  70.160  1.00  0.00    -0.077 OA 
HETATM   26  C   UNL     1      -8.675   5.068  67.886  1.00  0.00    -0.103 C  
HETATM   27  O   UNL     1      -6.395   6.043  67.731  1.00  0.00    -0.034 OA 
HETATM   28  H   UNL     1     -10.419   4.225  67.464  1.00  0.00     0.000 HD 
HETATM   29  H   UNL     1      -6.063   5.162  67.609  1.00  0.00     0.000 HD 
HETATM   30  O   UNL     1      -9.846   4.879  67.083  1.00  0.00    -0.162 OA 
HETATM   31  C   UNL     1      -9.055   5.481  69.307  1.00  0.00    -0.112 C  
BRANCH  20  32
HETATM   32  C   UNL     1      -7.953   8.375  66.178  1.00  0.00    -0.100 C  
HETATM   33  O   UNL     1      -7.316   7.584  65.171  1.00  0.00    -0.066 OA 
HETATM   34  H   UNL     1      -7.109   8.069  64.381  1.00  0.00     0.000 HD 
ENDBRANCH  20  32
ENDBRANCH  13  18
ENDBRANCH  10  11
ENDBRANCH   7  10
ENDBRANCH   3   4
ENDBRANCH   2   3
TORSDOF 6
ENDMDL
MODEL      127
REMARK 921   NORMALIZED FREE ENERGY PREDICTED BY IDOCK:   -5.36 KCAL/MOL
REMARK 922        TOTAL FREE ENERGY PREDICTED BY IDOCK:   -8.38 KCAL/MOL
REMARK 923 INTER-LIGAND FREE ENERGY PREDICTED BY IDOCK:   -7.06 KCAL/MOL
REMARK 924 INTRA-LIGAND FREE ENERGY PREDICTED BY IDOCK:   -1.32 KCAL/MOL
REMARK 927      BINDING AFFINITY PREDICTED BY RF-SCORE:    0.00 PKD
ROOT
HETATM    1  C   UNL     1      -7.651  19.560  68.927  1.00  0.00    -0.383 C  
HETATM    2  C   UNL     1      -8.803  18.623  68.598  1.00  0.00    -0.302 C  
ENDROOT
BRANCH   2   3
HETATM    3  O   UNL     1      -8.351  17.265  68.676  1.00  0.00    -0.256 OA 
BRANCH   3   4
HETATM    4  C   UNL     1      -9.324  16.317  68.487  1.00  0.00    -0.213 A  
HETATM    5  C   UNL     1      -9.037  15.039  68.965  1.00  0.00    -0.205 A  
HETATM    6  C   UNL     1      -9.886  13.961  68.677  1.00  0.00    -0.175 A  
HETATM    7  C   UNL     1     -11.040  14.150  67.897  1.00  0.00    -0.285 A  
HETATM    8  C   UNL     1     -11.384  15.461  67.538  1.00  0.00    -0.269 A  
HETATM    9  C   UNL     1     -10.536  16.538  67.835  1.00  0.00    -0.329 A  
BRANCH   7  10
HETATM   10  C   UNL     1     -11.764  12.961  67.286  1.00  0.00    -0.431 C  
BRANCH  10  11
HETATM   11  C   UNL     1     -10.982  11.917  66.521  1.00  0.00    -0.337 A  
HETATM   12  C   UNL     1     -10.911  10.615  67.036  1.00  0.00    -0.298 A  
HETATM   13  C   UNL     1     -10.189   9.576  66.393  1.00  0.00    -0.302 A  
HETATM   14 CL   UNL     1     -10.196  13.744  64.642  1.00  0.00    -0.403 Cl 
HETATM   15  C   UNL     1      -9.726   9.803  65.098  1.00  0.00    -0.338 A  
HETATM   16  C   UNL     1      -9.799  11.092  64.559  1.00  0.00    -0.343 A  
HETATM   17  C   UNL     1     -10.358  12.150  65.293  1.00  0.00    -0.277 A  
BRANCH  13  18
HETATM   18  C   UNL     1      -9.698   8.419  67.245  1.00  0.00    -0.184 C  
HETATM   19  C   UNL     1      -9.728   8.557  69.529  1.00  0.00    -0.176 C  
HETATM   20  C   UNL     1      -8.529   7.770  69.048  1.00  0.00    -0.132 C  
HETATM   21  O   UNL     1     -10.602   8.519  68.400  1.00  0.00    -0.193 OA 
HETATM   22  H   UNL     1     -11.481   5.654  66.786  1.00  0.00     0.000 HD 
HETATM   23  O   UNL     1      -8.326   8.471  67.786  1.00  0.00    -0.127 OA 
HETATM   24  C   UNL     1      -8.716   6.255  68.706  1.00  0.00    -0.121 C  
HETATM   25  O   UNL     1     -11.297   6.520  67.133  1.00  0.00    -0.333 OA 
HETATM   26  C   UNL     1      -8.941   6.022  67.191  1.00  0.00    -0.114 C  
HETATM   27  O   UNL     1      -9.741   5.684  69.518  1.00  0.00    -0.139 OA 
HETATM   28  H   UNL     1      -7.855   6.030  65.532  1.00  0.00     0.000 HD 
HETATM   29  H   UNL     1      -9.854   4.764  69.311  1.00  0.00     0.000 HD 
HETATM   30  O   UNL     1      -7.717   6.173  66.461  1.00  0.00    -0.099 OA 
HETATM   31  C   UNL     1     -10.002   6.992  66.673  1.00  0.00    -0.154 C  
BRANCH  20  32
HETATM   32  C   UNL     1      -7.468   7.848  70.170  1.00  0.00    -0.078 C  
HETATM   33  O   UNL     1      -7.069   6.570  70.672  1.00  0.00    -0.065 OA 
HETATM   34  H   UNL     1      -6.418   6.618  71.362  1.00  0.00     0.000 HD 
ENDBRANCH  20  32
ENDBRANCH  13  18
ENDBRANCH  10  11
ENDBRANCH   7  10
ENDBRANCH   3   4
ENDBRANCH   2   3
TORSDOF 6
ENDMDL
MODEL      128
REMARK 921   NORMALIZED FREE ENERGY PREDICTED BY IDOCK:   -5.36 KCAL/MOL
REMARK 922        TOTAL FREE ENERGY PREDICTED BY IDOCK:   -8.37 KCAL/MOL
REMARK 923 INTER-LIGAND FREE ENERGY PREDICTED BY IDOCK:   -7.13 KCAL/MOL
REMARK 924 INTRA-LIGAND FREE ENERGY PREDICTED BY IDOCK:   -1.24 KCAL/MOL
REMARK 927      BINDING AFFINITY PREDICTED BY RF-SCORE:    0.00 PKD
ROOT
HETATM    1  C   UNL     1      -9.533   3.508  65.958  1.00  0.00    -0.145 C  
HETATM    2  C   UNL     1      -9.996   4.226  67.215  1.00  0.00    -0.086 C  
ENDROOT
BRANCH   2   3
HETATM    3  O   UNL     1     -10.899   5.280  66.859  1.00  0.00    -0.206 OA 
BRANCH   3   4
HETATM    4  C   UNL     1     -10.808   6.410  67.630  1.00  0.00    -0.339 A  
HETATM    5  C   UNL     1     -10.849   7.625  66.948  1.00  0.00    -0.127 A  
HETATM    6  C   UNL     1     -10.596   8.830  67.618  1.00  0.00    -0.281 A  
HETATM    7  C   UNL     1     -10.292   8.834  68.990  1.00  0.00    -0.227 A  
HETATM    8  C   UNL     1     -10.386   7.620  69.688  1.00  0.00    -0.213 A  
HETATM    9  C   UNL     1     -10.647   6.418  69.015  1.00  0.00    -0.305 A  
BRANCH   7  10
HETATM   10  C   UNL     1      -9.676  10.060  69.643  1.00  0.00    -0.255 C  
BRANCH  10  11
HETATM   11  C   UNL     1      -8.809  10.991  68.826  1.00  0.00    -0.149 A  
HETATM   12  C   UNL     1      -9.202  12.329  68.683  1.00  0.00    -0.005 A  
HETATM   13  C   UNL     1      -8.457  13.269  67.925  1.00  0.00    -0.177 A  
HETATM   14 CL   UNL     1      -7.095   8.965  68.161  1.00  0.00    -0.077 Cl 
HETATM   15  C   UNL     1      -7.182  12.904  67.496  1.00  0.00    -0.149 A  
HETATM   16  C   UNL     1      -6.764  11.576  67.639  1.00  0.00    -0.079 A  
HETATM   17  C   UNL     1      -7.599  10.617  68.235  1.00  0.00    -0.097 A  
BRANCH  13  18
HETATM   18  C   UNL     1      -9.193  14.473  67.364  1.00  0.00    -0.200 C  
HETATM   19  C   UNL     1     -11.384  14.307  66.724  1.00  0.00    -0.348 C  
HETATM   20  C   UNL     1     -10.626  15.257  65.823  1.00  0.00    -0.347 C  
HETATM   21  O   UNL     1     -10.549  14.237  67.880  1.00  0.00    -0.236 OA 
HETATM   22  H   UNL     1      -9.391  16.972  69.543  1.00  0.00     0.000 HD 
HETATM   23  O   UNL     1      -9.324  14.604  65.900  1.00  0.00    -0.247 OA 
HETATM   24  C   UNL     1     -10.426  16.735  66.292  1.00  0.00    -0.261 C  
HETATM   25  O   UNL     1      -9.629  16.136  69.158  1.00  0.00    -0.230 OA 
HETATM   26  C   UNL     1      -9.048  16.952  66.968  1.00  0.00    -0.226 C  
HETATM   27  O   UNL     1     -11.520  17.151  67.108  1.00  0.00     0.395 OA 
HETATM   28  H   UNL     1      -7.153  17.111  66.409  1.00  0.00     0.000 HD 
HETATM   29  H   UNL     1     -11.399  18.049  67.393  1.00  0.00     0.000 HD 
HETATM   30  O   UNL     1      -7.997  16.979  65.994  1.00  0.00    -0.435 OA 
HETATM   31  C   UNL     1      -8.801  15.852  67.999  1.00  0.00    -0.178 C  
BRANCH  20  32
HETATM   32  C   UNL     1     -11.399  15.312  64.486  1.00  0.00    -0.300 C  
HETATM   33  O   UNL     1     -11.508  16.630  63.941  1.00  0.00    -1.604 OA 
HETATM   34  H   UNL     1     -11.984  16.664  63.119  1.00  0.00     0.000 HD 
ENDBRANCH  20  32
ENDBRANCH  13  18
ENDBRANCH  10  11
ENDBRANCH   7  10
ENDBRANCH   3   4
ENDBRANCH   2   3
TORSDOF 6
ENDMDL
MODEL      129
REMARK 921   NORMALIZED FREE ENERGY PREDICTED BY IDOCK:   -5.35 KCAL/MOL
REMARK 922        TOTAL FREE ENERGY PREDICTED BY IDOCK:   -8.37 KCAL/MOL
REMARK 923 INTER-LIGAND FREE ENERGY PREDICTED BY IDOCK:   -7.37 KCAL/MOL
REMARK 924 INTRA-LIGAND FREE ENERGY PREDICTED BY IDOCK:   -1.00 KCAL/MOL
REMARK 927      BINDING AFFINITY PREDICTED BY RF-SCORE:    0.00 PKD
ROOT
HETATM    1  C   UNL     1     -14.411   7.121  71.583  1.00  0.00    -0.528 C  
HETATM    2  C   UNL     1     -13.165   7.955  71.835  1.00  0.00    -0.285 C  
ENDROOT
BRANCH   2   3
HETATM    3  O   UNL     1     -11.999   7.154  71.606  1.00  0.00    -0.284 OA 
BRANCH   3   4
HETATM    4  C   UNL     1     -10.832   7.858  71.450  1.00  0.00    -0.226 A  
HETATM    5  C   UNL     1     -10.908   9.009  70.667  1.00  0.00    -0.295 A  
HETATM    6  C   UNL     1      -9.748   9.706  70.306  1.00  0.00    -0.314 A  
HETATM    7  C   UNL     1      -8.484   9.255  70.724  1.00  0.00    -0.244 A  
HETATM    8  C   UNL     1      -8.434   8.176  71.619  1.00  0.00    -0.173 A  
HETATM    9  C   UNL     1      -9.599   7.486  71.984  1.00  0.00    -0.189 A  
BRANCH   7  10
HETATM   10  C   UNL     1      -7.218   9.775  70.063  1.00  0.00    -0.130 C  
BRANCH  10  11
HETATM   11  C   UNL     1      -7.284  10.364  68.672  1.00  0.00    -0.082 A  
HETATM   12  C   UNL     1      -8.087  11.492  68.453  1.00  0.00    -0.149 A  
HETATM   13  C   UNL     1      -8.218  12.102  67.179  1.00  0.00    -0.182 A  
HETATM   14 CL   UNL     1      -5.679   8.392  67.660  1.00  0.00    -0.039 Cl 
HETATM   15  C   UNL     1      -7.347  11.702  66.166  1.00  0.00     0.328 A  
HETATM   16  C   UNL     1      -6.528  10.586  66.368  1.00  0.00    -0.105 A  
HETATM   17  C   UNL     1      -6.549   9.884  67.584  1.00  0.00    -0.068 A  
BRANCH  13  18
HETATM   18  C   UNL     1      -9.473  12.910  66.904  1.00  0.00    -0.237 C  
HETATM   19  C   UNL     1      -9.770  13.956  64.890  1.00  0.00     0.220 C  
HETATM   20  C   UNL     1     -10.359  14.774  66.018  1.00  0.00    -0.305 C  
HETATM   21  O   UNL     1      -9.661  12.655  65.468  1.00  0.00    -0.208 OA 
HETATM   22  H   UNL     1     -12.230  11.062  67.034  1.00  0.00     0.000 HD 
HETATM   23  O   UNL     1      -9.420  14.377  67.061  1.00  0.00    -0.229 OA 
HETATM   24  C   UNL     1     -11.793  14.416  66.533  1.00  0.00    -0.390 C  
HETATM   25  O   UNL     1     -11.433  11.405  66.645  1.00  0.00    -0.408 OA 
HETATM   26  C   UNL     1     -11.753  13.503  67.784  1.00  0.00    -0.359 C  
HETATM   27  O   UNL     1     -12.583  13.878  65.473  1.00  0.00    -0.489 OA 
HETATM   28  H   UNL     1     -11.351  13.686  69.717  1.00  0.00     0.000 HD 
HETATM   29  H   UNL     1     -13.453  13.662  65.785  1.00  0.00     0.000 HD 
HETATM   30  O   UNL     1     -11.375  14.245  68.950  1.00  0.00    -0.244 OA 
HETATM   31  C   UNL     1     -10.787  12.344  67.545  1.00  0.00    -0.236 C  
BRANCH  20  32
HETATM   32  C   UNL     1     -10.413  16.237  65.525  1.00  0.00    -0.362 C  
HETATM   33  O   UNL     1     -10.940  16.378  64.203  1.00  0.00    -1.157 OA 
HETATM   34  H   UNL     1     -10.972  17.278  63.899  1.00  0.00     0.000 HD 
ENDBRANCH  20  32
ENDBRANCH  13  18
ENDBRANCH  10  11
ENDBRANCH   7  10
ENDBRANCH   3   4
ENDBRANCH   2   3
TORSDOF 6
ENDMDL
MODEL      130
REMARK 921   NORMALIZED FREE ENERGY PREDICTED BY IDOCK:   -5.34 KCAL/MOL
REMARK 922        TOTAL FREE ENERGY PREDICTED BY IDOCK:   -8.35 KCAL/MOL
REMARK 923 INTER-LIGAND FREE ENERGY PREDICTED BY IDOCK:   -7.32 KCAL/MOL
REMARK 924 INTRA-LIGAND FREE ENERGY PREDICTED BY IDOCK:   -1.04 KCAL/MOL
REMARK 927      BINDING AFFINITY PREDICTED BY RF-SCORE:    0.00 PKD
ROOT
HETATM    1  C   UNL     1     -12.635  16.208  73.492  1.00  0.00    -0.678 C  
HETATM    2  C   UNL     1     -12.899  14.753  73.140  1.00  0.00    -0.508 C  
ENDROOT
BRANCH   2   3
HETATM    3  O   UNL     1     -12.717  14.560  71.732  1.00  0.00    -0.317 OA 
BRANCH   3   4
HETATM    4  C   UNL     1     -12.741  13.254  71.316  1.00  0.00    -0.323 A  
HETATM    5  C   UNL     1     -13.350  12.345  72.180  1.00  0.00    -0.508 A  
HETATM    6  C   UNL     1     -13.281  10.967  71.933  1.00  0.00    -0.503 A  
HETATM    7  C   UNL     1     -12.593  10.477  70.809  1.00  0.00    -0.474 A  
HETATM    8  C   UNL     1     -12.102  11.407  69.881  1.00  0.00    -0.404 A  
HETATM    9  C   UNL     1     -12.180  12.785  70.128  1.00  0.00    -0.320 A  
BRANCH   7  10
HETATM   10  C   UNL     1     -12.208   9.009  70.717  1.00  0.00    -0.119 C  
BRANCH  10  11
HETATM   11  C   UNL     1     -10.754   8.622  70.563  1.00  0.00    -0.252 A  
HETATM   12  C   UNL     1     -10.154   8.739  69.302  1.00  0.00    -0.206 A  
HETATM   13  C   UNL     1      -8.800   8.387  69.063  1.00  0.00    -0.146 A  
HETATM   14 CL   UNL     1     -10.594   7.820  73.174  1.00  0.00    -0.433 Cl 
HETATM   15  C   UNL     1      -7.984   8.130  70.164  1.00  0.00    -0.107 A  
HETATM   16  C   UNL     1      -8.561   8.022  71.435  1.00  0.00    -0.156 A  
HETATM   17  C   UNL     1      -9.942   8.197  71.618  1.00  0.00    -0.192 A  
BRANCH  13  18
HETATM   18  C   UNL     1      -8.403   8.008  67.647  1.00  0.00    -0.128 C  
HETATM   19  C   UNL     1      -7.346   9.516  66.289  1.00  0.00    -0.093 C  
HETATM   20  C   UNL     1      -8.281   8.632  65.494  1.00  0.00    -0.135 C  
HETATM   21  O   UNL     1      -7.156   8.771  67.492  1.00  0.00    -0.077 OA 
HETATM   22  H   UNL     1      -6.232   5.497  67.563  1.00  0.00     0.000 HD 
HETATM   23  O   UNL     1      -9.280   8.417  66.533  1.00  0.00    -0.163 OA 
HETATM   24  C   UNL     1      -7.776   7.220  65.045  1.00  0.00    -0.115 C  
HETATM   25  O   UNL     1      -6.511   6.398  67.678  1.00  0.00    -0.047 OA 
HETATM   26  C   UNL     1      -8.230   6.102  66.017  1.00  0.00    -0.127 C  
HETATM   27  O   UNL     1      -6.364   7.240  64.836  1.00  0.00    -0.037 OA 
HETATM   28  H   UNL     1      -9.899   5.120  66.440  1.00  0.00     0.000 HD 
HETATM   29  H   UNL     1      -6.058   6.384  64.563  1.00  0.00     0.000 HD 
HETATM   30  O   UNL     1      -9.621   5.806  65.844  1.00  0.00    -0.110 OA 
HETATM   31  C   UNL     1      -7.942   6.523  67.457  1.00  0.00    -0.114 C  
BRANCH  20  32
HETATM   32  C   UNL     1      -8.640   9.409  64.207  1.00  0.00    -0.196 C  
HETATM   33  O   UNL     1      -8.513  10.827  64.339  1.00  0.00    -0.328 OA 
HETATM   34  H   UNL     1      -8.734  11.305  63.548  1.00  0.00     0.000 HD 
ENDBRANCH  20  32
ENDBRANCH  13  18
ENDBRANCH  10  11
ENDBRANCH   7  10
ENDBRANCH   3   4
ENDBRANCH   2   3
TORSDOF 6
ENDMDL
MODEL      131
REMARK 921   NORMALIZED FREE ENERGY PREDICTED BY IDOCK:   -5.34 KCAL/MOL
REMARK 922        TOTAL FREE ENERGY PREDICTED BY IDOCK:   -8.35 KCAL/MOL
REMARK 923 INTER-LIGAND FREE ENERGY PREDICTED BY IDOCK:   -7.39 KCAL/MOL
REMARK 924 INTRA-LIGAND FREE ENERGY PREDICTED BY IDOCK:   -0.95 KCAL/MOL
REMARK 927      BINDING AFFINITY PREDICTED BY RF-SCORE:    0.00 PKD
ROOT
HETATM    1  C   UNL     1      -8.050   7.244  62.838  1.00  0.00    -0.057 C  
HETATM    2  C   UNL     1      -8.608   8.018  64.021  1.00  0.00     0.271 C  
ENDROOT
BRANCH   2   3
HETATM    3  O   UNL     1      -8.840   9.379  63.636  1.00  0.00    -0.221 OA 
BRANCH   3   4
HETATM    4  C   UNL     1      -9.460  10.153  64.583  1.00  0.00    -0.297 A  
HETATM    5  C   UNL     1      -9.747  11.466  64.212  1.00  0.00    -0.263 A  
HETATM    6  C   UNL     1     -10.224  12.387  65.154  1.00  0.00    -0.305 A  
HETATM    7  C   UNL     1     -10.420  12.004  66.492  1.00  0.00    -0.253 A  
HETATM    8  C   UNL     1     -10.255  10.650  66.820  1.00  0.00    -0.284 A  
HETATM    9  C   UNL     1      -9.785   9.730  65.871  1.00  0.00    -0.332 A  
BRANCH   7  10
HETATM   10  C   UNL     1     -10.589  13.052  67.581  1.00  0.00    -0.232 C  
BRANCH  10  11
HETATM   11  C   UNL     1      -9.465  14.021  67.872  1.00  0.00    -0.210 A  
HETATM   12  C   UNL     1      -9.737  15.396  67.852  1.00  0.00    -0.207 A  
HETATM   13  C   UNL     1      -8.742  16.376  68.101  1.00  0.00    -0.191 A  
HETATM   14 CL   UNL     1      -7.643  11.991  68.085  1.00  0.00    -0.111 Cl 
HETATM   15  C   UNL     1      -7.511  15.951  68.600  1.00  0.00    -0.158 A  
HETATM   16  C   UNL     1      -7.224  14.582  68.641  1.00  0.00    -0.124 A  
HETATM   17  C   UNL     1      -8.167  13.633  68.215  1.00  0.00    -0.156 A  
BRANCH  13  18
HETATM   18  C   UNL     1      -8.954  17.766  67.527  1.00  0.00    -0.244 C  
HETATM   19  C   UNL     1      -7.389  18.711  66.151  1.00  0.00    -0.259 C  
HETATM   20  C   UNL     1      -8.045  19.757  67.026  1.00  0.00    -0.293 C  
HETATM   21  O   UNL     1      -8.314  17.625  66.211  1.00  0.00    -0.360 OA 
HETATM   22  H   UNL     1     -11.645  17.945  65.590  1.00  0.00     0.000 HD 
HETATM   23  O   UNL     1      -8.298  18.912  68.187  1.00  0.00    -0.288 OA 
HETATM   24  C   UNL     1      -9.423  20.348  66.580  1.00  0.00    -0.305 C  
HETATM   25  O   UNL     1     -10.745  17.729  65.806  1.00  0.00    -0.422 OA 
HETATM   26  C   UNL     1     -10.614  19.637  67.271  1.00  0.00    -0.472 C  
HETATM   27  O   UNL     1      -9.525  20.355  65.156  1.00  0.00    -0.251 OA 
HETATM   28  H   UNL     1     -11.462  19.607  69.062  1.00  0.00     0.000 HD 
HETATM   29  H   UNL     1     -10.361  20.714  64.886  1.00  0.00     0.000 HD 
HETATM   30  O   UNL     1     -10.732  20.044  68.639  1.00  0.00    -0.143 OA 
HETATM   31  C   UNL     1     -10.438  18.122  67.170  1.00  0.00    -0.378 C  
BRANCH  20  32
HETATM   32  C   UNL     1      -7.057  20.942  67.117  1.00  0.00    -0.351 C  
HETATM   33  O   UNL     1      -6.562  21.375  65.847  1.00  0.00    -0.500 OA 
HETATM   34  H   UNL     1      -5.955  22.104  65.904  1.00  0.00     0.000 HD 
ENDBRANCH  20  32
ENDBRANCH  13  18
ENDBRANCH  10  11
ENDBRANCH   7  10
ENDBRANCH   3   4
ENDBRANCH   2   3
TORSDOF 6
ENDMDL
MODEL      132
REMARK 921   NORMALIZED FREE ENERGY PREDICTED BY IDOCK:   -5.32 KCAL/MOL
REMARK 922        TOTAL FREE ENERGY PREDICTED BY IDOCK:   -8.32 KCAL/MOL
REMARK 923 INTER-LIGAND FREE ENERGY PREDICTED BY IDOCK:   -6.83 KCAL/MOL
REMARK 924 INTRA-LIGAND FREE ENERGY PREDICTED BY IDOCK:   -1.49 KCAL/MOL
REMARK 927      BINDING AFFINITY PREDICTED BY RF-SCORE:    0.00 PKD
ROOT
HETATM    1  C   UNL     1      -9.522   2.861  70.749  1.00  0.00    -0.223 C  
HETATM    2  C   UNL     1      -9.351   4.351  71.000  1.00  0.00    -0.149 C  
ENDROOT
BRANCH   2   3
HETATM    3  O   UNL     1      -9.794   4.665  72.327  1.00  0.00    -0.155 OA 
BRANCH   3   4
HETATM    4  C   UNL     1     -10.435   5.871  72.455  1.00  0.00    -0.204 A  
HETATM    5  C   UNL     1     -11.785   5.889  72.107  1.00  0.00    -0.287 A  
HETATM    6  C   UNL     1     -12.490   7.098  72.041  1.00  0.00    -0.277 A  
HETATM    7  C   UNL     1     -11.846   8.316  72.321  1.00  0.00    -0.451 A  
HETATM    8  C   UNL     1     -10.528   8.269  72.798  1.00  0.00    -0.329 A  
HETATM    9  C   UNL     1      -9.829   7.056  72.870  1.00  0.00    -0.204 A  
BRANCH   7  10
HETATM   10  C   UNL     1     -12.479   9.637  71.915  1.00  0.00    -0.459 C  
BRANCH  10  11
HETATM   11  C   UNL     1     -12.063  10.305  70.625  1.00  0.00    -0.433 A  
HETATM   12  C   UNL     1     -11.467   9.527  69.623  1.00  0.00     0.011 A  
HETATM   13  C   UNL     1     -11.034  10.072  68.386  1.00  0.00    -0.266 A  
HETATM   14 CL   UNL     1     -12.820  12.769  71.545  1.00  0.00    -0.423 Cl 
HETATM   15  C   UNL     1     -11.417  11.375  68.073  1.00  0.00    -0.377 A  
HETATM   16  C   UNL     1     -12.025  12.166  69.054  1.00  0.00    -0.302 A  
HETATM   17  C   UNL     1     -12.280  11.656  70.337  1.00  0.00    -0.347 A  
BRANCH  13  18
HETATM   18  C   UNL     1      -9.940   9.339  67.631  1.00  0.00    -0.196 C  
HETATM   19  C   UNL     1     -10.207   7.149  67.023  1.00  0.00    -0.269 C  
HETATM   20  C   UNL     1      -8.767   7.440  67.384  1.00  0.00    -0.121 C  
HETATM   21  O   UNL     1     -10.738   8.451  66.774  1.00  0.00    -0.249 OA 
HETATM   22  H   UNL     1      -9.297  10.709  64.674  1.00  0.00     0.000 HD 
HETATM   23  O   UNL     1      -9.019   8.468  68.387  1.00  0.00    -0.139 OA 
HETATM   24  C   UNL     1      -7.837   8.077  66.299  1.00  0.00    -0.099 C  
HETATM   25  O   UNL     1      -9.782  10.181  65.298  1.00  0.00    -0.256 OA 
HETATM   26  C   UNL     1      -7.740   9.617  66.445  1.00  0.00    -0.101 C  
HETATM   27  O   UNL     1      -8.240   7.664  64.993  1.00  0.00    -0.137 OA 
HETATM   28  H   UNL     1      -6.851  10.920  67.645  1.00  0.00     0.000 HD 
HETATM   29  H   UNL     1      -7.676   8.050  64.335  1.00  0.00     0.000 HD 
HETATM   30  O   UNL     1      -6.911   9.976  67.556  1.00  0.00    -0.079 OA 
HETATM   31  C   UNL     1      -9.140  10.209  66.601  1.00  0.00    -0.144 C  
BRANCH  20  32
HETATM   32  C   UNL     1      -8.128   6.091  67.785  1.00  0.00    -0.109 C  
HETATM   33  O   UNL     1      -6.702   6.140  67.886  1.00  0.00    -0.059 OA 
HETATM   34  H   UNL     1      -6.309   5.310  68.132  1.00  0.00     0.000 HD 
ENDBRANCH  20  32
ENDBRANCH  13  18
ENDBRANCH  10  11
ENDBRANCH   7  10
ENDBRANCH   3   4
ENDBRANCH   2   3
TORSDOF 6
ENDMDL
MODEL      133
REMARK 921   NORMALIZED FREE ENERGY PREDICTED BY IDOCK:   -5.31 KCAL/MOL
REMARK 922        TOTAL FREE ENERGY PREDICTED BY IDOCK:   -8.30 KCAL/MOL
REMARK 923 INTER-LIGAND FREE ENERGY PREDICTED BY IDOCK:   -6.99 KCAL/MOL
REMARK 924 INTRA-LIGAND FREE ENERGY PREDICTED BY IDOCK:   -1.31 KCAL/MOL
REMARK 927      BINDING AFFINITY PREDICTED BY RF-SCORE:    0.00 PKD
ROOT
HETATM    1  C   UNL     1      -9.647   1.642  70.672  1.00  0.00    -0.150 C  
HETATM    2  C   UNL     1      -9.493   3.155  70.649  1.00  0.00    -0.163 C  
ENDROOT
BRANCH   2   3
HETATM    3  O   UNL     1      -9.540   3.620  69.295  1.00  0.00    -0.182 OA 
BRANCH   3   4
HETATM    4  C   UNL     1      -9.166   4.927  69.116  1.00  0.00    -0.118 A  
HETATM    5  C   UNL     1      -8.030   5.342  69.809  1.00  0.00    -0.080 A  
HETATM    6  C   UNL     1      -7.659   6.693  69.830  1.00  0.00    -0.100 A  
HETATM    7  C   UNL     1      -8.429   7.656  69.155  1.00  0.00    -0.138 A  
HETATM    8  C   UNL     1      -9.490   7.206  68.354  1.00  0.00    -0.138 A  
HETATM    9  C   UNL     1      -9.853   5.852  68.330  1.00  0.00    -0.162 A  
BRANCH   7  10
HETATM   10  C   UNL     1      -8.255   9.136  69.454  1.00  0.00    -0.118 C  
BRANCH  10  11
HETATM   11  C   UNL     1      -9.472  10.014  69.641  1.00  0.00    -0.247 A  
HETATM   12  C   UNL     1      -9.681  11.076  68.751  1.00  0.00    -0.199 A  
HETATM   13  C   UNL     1     -10.788  11.958  68.858  1.00  0.00    -0.261 A  
HETATM   14 CL   UNL     1     -10.216   8.664  71.902  1.00  0.00    -0.376 Cl 
HETATM   15  C   UNL     1     -11.815  11.618  69.738  1.00  0.00    -0.428 A  
HETATM   16  C   UNL     1     -11.632  10.553  70.627  1.00  0.00    -0.445 A  
HETATM   17  C   UNL     1     -10.444   9.805  70.623  1.00  0.00    -0.289 A  
BRANCH  13  18
HETATM   18  C   UNL     1     -10.652  13.346  68.259  1.00  0.00    -0.254 C  
HETATM   19  C   UNL     1      -9.016  13.799  66.725  1.00  0.00    -0.185 C  
HETATM   20  C   UNL     1      -9.268  14.994  67.618  1.00  0.00    -0.182 C  
HETATM   21  O   UNL     1     -10.200  13.021  66.899  1.00  0.00    -0.239 OA 
HETATM   22  H   UNL     1     -13.348  14.267  66.553  1.00  0.00     0.000 HD 
HETATM   23  O   UNL     1      -9.643  14.264  68.823  1.00  0.00    -0.210 OA 
HETATM   24  C   UNL     1     -10.458  15.949  67.272  1.00  0.00    -0.310 C  
HETATM   25  O   UNL     1     -12.530  13.806  66.699  1.00  0.00    -0.386 OA 
HETATM   26  C   UNL     1     -11.734  15.609  68.084  1.00  0.00    -0.199 C  
HETATM   27  O   UNL     1     -10.683  15.974  65.863  1.00  0.00    -0.323 OA 
HETATM   28  H   UNL     1     -12.389  15.834  69.941  1.00  0.00     0.000 HD 
HETATM   29  H   UNL     1     -11.406  16.554  65.653  1.00  0.00     0.000 HD 
HETATM   30  O   UNL     1     -11.607  16.042  69.444  1.00  0.00    -0.343 OA 
HETATM   31  C   UNL     1     -12.001  14.106  68.018  1.00  0.00    -0.337 C  
BRANCH  20  32
HETATM   32  C   UNL     1      -7.983  15.852  67.586  1.00  0.00    -0.146 C  
HETATM   33  O   UNL     1      -7.787  16.547  66.351  1.00  0.00    -0.281 OA 
HETATM   34  H   UNL     1      -6.997  17.073  66.332  1.00  0.00     0.000 HD 
ENDBRANCH  20  32
ENDBRANCH  13  18
ENDBRANCH  10  11
ENDBRANCH   7  10
ENDBRANCH   3   4
ENDBRANCH   2   3
TORSDOF 6
ENDMDL
MODEL      134
REMARK 921   NORMALIZED FREE ENERGY PREDICTED BY IDOCK:   -5.29 KCAL/MOL
REMARK 922        TOTAL FREE ENERGY PREDICTED BY IDOCK:   -8.29 KCAL/MOL
REMARK 923 INTER-LIGAND FREE ENERGY PREDICTED BY IDOCK:   -7.41 KCAL/MOL
REMARK 924 INTRA-LIGAND FREE ENERGY PREDICTED BY IDOCK:   -0.88 KCAL/MOL
REMARK 927      BINDING AFFINITY PREDICTED BY RF-SCORE:    0.00 PKD
ROOT
HETATM    1  C   UNL     1      -5.468   5.300  69.031  1.00  0.00    -0.004 C  
HETATM    2  C   UNL     1      -5.184   5.450  67.544  1.00  0.00    -0.004 C  
ENDROOT
BRANCH   2   3
HETATM    3  O   UNL     1      -5.825   6.633  67.052  1.00  0.00    -0.013 OA 
BRANCH   3   4
HETATM    4  C   UNL     1      -6.974   6.989  67.711  1.00  0.00    -0.083 A  
HETATM    5  C   UNL     1      -8.046   6.104  67.597  1.00  0.00    -0.113 A  
HETATM    6  C   UNL     1      -9.313   6.450  68.088  1.00  0.00    -0.108 A  
HETATM    7  C   UNL     1      -9.525   7.696  68.702  1.00  0.00    -0.151 A  
HETATM    8  C   UNL     1      -8.410   8.517  68.928  1.00  0.00    -0.118 A  
HETATM    9  C   UNL     1      -7.143   8.164  68.442  1.00  0.00    -0.077 A  
BRANCH   7  10
HETATM   10  C   UNL     1     -10.935   8.225  68.913  1.00  0.00     0.119 C  
BRANCH  10  11
HETATM   11  C   UNL     1     -11.152   9.693  69.201  1.00  0.00    -0.123 A  
HETATM   12  C   UNL     1     -11.394  10.563  68.130  1.00  0.00    -0.324 A  
HETATM   13  C   UNL     1     -11.595  11.957  68.305  1.00  0.00    -0.390 A  
HETATM   14 CL   UNL     1     -10.701   9.331  71.876  1.00  0.00    -0.344 Cl 
HETATM   15  C   UNL     1     -11.780  12.435  69.602  1.00  0.00    -0.377 A  
HETATM   16  C   UNL     1     -11.556  11.580  70.687  1.00  0.00     0.051 A  
HETATM   17  C   UNL     1     -11.178  10.243  70.486  1.00  0.00    -0.330 A  
BRANCH  13  18
HETATM   18  C   UNL     1     -11.291  12.872  67.133  1.00  0.00    -0.306 C  
HETATM   19  C   UNL     1      -9.404  14.167  67.123  1.00  0.00    -0.237 C  
HETATM   20  C   UNL     1     -10.556  14.882  66.453  1.00  0.00    -0.307 C  
HETATM   21  O   UNL     1      -9.823  12.802  67.097  1.00  0.00    -0.210 OA 
HETATM   22  H   UNL     1     -10.894  11.208  64.287  1.00  0.00     0.000 HD 
HETATM   23  O   UNL     1     -11.635  14.303  67.245  1.00  0.00    -0.338 OA 
HETATM   24  C   UNL     1     -10.866  14.562  64.953  1.00  0.00    -0.421 C  
HETATM   25  O   UNL     1     -10.638  11.542  65.139  1.00  0.00    -0.276 OA 
HETATM   26  C   UNL     1     -11.991  13.506  64.803  1.00  0.00    -0.390 C  
HETATM   27  O   UNL     1      -9.669  14.206  64.262  1.00  0.00    -0.423 OA 
HETATM   28  H   UNL     1     -13.962  13.431  64.991  1.00  0.00     0.000 HD 
HETATM   29  H   UNL     1      -9.857  14.012  63.352  1.00  0.00     0.000 HD 
HETATM   30  O   UNL     1     -13.273  14.079  65.083  1.00  0.00    -0.768 OA 
HETATM   31  C   UNL     1     -11.713  12.322  65.728  1.00  0.00    -0.385 C  
BRANCH  20  32
HETATM   32  C   UNL     1     -10.247  16.394  66.533  1.00  0.00    -0.304 C  
HETATM   33  O   UNL     1     -10.489  17.095  65.309  1.00  0.00    -0.655 OA 
HETATM   34  H   UNL     1     -10.298  18.024  65.359  1.00  0.00     0.000 HD 
ENDBRANCH  20  32
ENDBRANCH  13  18
ENDBRANCH  10  11
ENDBRANCH   7  10
ENDBRANCH   3   4
ENDBRANCH   2   3
TORSDOF 6
ENDMDL
MODEL      135
REMARK 921   NORMALIZED FREE ENERGY PREDICTED BY IDOCK:   -5.27 KCAL/MOL
REMARK 922        TOTAL FREE ENERGY PREDICTED BY IDOCK:   -8.26 KCAL/MOL
REMARK 923 INTER-LIGAND FREE ENERGY PREDICTED BY IDOCK:   -6.97 KCAL/MOL
REMARK 924 INTRA-LIGAND FREE ENERGY PREDICTED BY IDOCK:   -1.29 KCAL/MOL
REMARK 927      BINDING AFFINITY PREDICTED BY RF-SCORE:    0.00 PKD
ROOT
HETATM    1  C   UNL     1      -7.697  16.971  66.652  1.00  0.00    -0.302 C  
HETATM    2  C   UNL     1      -8.789  16.105  66.044  1.00  0.00    -0.278 C  
ENDROOT
BRANCH   2   3
HETATM    3  O   UNL     1     -10.072  16.586  66.466  1.00  0.00    -0.274 OA 
BRANCH   3   4
HETATM    4  C   UNL     1     -10.829  15.682  67.167  1.00  0.00    -0.297 A  
HETATM    5  C   UNL     1     -10.934  15.902  68.540  1.00  0.00    -0.324 A  
HETATM    6  C   UNL     1     -11.540  14.952  69.372  1.00  0.00    -0.337 A  
HETATM    7  C   UNL     1     -12.052  13.757  68.837  1.00  0.00    -0.348 A  
HETATM    8  C   UNL     1     -12.059  13.611  67.442  1.00  0.00    -0.375 A  
HETATM    9  C   UNL     1     -11.458  14.569  66.612  1.00  0.00    -0.373 A  
BRANCH   7  10
HETATM   10  C   UNL     1     -12.382  12.582  69.743  1.00  0.00    -0.085 C  
BRANCH  10  11
HETATM   11  C   UNL     1     -11.452  11.391  69.798  1.00  0.00    -0.376 A  
HETATM   12  C   UNL     1     -10.255  11.434  69.071  1.00  0.00    -0.137 A  
HETATM   13  C   UNL     1      -9.329  10.359  69.054  1.00  0.00    -0.201 A  
HETATM   14 CL   UNL     1     -13.199   9.979  71.361  1.00  0.00    -0.479 Cl 
HETATM   15  C   UNL     1      -9.513   9.321  69.967  1.00  0.00    -0.236 A  
HETATM   16  C   UNL     1     -10.696   9.264  70.713  1.00  0.00    -0.350 A  
HETATM   17  C   UNL     1     -11.683  10.253  70.576  1.00  0.00    -0.331 A  
BRANCH  13  18
HETATM   18  C   UNL     1      -8.396  10.242  67.862  1.00  0.00    -0.114 C  
HETATM   19  C   UNL     1      -8.949  11.182  65.851  1.00  0.00    -0.199 C  
HETATM   20  C   UNL     1      -8.193   9.887  65.655  1.00  0.00    -0.138 C  
HETATM   21  O   UNL     1      -8.629  11.532  67.197  1.00  0.00    -0.145 OA 
HETATM   22  H   UNL     1      -5.451  11.678  68.407  1.00  0.00     0.000 HD 
HETATM   23  O   UNL     1      -8.664   9.201  66.852  1.00  0.00    -0.121 OA 
HETATM   24  C   UNL     1      -6.631   9.913  65.727  1.00  0.00    -0.094 C  
HETATM   25  O   UNL     1      -6.378  11.652  68.200  1.00  0.00    -0.049 OA 
HETATM   26  C   UNL     1      -6.105   9.513  67.128  1.00  0.00    -0.063 C  
HETATM   27  O   UNL     1      -6.133  11.174  65.281  1.00  0.00    -0.364 OA 
HETATM   28  H   UNL     1      -5.900   7.856  68.196  1.00  0.00     0.000 HD 
HETATM   29  H   UNL     1      -5.185  11.190  65.325  1.00  0.00     0.000 HD 
HETATM   30  O   UNL     1      -6.223   8.101  67.337  1.00  0.00    -0.052 OA 
HETATM   31  C   UNL     1      -6.867  10.284  68.204  1.00  0.00    -0.066 C  
BRANCH  20  32
HETATM   32  C   UNL     1      -8.568   9.362  64.250  1.00  0.00    -0.196 C  
HETATM   33  O   UNL     1      -9.368  10.274  63.492  1.00  0.00    -0.262 OA 
HETATM   34  H   UNL     1      -9.599   9.951  62.629  1.00  0.00     0.000 HD 
ENDBRANCH  20  32
ENDBRANCH  13  18
ENDBRANCH  10  11
ENDBRANCH   7  10
ENDBRANCH   3   4
ENDBRANCH   2   3
TORSDOF 6
ENDMDL
MODEL      136
REMARK 921   NORMALIZED FREE ENERGY PREDICTED BY IDOCK:   -5.27 KCAL/MOL
REMARK 922        TOTAL FREE ENERGY PREDICTED BY IDOCK:   -8.25 KCAL/MOL
REMARK 923 INTER-LIGAND FREE ENERGY PREDICTED BY IDOCK:   -7.10 KCAL/MOL
REMARK 924 INTRA-LIGAND FREE ENERGY PREDICTED BY IDOCK:   -1.16 KCAL/MOL
REMARK 927      BINDING AFFINITY PREDICTED BY RF-SCORE:    0.00 PKD
ROOT
HETATM    1  C   UNL     1     -14.371  14.381  72.117  1.00  0.00    -0.604 C  
HETATM    2  C   UNL     1     -12.884  14.660  71.961  1.00  0.00    -0.330 C  
ENDROOT
BRANCH   2   3
HETATM    3  O   UNL     1     -12.696  15.757  71.057  1.00  0.00    -0.463 OA 
BRANCH   3   4
HETATM    4  C   UNL     1     -12.098  15.432  69.866  1.00  0.00    -0.355 A  
HETATM    5  C   UNL     1     -12.130  14.085  69.510  1.00  0.00    -0.397 A  
HETATM    6  C   UNL     1     -11.407  13.621  68.403  1.00  0.00    -0.329 A  
HETATM    7  C   UNL     1     -10.632  14.506  67.634  1.00  0.00    -0.251 A  
HETATM    8  C   UNL     1     -10.715  15.876  67.925  1.00  0.00    -0.312 A  
HETATM    9  C   UNL     1     -11.447  16.337  69.028  1.00  0.00    -0.268 A  
BRANCH   7  10
HETATM   10  C   UNL     1      -9.580  13.979  66.672  1.00  0.00    -0.299 C  
BRANCH  10  11
HETATM   11  C   UNL     1      -8.541  12.995  67.159  1.00  0.00    -0.195 A  
HETATM   12  C   UNL     1      -8.883  11.639  67.246  1.00  0.00    -0.164 A  
HETATM   13  C   UNL     1      -7.976  10.648  67.704  1.00  0.00    -0.106 A  
HETATM   14 CL   UNL     1      -6.727  14.992  67.617  1.00  0.00    -0.191 Cl 
HETATM   15  C   UNL     1      -6.637  11.005  67.859  1.00  0.00    -0.062 A  
HETATM   16  C   UNL     1      -6.271  12.352  67.765  1.00  0.00    -0.111 A  
HETATM   17  C   UNL     1      -7.227  13.342  67.487  1.00  0.00    -0.150 A  
BRANCH  13  18
HETATM   18  C   UNL     1      -8.554   9.372  68.289  1.00  0.00    -0.120 C  
HETATM   19  C   UNL     1      -8.047   7.336  67.377  1.00  0.00    -0.113 C  
HETATM   20  C   UNL     1      -9.470   7.361  67.890  1.00  0.00    -0.140 C  
HETATM   21  O   UNL     1      -7.445   8.433  68.063  1.00  0.00    -0.094 OA 
HETATM   22  H   UNL     1      -7.611   8.873  71.434  1.00  0.00     0.000 HD 
HETATM   23  O   UNL     1      -9.741   8.773  67.648  1.00  0.00    -0.156 OA 
HETATM   24  C   UNL     1      -9.722   7.099  69.411  1.00  0.00    -0.160 C  
HETATM   25  O   UNL     1      -7.511   8.876  70.489  1.00  0.00    -0.067 OA 
HETATM   26  C   UNL     1      -9.859   8.417  70.215  1.00  0.00    -0.181 C  
HETATM   27  O   UNL     1      -8.725   6.224  69.938  1.00  0.00    -0.138 OA 
HETATM   28  H   UNL     1     -11.213   9.843  70.467  1.00  0.00     0.000 HD 
HETATM   29  H   UNL     1      -8.878   6.066  70.862  1.00  0.00     0.000 HD 
HETATM   30  O   UNL     1     -11.129   9.035  69.975  1.00  0.00    -0.239 OA 
HETATM   31  C   UNL     1      -8.719   9.365  69.848  1.00  0.00    -0.197 C  
BRANCH  20  32
HETATM   32  C   UNL     1     -10.241   6.269  67.114  1.00  0.00    -0.196 C  
HETATM   33  O   UNL     1     -11.658   6.462  67.108  1.00  0.00    -0.708 OA 
HETATM   34  H   UNL     1     -12.132   5.791  66.632  1.00  0.00     0.000 HD 
ENDBRANCH  20  32
ENDBRANCH  13  18
ENDBRANCH  10  11
ENDBRANCH   7  10
ENDBRANCH   3   4
ENDBRANCH   2   3
TORSDOF 6
ENDMDL
MODEL      137
REMARK 921   NORMALIZED FREE ENERGY PREDICTED BY IDOCK:   -5.27 KCAL/MOL
REMARK 922        TOTAL FREE ENERGY PREDICTED BY IDOCK:   -8.25 KCAL/MOL
REMARK 923 INTER-LIGAND FREE ENERGY PREDICTED BY IDOCK:   -7.51 KCAL/MOL
REMARK 924 INTRA-LIGAND FREE ENERGY PREDICTED BY IDOCK:   -0.74 KCAL/MOL
REMARK 927      BINDING AFFINITY PREDICTED BY RF-SCORE:    0.00 PKD
ROOT
HETATM    1  C   UNL     1     -14.411  14.471  71.654  1.00  0.00    -0.562 C  
HETATM    2  C   UNL     1     -13.454  13.690  72.541  1.00  0.00    -0.570 C  
ENDROOT
BRANCH   2   3
HETATM    3  O   UNL     1     -13.386  12.331  72.090  1.00  0.00    -0.526 OA 
BRANCH   3   4
HETATM    4  C   UNL     1     -12.516  12.107  71.053  1.00  0.00    -0.269 A  
HETATM    5  C   UNL     1     -11.951  13.239  70.469  1.00  0.00    -0.319 A  
HETATM    6  C   UNL     1     -11.185  13.134  69.300  1.00  0.00    -0.266 A  
HETATM    7  C   UNL     1     -10.975  11.883  68.694  1.00  0.00    -0.271 A  
HETATM    8  C   UNL     1     -11.437  10.741  69.365  1.00  0.00    -0.366 A  
HETATM    9  C   UNL     1     -12.197  10.851  70.539  1.00  0.00    -0.459 A  
BRANCH   7  10
HETATM   10  C   UNL     1     -10.464  11.791  67.266  1.00  0.00    -0.242 C  
BRANCH  10  11
HETATM   11  C   UNL     1     -10.373  13.040  66.418  1.00  0.00    -0.287 A  
HETATM   12  C   UNL     1      -9.501  14.063  66.813  1.00  0.00    -0.292 A  
HETATM   13  C   UNL     1      -9.361  15.273  66.085  1.00  0.00    -0.360 A  
HETATM   14 CL   UNL     1     -12.324  12.142  64.721  1.00  0.00    -0.388 Cl 
HETATM   15  C   UNL     1      -9.944  15.350  64.821  1.00  0.00     0.321 A  
HETATM   16  C   UNL     1     -10.809  14.334  64.401  1.00  0.00    -0.168 A  
HETATM   17  C   UNL     1     -11.073  13.226  65.222  1.00  0.00    -0.288 A  
BRANCH  13  18
HETATM   18  C   UNL     1      -8.869  16.499  66.833  1.00  0.00    -0.208 C  
HETATM   19  C   UNL     1      -7.918  18.250  65.707  1.00  0.00     0.159 C  
HETATM   20  C   UNL     1      -7.263  18.053  67.056  1.00  0.00    -0.196 C  
HETATM   21  O   UNL     1      -9.159  17.559  65.856  1.00  0.00    -0.512 OA 
HETATM   22  H   UNL     1     -11.312  18.075  68.441  1.00  0.00     0.000 HD 
HETATM   23  O   UNL     1      -7.431  16.607  67.148  1.00  0.00    -0.150 OA 
HETATM   24  C   UNL     1      -7.947  18.674  68.319  1.00  0.00    -0.312 C  
HETATM   25  O   UNL     1     -10.791  17.824  67.686  1.00  0.00    -0.363 OA 
HETATM   26  C   UNL     1      -8.828  17.645  69.071  1.00  0.00    -0.020 C  
HETATM   27  O   UNL     1      -8.653  19.864  67.968  1.00  0.00    -0.307 OA 
HETATM   28  H   UNL     1      -8.560  16.085  70.264  1.00  0.00     0.000 HD 
HETATM   29  H   UNL     1      -9.068  20.241  68.734  1.00  0.00     0.000 HD 
HETATM   30  O   UNL     1      -8.020  16.715  69.803  1.00  0.00     0.313 OA 
HETATM   31  C   UNL     1      -9.728  16.913  68.077  1.00  0.00    -0.256 C  
BRANCH  20  32
HETATM   32  C   UNL     1      -5.852  18.675  66.960  1.00  0.00    -0.150 C  
HETATM   33  O   UNL     1      -5.628  19.735  67.893  1.00  0.00    -0.197 OA 
HETATM   34  H   UNL     1      -4.760  20.118  67.834  1.00  0.00     0.000 HD 
ENDBRANCH  20  32
ENDBRANCH  13  18
ENDBRANCH  10  11
ENDBRANCH   7  10
ENDBRANCH   3   4
ENDBRANCH   2   3
TORSDOF 6
ENDMDL
MODEL      138
REMARK 921   NORMALIZED FREE ENERGY PREDICTED BY IDOCK:   -5.26 KCAL/MOL
REMARK 922        TOTAL FREE ENERGY PREDICTED BY IDOCK:   -8.24 KCAL/MOL
REMARK 923 INTER-LIGAND FREE ENERGY PREDICTED BY IDOCK:   -6.99 KCAL/MOL
REMARK 924 INTRA-LIGAND FREE ENERGY PREDICTED BY IDOCK:   -1.25 KCAL/MOL
REMARK 927      BINDING AFFINITY PREDICTED BY RF-SCORE:    0.00 PKD
ROOT
HETATM    1  C   UNL     1     -13.567  15.077  72.761  1.00  0.00    -0.562 C  
HETATM    2  C   UNL     1     -12.532  15.890  71.999  1.00  0.00    -0.464 C  
ENDROOT
BRANCH   2   3
HETATM    3  O   UNL     1     -12.893  15.945  70.613  1.00  0.00    -0.442 OA 
BRANCH   3   4
HETATM    4  C   UNL     1     -11.890  15.615  69.738  1.00  0.00    -0.363 A  
HETATM    5  C   UNL     1     -11.906  14.310  69.249  1.00  0.00    -0.372 A  
HETATM    6  C   UNL     1     -10.838  13.820  68.484  1.00  0.00    -0.280 A  
HETATM    7  C   UNL     1      -9.730  14.636  68.200  1.00  0.00    -0.220 A  
HETATM    8  C   UNL     1      -9.789  15.984  68.584  1.00  0.00    -0.218 A  
HETATM    9  C   UNL     1     -10.863  16.472  69.342  1.00  0.00    -0.311 A  
BRANCH   7  10
HETATM   10  C   UNL     1      -8.432  14.030  67.692  1.00  0.00    -0.193 C  
BRANCH  10  11
HETATM   11  C   UNL     1      -7.821  12.849  68.412  1.00  0.00    -0.133 A  
HETATM   12  C   UNL     1      -8.437  11.595  68.298  1.00  0.00    -0.160 A  
HETATM   13  C   UNL     1      -7.941  10.436  68.949  1.00  0.00    -0.123 A  
HETATM   14 CL   UNL     1      -5.887  14.420  69.544  1.00  0.00    -0.095 Cl 
HETATM   15  C   UNL     1      -6.678  10.503  69.537  1.00  0.00    -0.089 A  
HETATM   16  C   UNL     1      -6.040  11.743  69.651  1.00  0.00    -0.119 A  
HETATM   17  C   UNL     1      -6.639  12.912  69.156  1.00  0.00    -0.104 A  
BRANCH  13  18
HETATM   18  C   UNL     1      -8.918   9.311  69.239  1.00  0.00    -0.147 C  
HETATM   19  C   UNL     1      -9.737   8.992  71.351  1.00  0.00    -0.299 C  
HETATM   20  C   UNL     1      -9.542   7.672  70.640  1.00  0.00    -0.163 C  
HETATM   21  O   UNL     1      -9.758   9.929  70.274  1.00  0.00    -0.248 OA 
HETATM   22  H   UNL     1     -11.752   9.615  67.534  1.00  0.00     0.000 HD 
HETATM   23  O   UNL     1      -8.401   8.056  69.819  1.00  0.00    -0.119 OA 
HETATM   24  C   UNL     1     -10.660   7.174  69.666  1.00  0.00    -0.234 C  
HETATM   25  O   UNL     1     -11.134   9.805  68.231  1.00  0.00    -0.203 OA 
HETATM   26  C   UNL     1     -10.348   7.529  68.190  1.00  0.00    -0.200 C  
HETATM   27  O   UNL     1     -11.939   7.640  70.095  1.00  0.00    -0.478 OA 
HETATM   28  H   UNL     1      -9.133   6.895  66.758  1.00  0.00     0.000 HD 
HETATM   29  H   UNL     1     -12.618   7.338  69.503  1.00  0.00     0.000 HD 
HETATM   30  O   UNL     1      -9.324   6.678  67.662  1.00  0.00    -0.121 OA 
HETATM   31  C   UNL     1      -9.936   8.997  68.090  1.00  0.00    -0.175 C  
BRANCH  20  32
HETATM   32  C   UNL     1      -9.393   6.594  71.738  1.00  0.00    -0.148 C  
HETATM   33  O   UNL     1     -10.590   5.847  71.974  1.00  0.00    -0.207 OA 
HETATM   34  H   UNL     1     -10.498   5.184  72.649  1.00  0.00     0.000 HD 
ENDBRANCH  20  32
ENDBRANCH  13  18
ENDBRANCH  10  11
ENDBRANCH   7  10
ENDBRANCH   3   4
ENDBRANCH   2   3
TORSDOF 6
ENDMDL
MODEL      139
REMARK 921   NORMALIZED FREE ENERGY PREDICTED BY IDOCK:   -5.22 KCAL/MOL
REMARK 922        TOTAL FREE ENERGY PREDICTED BY IDOCK:   -8.19 KCAL/MOL
REMARK 923 INTER-LIGAND FREE ENERGY PREDICTED BY IDOCK:   -7.96 KCAL/MOL
REMARK 924 INTRA-LIGAND FREE ENERGY PREDICTED BY IDOCK:   -0.22 KCAL/MOL
REMARK 927      BINDING AFFINITY PREDICTED BY RF-SCORE:    0.00 PKD
ROOT
HETATM    1  C   UNL     1     -14.353  14.638  71.985  1.00  0.00    -0.642 C  
HETATM    2  C   UNL     1     -13.467  13.656  72.734  1.00  0.00    -0.352 C  
ENDROOT
BRANCH   2   3
HETATM    3  O   UNL     1     -13.684  12.333  72.227  1.00  0.00    -0.400 OA 
BRANCH   3   4
HETATM    4  C   UNL     1     -12.932  12.001  71.129  1.00  0.00    -0.158 A  
HETATM    5  C   UNL     1     -12.313  13.059  70.466  1.00  0.00    -0.365 A  
HETATM    6  C   UNL     1     -11.662  12.852  69.242  1.00  0.00    -0.378 A  
HETATM    7  C   UNL     1     -11.625  11.574  68.659  1.00  0.00    -0.375 A  
HETATM    8  C   UNL     1     -12.135  10.498  69.402  1.00  0.00    -0.175 A  
HETATM    9  C   UNL     1     -12.778  10.708  70.630  1.00  0.00    -0.445 A  
BRANCH   7  10
HETATM   10  C   UNL     1     -11.248  11.399  67.197  1.00  0.00    -0.363 C  
BRANCH  10  11
HETATM   11  C   UNL     1     -10.981  12.616  66.340  1.00  0.00    -0.304 A  
HETATM   12  C   UNL     1     -10.228  13.669  66.877  1.00  0.00    -0.261 A  
HETATM   13  C   UNL     1      -9.939  14.852  66.149  1.00  0.00    -0.323 A  
HETATM   14 CL   UNL     1     -12.495  11.620  64.289  1.00  0.00    -0.121 Cl 
HETATM   15  C   UNL     1     -10.224  14.870  64.785  1.00  0.00    -0.153 A  
HETATM   16  C   UNL     1     -10.965  13.824  64.225  1.00  0.00    -0.268 A  
HETATM   17  C   UNL     1     -11.397  12.744  65.012  1.00  0.00    -0.309 A  
BRANCH  13  18
HETATM   18  C   UNL     1      -9.637  16.115  66.937  1.00  0.00    -0.230 C  
HETATM   19  C   UNL     1      -9.148  16.008  69.170  1.00  0.00    -0.246 C  
HETATM   20  C   UNL     1      -9.930  17.261  68.845  1.00  0.00    -0.307 C  
HETATM   21  O   UNL     1      -8.640  15.615  67.895  1.00  0.00    -0.159 OA 
HETATM   22  H   UNL     1      -6.949  17.706  65.809  1.00  0.00     0.000 HD 
HETATM   23  O   UNL     1     -10.715  16.723  67.740  1.00  0.00    -0.337 OA 
HETATM   24  C   UNL     1      -9.157  18.505  68.295  1.00  0.00    -0.317 C  
HETATM   25  O   UNL     1      -7.422  17.034  66.286  1.00  0.00    -0.279 OA 
HETATM   26  C   UNL     1      -9.206  18.585  66.748  1.00  0.00    -0.297 C  
HETATM   27  O   UNL     1      -7.828  18.535  68.814  1.00  0.00    -0.312 OA 
HETATM   28  H   UNL     1     -10.524  19.069  65.349  1.00  0.00     0.000 HD 
HETATM   29  H   UNL     1      -7.359  19.290  68.480  1.00  0.00     0.000 HD 
HETATM   30  O   UNL     1     -10.494  19.020  66.297  1.00  0.00    -0.421 OA 
HETATM   31  C   UNL     1      -8.856  17.223  66.151  1.00  0.00    -0.160 C  
BRANCH  20  32
HETATM   32  C   UNL     1     -10.620  17.706  70.155  1.00  0.00     1.011 C  
HETATM   33  O   UNL     1     -11.300  16.647  70.834  1.00  0.00    -0.516 OA 
HETATM   34  H   UNL     1     -11.724  16.921  71.639  1.00  0.00     0.000 HD 
ENDBRANCH  20  32
ENDBRANCH  13  18
ENDBRANCH  10  11
ENDBRANCH   7  10
ENDBRANCH   3   4
ENDBRANCH   2   3
TORSDOF 6
ENDMDL
MODEL      140
REMARK 921   NORMALIZED FREE ENERGY PREDICTED BY IDOCK:   -5.19 KCAL/MOL
REMARK 922        TOTAL FREE ENERGY PREDICTED BY IDOCK:   -8.15 KCAL/MOL
REMARK 923 INTER-LIGAND FREE ENERGY PREDICTED BY IDOCK:   -6.65 KCAL/MOL
REMARK 924 INTRA-LIGAND FREE ENERGY PREDICTED BY IDOCK:   -1.50 KCAL/MOL
REMARK 927      BINDING AFFINITY PREDICTED BY RF-SCORE:    0.00 PKD
ROOT
HETATM    1  C   UNL     1      -7.780  19.661  68.854  1.00  0.00    -0.326 C  
HETATM    2  C   UNL     1      -8.911  18.714  68.484  1.00  0.00    -0.331 C  
ENDROOT
BRANCH   2   3
HETATM    3  O   UNL     1      -8.434  17.363  68.518  1.00  0.00    -0.261 OA 
BRANCH   3   4
HETATM    4  C   UNL     1      -9.396  16.403  68.332  1.00  0.00    -0.217 A  
HETATM    5  C   UNL     1      -9.050  15.106  68.708  1.00  0.00    -0.200 A  
HETATM    6  C   UNL     1      -9.891  14.026  68.407  1.00  0.00    -0.232 A  
HETATM    7  C   UNL     1     -11.097  14.232  67.717  1.00  0.00    -0.294 A  
HETATM    8  C   UNL     1     -11.494  15.554  67.464  1.00  0.00    -0.184 A  
HETATM    9  C   UNL     1     -10.653  16.632  67.775  1.00  0.00    -0.342 A  
BRANCH   7  10
HETATM   10  C   UNL     1     -11.833  13.064  67.078  1.00  0.00    -0.437 C  
BRANCH  10  11
HETATM   11  C   UNL     1     -11.205  12.324  65.919  1.00  0.00    -0.381 A  
HETATM   12  C   UNL     1     -10.430  11.187  66.184  1.00  0.00    -0.307 A  
HETATM   13  C   UNL     1      -9.794  10.438  65.160  1.00  0.00    -0.378 A  
HETATM   14 CL   UNL     1     -12.147  14.155  64.117  1.00  0.00    -0.480 Cl 
HETATM   15  C   UNL     1     -10.135  10.715  63.836  1.00  0.00    -0.356 A  
HETATM   16  C   UNL     1     -10.917  11.838  63.550  1.00  0.00    -0.499 A  
HETATM   17  C   UNL     1     -11.387  12.672  64.578  1.00  0.00    -0.333 A  
BRANCH  13  18
HETATM   18  C   UNL     1      -8.573   9.616  65.534  1.00  0.00    -0.147 C  
HETATM   19  C   UNL     1      -8.202   7.574  64.572  1.00  0.00    -0.033 C  
HETATM   20  C   UNL     1      -7.743   7.586  66.013  1.00  0.00    -0.094 C  
HETATM   21  O   UNL     1      -8.272   8.963  64.252  1.00  0.00    -0.154 OA 
HETATM   22  H   UNL     1      -5.726  11.157  64.792  1.00  0.00     0.000 HD 
HETATM   23  O   UNL     1      -8.726   8.533  66.525  1.00  0.00    -0.122 OA 
HETATM   24  C   UNL     1      -6.329   8.169  66.343  1.00  0.00    -0.050 C  
HETATM   25  O   UNL     1      -6.513  10.655  64.612  1.00  0.00    -0.030 OA 
HETATM   26  C   UNL     1      -6.400   9.649  66.798  1.00  0.00    -0.066 C  
HETATM   27  O   UNL     1      -5.437   7.963  65.248  1.00  0.00    -0.032 OA 
HETATM   28  H   UNL     1      -6.944  10.658  68.415  1.00  0.00     0.000 HD 
HETATM   29  H   UNL     1      -4.579   8.317  65.449  1.00  0.00     0.000 HD 
HETATM   30  O   UNL     1      -6.901   9.751  68.136  1.00  0.00    -0.067 OA 
HETATM   31  C   UNL     1      -7.276  10.444  65.830  1.00  0.00    -0.135 C  
BRANCH  20  32
HETATM   32  C   UNL     1      -7.744   6.116  66.492  1.00  0.00    -0.103 C  
HETATM   33  O   UNL     1      -6.800   5.289  65.806  1.00  0.00    -0.061 OA 
HETATM   34  H   UNL     1      -6.801   4.386  66.100  1.00  0.00     0.000 HD 
ENDBRANCH  20  32
ENDBRANCH  13  18
ENDBRANCH  10  11
ENDBRANCH   7  10
ENDBRANCH   3   4
ENDBRANCH   2   3
TORSDOF 6
ENDMDL
MODEL      141
REMARK 921   NORMALIZED FREE ENERGY PREDICTED BY IDOCK:   -5.17 KCAL/MOL
REMARK 922        TOTAL FREE ENERGY PREDICTED BY IDOCK:   -8.12 KCAL/MOL
REMARK 923 INTER-LIGAND FREE ENERGY PREDICTED BY IDOCK:   -6.71 KCAL/MOL
REMARK 924 INTRA-LIGAND FREE ENERGY PREDICTED BY IDOCK:   -1.41 KCAL/MOL
REMARK 927      BINDING AFFINITY PREDICTED BY RF-SCORE:    0.00 PKD
ROOT
HETATM    1  C   UNL     1      -5.956  17.197  70.016  1.00  0.00    -0.183 C  
HETATM    2  C   UNL     1      -6.861  16.216  69.287  1.00  0.00    -0.206 C  
ENDROOT
BRANCH   2   3
HETATM    3  O   UNL     1      -8.107  16.854  68.979  1.00  0.00    -0.237 OA 
BRANCH   3   4
HETATM    4  C   UNL     1      -8.970  16.106  68.220  1.00  0.00    -0.189 A  
HETATM    5  C   UNL     1     -10.268  15.978  68.713  1.00  0.00    -0.225 A  
HETATM    6  C   UNL     1     -11.179  15.102  68.107  1.00  0.00    -0.326 A  
HETATM    7  C   UNL     1     -10.799  14.334  66.993  1.00  0.00    -0.297 A  
HETATM    8  C   UNL     1      -9.536  14.572  66.430  1.00  0.00    -0.324 A  
HETATM    9  C   UNL     1      -8.630  15.455  67.035  1.00  0.00    -0.262 A  
BRANCH   7  10
HETATM   10  C   UNL     1     -11.634  13.143  66.552  1.00  0.00    -0.402 C  
BRANCH  10  11
HETATM   11  C   UNL     1     -10.976  11.797  66.351  1.00  0.00    -0.341 A  
HETATM   12  C   UNL     1     -10.928  10.900  67.427  1.00  0.00    -0.353 A  
HETATM   13  C   UNL     1     -10.319   9.621  67.332  1.00  0.00    -0.306 A  
HETATM   14 CL   UNL     1     -10.262  12.424  63.785  1.00  0.00    -0.431 Cl 
HETATM   15  C   UNL     1      -9.958   9.159  66.067  1.00  0.00    -0.293 A  
HETATM   16  C   UNL     1     -10.010  10.033  64.976  1.00  0.00    -0.320 A  
HETATM   17  C   UNL     1     -10.448  11.358  65.133  1.00  0.00    -0.295 A  
BRANCH  13  18
HETATM   18  C   UNL     1      -9.817   8.976  68.611  1.00  0.00    -0.165 C  
HETATM   19  C   UNL     1      -8.020   7.561  68.577  1.00  0.00    -0.123 C  
HETATM   20  C   UNL     1      -9.037   7.121  69.606  1.00  0.00    -0.140 C  
HETATM   21  O   UNL     1      -8.371   8.926  68.350  1.00  0.00    -0.122 OA 
HETATM   22  H   UNL     1      -8.780  11.209  70.841  1.00  0.00     0.000 HD 
HETATM   23  O   UNL     1     -10.232   7.593  68.917  1.00  0.00    -0.199 OA 
HETATM   24  C   UNL     1      -9.020   7.802  71.014  1.00  0.00    -0.142 C  
HETATM   25  O   UNL     1      -8.718  10.668  70.062  1.00  0.00     0.271 OA 
HETATM   26  C   UNL     1     -10.048   8.958  71.115  1.00  0.00    -0.271 C  
HETATM   27  O   UNL     1      -7.694   8.202  71.358  1.00  0.00    -0.078 OA 
HETATM   28  H   UNL     1     -12.012   9.158  71.292  1.00  0.00     0.000 HD 
HETATM   29  H   UNL     1      -7.684   8.616  72.213  1.00  0.00     0.000 HD 
HETATM   30  O   UNL     1     -11.382   8.450  71.230  1.00  0.00    -0.250 OA 
HETATM   31  C   UNL     1      -9.920   9.869  69.895  1.00  0.00    -0.252 C  
BRANCH  20  32
HETATM   32  C   UNL     1      -8.810   5.610  69.838  1.00  0.00    -0.129 C  
HETATM   33  O   UNL     1      -8.473   5.281  71.189  1.00  0.00    -0.119 OA 
HETATM   34  H   UNL     1      -8.333   4.352  71.331  1.00  0.00     0.000 HD 
ENDBRANCH  20  32
ENDBRANCH  13  18
ENDBRANCH  10  11
ENDBRANCH   7  10
ENDBRANCH   3   4
ENDBRANCH   2   3
TORSDOF 6
ENDMDL
MODEL      142
REMARK 921   NORMALIZED FREE ENERGY PREDICTED BY IDOCK:   -5.16 KCAL/MOL
REMARK 922        TOTAL FREE ENERGY PREDICTED BY IDOCK:   -8.10 KCAL/MOL
REMARK 923 INTER-LIGAND FREE ENERGY PREDICTED BY IDOCK:   -6.63 KCAL/MOL
REMARK 924 INTRA-LIGAND FREE ENERGY PREDICTED BY IDOCK:   -1.47 KCAL/MOL
REMARK 927      BINDING AFFINITY PREDICTED BY RF-SCORE:    0.00 PKD
ROOT
HETATM    1  C   UNL     1     -10.377   2.270  63.227  1.00  0.00    -0.153 C  
HETATM    2  C   UNL     1      -9.668   2.339  64.570  1.00  0.00    -0.034 C  
ENDROOT
BRANCH   2   3
HETATM    3  O   UNL     1      -9.252   3.687  64.823  1.00  0.00    -0.130 OA 
BRANCH   3   4
HETATM    4  C   UNL     1      -9.734   4.235  65.984  1.00  0.00    -0.211 A  
HETATM    5  C   UNL     1     -10.612   5.309  65.840  1.00  0.00    -0.087 A  
HETATM    6  C   UNL     1     -11.028   6.046  66.956  1.00  0.00    -0.364 A  
HETATM    7  C   UNL     1     -10.566   5.719  68.242  1.00  0.00    -0.286 A  
HETATM    8  C   UNL     1      -9.791   4.558  68.387  1.00  0.00    -0.153 A  
HETATM    9  C   UNL     1      -9.383   3.818  67.268  1.00  0.00    -0.228 A  
BRANCH   7  10
HETATM   10  C   UNL     1     -10.715   6.701  69.392  1.00  0.00    -0.303 C  
BRANCH  10  11
HETATM   11  C   UNL     1      -9.855   7.943  69.437  1.00  0.00    -0.180 A  
HETATM   12  C   UNL     1     -10.310   9.104  68.798  1.00  0.00    -0.235 A  
HETATM   13  C   UNL     1      -9.563  10.311  68.778  1.00  0.00    -0.175 A  
HETATM   14 CL   UNL     1      -7.867   6.631  70.784  1.00  0.00    -0.104 Cl 
HETATM   15  C   UNL     1      -8.448  10.406  69.609  1.00  0.00    -0.068 A  
HETATM   16  C   UNL     1      -7.983   9.262  70.266  1.00  0.00    -0.155 A  
HETATM   17  C   UNL     1      -8.641   8.030  70.124  1.00  0.00    -0.130 A  
BRANCH  13  18
HETATM   18  C   UNL     1      -9.826  11.291  67.648  1.00  0.00    -0.175 C  
HETATM   19  C   UNL     1     -10.447  13.447  68.095  1.00  0.00    -0.245 C  
HETATM   20  C   UNL     1     -11.126  12.935  66.844  1.00  0.00    -0.278 C  
HETATM   21  O   UNL     1      -9.351  12.545  68.250  1.00  0.00    -0.205 OA 
HETATM   22  H   UNL     1      -7.138  11.817  65.769  1.00  0.00     0.000 HD 
HETATM   23  O   UNL     1     -11.220  11.533  67.231  1.00  0.00    -0.275 OA 
HETATM   24  C   UNL     1     -10.340  12.986  65.492  1.00  0.00    -0.294 C  
HETATM   25  O   UNL     1      -7.697  11.918  66.531  1.00  0.00    -0.043 OA 
HETATM   26  C   UNL     1      -9.658  11.633  65.163  1.00  0.00    -0.183 C  
HETATM   27  O   UNL     1      -9.432  14.086  65.485  1.00  0.00    -0.525 OA 
HETATM   28  H   UNL     1     -10.202   9.839  64.520  1.00  0.00     0.000 HD 
HETATM   29  H   UNL     1      -8.955  14.117  64.664  1.00  0.00     0.000 HD 
HETATM   30  O   UNL     1     -10.620  10.668  64.721  1.00  0.00    -0.291 OA 
HETATM   31  C   UNL     1      -8.905  11.124  66.391  1.00  0.00    -0.178 C  
BRANCH  20  32
HETATM   32  C   UNL     1     -12.402  13.785  66.652  1.00  0.00    -0.357 C  
HETATM   33  O   UNL     1     -12.667  14.123  65.287  1.00  0.00    -0.587 OA 
HETATM   34  H   UNL     1     -13.451  14.645  65.169  1.00  0.00     0.000 HD 
ENDBRANCH  20  32
ENDBRANCH  13  18
ENDBRANCH  10  11
ENDBRANCH   7  10
ENDBRANCH   3   4
ENDBRANCH   2   3
TORSDOF 6
ENDMDL
MODEL      143
REMARK 921   NORMALIZED FREE ENERGY PREDICTED BY IDOCK:   -5.15 KCAL/MOL
REMARK 922        TOTAL FREE ENERGY PREDICTED BY IDOCK:   -8.10 KCAL/MOL
REMARK 923 INTER-LIGAND FREE ENERGY PREDICTED BY IDOCK:   -6.62 KCAL/MOL
REMARK 924 INTRA-LIGAND FREE ENERGY PREDICTED BY IDOCK:   -1.48 KCAL/MOL
REMARK 927      BINDING AFFINITY PREDICTED BY RF-SCORE:    0.00 PKD
ROOT
HETATM    1  C   UNL     1     -13.158  11.881  71.870  1.00  0.00    -0.474 C  
HETATM    2  C   UNL     1     -13.102  10.478  71.285  1.00  0.00    -0.383 C  
ENDROOT
BRANCH   2   3
HETATM    3  O   UNL     1     -13.009   9.521  72.348  1.00  0.00    -0.386 OA 
BRANCH   3   4
HETATM    4  C   UNL     1     -12.141   8.483  72.120  1.00  0.00    -0.383 A  
HETATM    5  C   UNL     1     -10.845   8.647  72.607  1.00  0.00    -0.072 A  
HETATM    6  C   UNL     1      -9.839   7.726  72.284  1.00  0.00    -0.248 A  
HETATM    7  C   UNL     1     -10.118   6.622  71.461  1.00  0.00    -0.200 A  
HETATM    8  C   UNL     1     -11.453   6.399  71.090  1.00  0.00    -0.381 A  
HETATM    9  C   UNL     1     -12.458   7.318  71.421  1.00  0.00    -0.418 A  
BRANCH   7  10
HETATM   10  C   UNL     1      -8.991   5.829  70.820  1.00  0.00    -0.156 C  
BRANCH  10  11
HETATM   11  C   UNL     1      -8.456   6.242  69.467  1.00  0.00    -0.129 A  
HETATM   12  C   UNL     1      -8.413   7.605  69.145  1.00  0.00    -0.138 A  
HETATM   13  C   UNL     1      -7.939   8.082  67.895  1.00  0.00    -0.128 A  
HETATM   14 CL   UNL     1      -8.121   3.637  68.700  1.00  0.00    -0.073 Cl 
HETATM   15  C   UNL     1      -7.290   7.181  67.052  1.00  0.00    -0.089 A  
HETATM   16  C   UNL     1      -7.311   5.817  67.361  1.00  0.00    -0.077 A  
HETATM   17  C   UNL     1      -7.948   5.348  68.521  1.00  0.00    -0.091 A  
BRANCH  13  18
HETATM   18  C   UNL     1      -8.431   9.437  67.419  1.00  0.00    -0.125 C  
HETATM   19  C   UNL     1      -8.749  11.151  68.901  1.00  0.00    -0.080 C  
HETATM   20  C   UNL     1      -9.781  11.191  67.796  1.00  0.00    -0.171 C  
HETATM   21  O   UNL     1      -7.721  10.334  68.342  1.00  0.00    -0.089 OA 
HETATM   22  H   UNL     1      -6.334  10.873  65.281  1.00  0.00     0.000 HD 
HETATM   23  O   UNL     1      -9.866   9.757  67.553  1.00  0.00    -0.155 OA 
HETATM   24  C   UNL     1      -9.396  11.864  66.437  1.00  0.00    -0.226 C  
HETATM   25  O   UNL     1      -6.652  10.604  66.135  1.00  0.00    -0.113 OA 
HETATM   26  C   UNL     1      -8.930  10.827  65.384  1.00  0.00    -0.194 C  
HETATM   27  O   UNL     1      -8.448  12.910  66.650  1.00  0.00    -0.411 OA 
HETATM   28  H   UNL     1      -9.756   9.459  64.212  1.00  0.00     0.000 HD 
HETATM   29  H   UNL     1      -8.214  13.318  65.825  1.00  0.00     0.000 HD 
HETATM   30  O   UNL     1     -10.042  10.094  64.858  1.00  0.00    -0.330 OA 
HETATM   31  C   UNL     1      -7.907   9.882  66.010  1.00  0.00    -0.111 C  
BRANCH  20  32
HETATM   32  C   UNL     1     -10.996  11.968  68.351  1.00  0.00    -0.237 C  
HETATM   33  O   UNL     1     -12.069  12.100  67.414  1.00  0.00    -0.553 OA 
HETATM   34  H   UNL     1     -12.816  12.578  67.756  1.00  0.00     0.000 HD 
ENDBRANCH  20  32
ENDBRANCH  13  18
ENDBRANCH  10  11
ENDBRANCH   7  10
ENDBRANCH   3   4
ENDBRANCH   2   3
TORSDOF 6
ENDMDL
MODEL      144
REMARK 921   NORMALIZED FREE ENERGY PREDICTED BY IDOCK:   -5.14 KCAL/MOL
REMARK 922        TOTAL FREE ENERGY PREDICTED BY IDOCK:   -8.09 KCAL/MOL
REMARK 923 INTER-LIGAND FREE ENERGY PREDICTED BY IDOCK:   -7.17 KCAL/MOL
REMARK 924 INTRA-LIGAND FREE ENERGY PREDICTED BY IDOCK:   -0.91 KCAL/MOL
REMARK 927      BINDING AFFINITY PREDICTED BY RF-SCORE:    0.00 PKD
ROOT
HETATM    1  C   UNL     1     -12.621  14.959  72.775  1.00  0.00    -0.477 C  
HETATM    2  C   UNL     1     -13.912  14.482  72.130  1.00  0.00    -0.501 C  
ENDROOT
BRANCH   2   3
HETATM    3  O   UNL     1     -14.069  13.076  72.356  1.00  0.00    -0.537 OA 
BRANCH   3   4
HETATM    4  C   UNL     1     -13.255  12.271  71.601  1.00  0.00    -0.257 A  
HETATM    5  C   UNL     1     -13.179  10.934  71.991  1.00  0.00    -0.456 A  
HETATM    6  C   UNL     1     -12.253  10.068  71.396  1.00  0.00    -0.510 A  
HETATM    7  C   UNL     1     -11.381  10.532  70.396  1.00  0.00    -0.411 A  
HETATM    8  C   UNL     1     -11.560  11.840  69.922  1.00  0.00    -0.351 A  
HETATM    9  C   UNL     1     -12.494  12.702  70.515  1.00  0.00    -0.273 A  
BRANCH   7  10
HETATM   10  C   UNL     1     -10.156   9.723  70.000  1.00  0.00    -0.301 C  
BRANCH  10  11
HETATM   11  C   UNL     1     -10.296   8.250  69.690  1.00  0.00    -0.218 A  
HETATM   12  C   UNL     1     -10.131   7.322  70.728  1.00  0.00    -0.193 A  
HETATM   13  C   UNL     1     -10.233   5.921  70.525  1.00  0.00    -0.271 A  
HETATM   14 CL   UNL     1     -10.671   8.750  67.026  1.00  0.00    -0.279 Cl 
HETATM   15  C   UNL     1     -10.732   5.469  69.305  1.00  0.00    -0.288 A  
HETATM   16  C   UNL     1     -10.916   6.379  68.259  1.00  0.00    -0.396 A  
HETATM   17  C   UNL     1     -10.634   7.744  68.432  1.00  0.00    -0.112 A  
BRANCH  13  18
HETATM   18  C   UNL     1      -9.514   5.008  71.503  1.00  0.00    -0.153 C  
HETATM   19  C   UNL     1      -7.334   5.400  72.078  1.00  0.00    -0.089 C  
HETATM   20  C   UNL     1      -7.621   3.916  72.018  1.00  0.00    -0.066 C  
HETATM   21  O   UNL     1      -8.639   5.968  72.191  1.00  0.00    -0.128 OA 
HETATM   22  H   UNL     1     -10.934   4.987  74.505  1.00  0.00     0.000 HD 
HETATM   23  O   UNL     1      -8.632   3.953  70.968  1.00  0.00    -0.073 OA 
HETATM   24  C   UNL     1      -8.277   3.229  73.261  1.00  0.00    -0.074 C  
HETATM   25  O   UNL     1     -10.395   5.334  73.803  1.00  0.00    -0.201 OA 
HETATM   26  C   UNL     1      -9.815   3.101  73.113  1.00  0.00    -0.114 C  
HETATM   27  O   UNL     1      -7.885   3.894  74.462  1.00  0.00    -0.082 OA 
HETATM   28  H   UNL     1     -11.098   1.980  72.100  1.00  0.00     0.000 HD 
HETATM   29  H   UNL     1      -8.283   3.477  75.216  1.00  0.00     0.000 HD 
HETATM   30  O   UNL     1     -10.156   2.059  72.191  1.00  0.00    -0.150 OA 
HETATM   31  C   UNL     1     -10.402   4.437  72.660  1.00  0.00    -0.186 C  
BRANCH  20  32
HETATM   32  C   UNL     1      -6.266   3.211  71.780  1.00  0.00    -0.014 C  
HETATM   33  O   UNL     1      -6.360   1.784  71.753  1.00  0.00    -0.014 OA 
HETATM   34  H   UNL     1      -5.527   1.351  71.608  1.00  0.00     0.000 HD 
ENDBRANCH  20  32
ENDBRANCH  13  18
ENDBRANCH  10  11
ENDBRANCH   7  10
ENDBRANCH   3   4
ENDBRANCH   2   3
TORSDOF 6
ENDMDL
MODEL      145
REMARK 921   NORMALIZED FREE ENERGY PREDICTED BY IDOCK:   -5.14 KCAL/MOL
REMARK 922        TOTAL FREE ENERGY PREDICTED BY IDOCK:   -8.08 KCAL/MOL
REMARK 923 INTER-LIGAND FREE ENERGY PREDICTED BY IDOCK:   -6.89 KCAL/MOL
REMARK 924 INTRA-LIGAND FREE ENERGY PREDICTED BY IDOCK:   -1.19 KCAL/MOL
REMARK 927      BINDING AFFINITY PREDICTED BY RF-SCORE:    0.00 PKD
ROOT
HETATM    1  C   UNL     1      -9.286   2.749  68.633  1.00  0.00    -0.238 C  
HETATM    2  C   UNL     1      -9.156   3.102  67.160  1.00  0.00    -0.178 C  
ENDROOT
BRANCH   2   3
HETATM    3  O   UNL     1     -10.134   4.093  66.818  1.00  0.00    -0.182 OA 
BRANCH   3   4
HETATM    4  C   UNL     1      -9.643   5.363  66.654  1.00  0.00    -0.151 A  
HETATM    5  C   UNL     1     -10.502   6.404  67.002  1.00  0.00    -0.349 A  
HETATM    6  C   UNL     1     -10.165   7.734  66.717  1.00  0.00    -0.346 A  
HETATM    7  C   UNL     1      -8.955   8.042  66.073  1.00  0.00    -0.205 A  
HETATM    8  C   UNL     1      -8.043   6.998  65.851  1.00  0.00    -0.119 A  
HETATM    9  C   UNL     1      -8.382   5.670  66.145  1.00  0.00    -0.120 A  
BRANCH   7  10
HETATM   10  C   UNL     1      -8.737   9.410  65.447  1.00  0.00    -0.194 C  
BRANCH  10  11
HETATM   11  C   UNL     1      -8.134  10.526  66.270  1.00  0.00    -0.142 A  
HETATM   12  C   UNL     1      -8.989  11.460  66.871  1.00  0.00    -0.171 A  
HETATM   13  C   UNL     1      -8.511  12.545  67.650  1.00  0.00    -0.171 A  
HETATM   14 CL   UNL     1      -5.589   9.710  65.684  1.00  0.00    -0.048 Cl 
HETATM   15  C   UNL     1      -7.164  12.552  68.010  1.00  0.00    -0.105 A  
HETATM   16  C   UNL     1      -6.295  11.621  67.431  1.00  0.00    -0.100 A  
HETATM   17  C   UNL     1      -6.766  10.664  66.518  1.00  0.00    -0.116 A  
BRANCH  13  18
HETATM   18  C   UNL     1      -9.396  13.772  67.778  1.00  0.00    -0.213 C  
HETATM   19  C   UNL     1      -8.946  15.377  69.346  1.00  0.00    -0.258 C  
HETATM   20  C   UNL     1     -10.437  15.209  69.154  1.00  0.00    -0.252 C  
HETATM   21  O   UNL     1      -8.408  14.791  68.161  1.00  0.00    -0.133 OA 
HETATM   22  H   UNL     1      -9.420  15.619  65.018  1.00  0.00     0.000 HD 
HETATM   23  O   UNL     1     -10.435  13.789  68.826  1.00  0.00    -0.240 OA 
HETATM   24  C   UNL     1     -11.126  15.953  67.962  1.00  0.00    -0.334 C  
HETATM   25  O   UNL     1      -9.068  15.286  65.835  1.00  0.00    -0.291 OA 
HETATM   26  C   UNL     1     -11.294  15.039  66.722  1.00  0.00    -0.293 C  
HETATM   27  O   UNL     1     -10.440  17.171  67.672  1.00  0.00    -0.335 OA 
HETATM   28  H   UNL     1     -12.455  13.535  66.159  1.00  0.00     0.000 HD 
HETATM   29  H   UNL     1     -10.859  17.622  66.949  1.00  0.00     0.000 HD 
HETATM   30  O   UNL     1     -12.353  14.095  66.919  1.00  0.00    -0.419 OA 
HETATM   31  C   UNL     1      -9.977  14.321  66.430  1.00  0.00    -0.292 C  
BRANCH  20  32
HETATM   32  C   UNL     1     -11.112  15.716  70.449  1.00  0.00    -0.352 C  
HETATM   33  O   UNL     1     -11.167  14.735  71.488  1.00  0.00    -0.540 OA 
HETATM   34  H   UNL     1     -11.582  15.047  72.284  1.00  0.00     0.000 HD 
ENDBRANCH  20  32
ENDBRANCH  13  18
ENDBRANCH  10  11
ENDBRANCH   7  10
ENDBRANCH   3   4
ENDBRANCH   2   3
TORSDOF 6
ENDMDL
MODEL      146
REMARK 921   NORMALIZED FREE ENERGY PREDICTED BY IDOCK:   -5.11 KCAL/MOL
REMARK 922        TOTAL FREE ENERGY PREDICTED BY IDOCK:   -8.04 KCAL/MOL
REMARK 923 INTER-LIGAND FREE ENERGY PREDICTED BY IDOCK:   -7.20 KCAL/MOL
REMARK 924 INTRA-LIGAND FREE ENERGY PREDICTED BY IDOCK:   -0.84 KCAL/MOL
REMARK 927      BINDING AFFINITY PREDICTED BY RF-SCORE:    0.00 PKD
ROOT
HETATM    1  C   UNL     1     -12.643  14.330  65.457  1.00  0.00    -0.429 C  
HETATM    2  C   UNL     1     -11.427  14.171  66.356  1.00  0.00    -0.354 C  
ENDROOT
BRANCH   2   3
HETATM    3  O   UNL     1     -11.806  14.403  67.719  1.00  0.00    -0.362 OA 
BRANCH   3   4
HETATM    4  C   UNL     1     -11.945  13.273  68.484  1.00  0.00    -0.304 A  
HETATM    5  C   UNL     1     -12.205  13.476  69.839  1.00  0.00    -0.356 A  
HETATM    6  C   UNL     1     -12.198  12.401  70.737  1.00  0.00    -0.336 A  
HETATM    7  C   UNL     1     -11.926  11.097  70.288  1.00  0.00    -0.460 A  
HETATM    8  C   UNL     1     -11.800  10.890  68.906  1.00  0.00    -0.340 A  
HETATM    9  C   UNL     1     -11.816  11.968  68.009  1.00  0.00    -0.338 A  
BRANCH   7  10
HETATM   10  C   UNL     1     -11.567   9.997  71.274  1.00  0.00    -0.430 C  
BRANCH  10  11
HETATM   11  C   UNL     1     -10.428   9.053  70.964  1.00  0.00    -0.339 A  
HETATM   12  C   UNL     1      -9.759   9.179  69.739  1.00  0.00    -0.191 A  
HETATM   13  C   UNL     1      -8.688   8.329  69.360  1.00  0.00    -0.142 A  
HETATM   14 CL   UNL     1     -10.806   7.681  73.302  1.00  0.00    -0.440 Cl 
HETATM   15  C   UNL     1      -8.142   7.489  70.329  1.00  0.00    -0.112 A  
HETATM   16  C   UNL     1      -8.787   7.357  71.564  1.00  0.00    -0.131 A  
HETATM   17  C   UNL     1      -9.956   8.079  71.849  1.00  0.00    -0.195 A  
BRANCH  13  18
HETATM   18  C   UNL     1      -8.411   8.153  67.878  1.00  0.00    -0.129 C  
HETATM   19  C   UNL     1      -9.790   6.873  66.576  1.00  0.00    -0.103 C  
HETATM   20  C   UNL     1      -8.351   6.752  66.124  1.00  0.00    -0.130 C  
HETATM   21  O   UNL     1      -9.778   8.076  67.344  1.00  0.00    -0.148 OA 
HETATM   22  H   UNL     1      -8.512  11.026  66.215  1.00  0.00     0.000 HD 
HETATM   23  O   UNL     1      -7.720   6.929  67.427  1.00  0.00    -0.106 OA 
HETATM   24  C   UNL     1      -7.768   7.854  65.179  1.00  0.00    -0.103 C  
HETATM   25  O   UNL     1      -8.875  10.264  66.652  1.00  0.00    -0.135 OA 
HETATM   26  C   UNL     1      -6.986   8.939  65.961  1.00  0.00    -0.084 C  
HETATM   27  O   UNL     1      -8.797   8.394  64.350  1.00  0.00    -0.412 OA 
HETATM   28  H   UNL     1      -5.232   9.111  66.869  1.00  0.00     0.000 HD 
HETATM   29  H   UNL     1      -8.443   9.062  63.776  1.00  0.00     0.000 HD 
HETATM   30  O   UNL     1      -5.712   8.445  66.389  1.00  0.00    -0.038 OA 
HETATM   31  C   UNL     1      -7.813   9.410  67.156  1.00  0.00    -0.098 C  
BRANCH  20  32
HETATM   32  C   UNL     1      -8.233   5.407  65.371  1.00  0.00    -0.130 C  
HETATM   33  O   UNL     1      -8.675   5.471  64.012  1.00  0.00    -0.327 OA 
HETATM   34  H   UNL     1      -8.603   4.644  63.549  1.00  0.00     0.000 HD 
ENDBRANCH  20  32
ENDBRANCH  13  18
ENDBRANCH  10  11
ENDBRANCH   7  10
ENDBRANCH   3   4
ENDBRANCH   2   3
TORSDOF 6
ENDMDL
MODEL      147
REMARK 921   NORMALIZED FREE ENERGY PREDICTED BY IDOCK:   -5.10 KCAL/MOL
REMARK 922        TOTAL FREE ENERGY PREDICTED BY IDOCK:   -8.03 KCAL/MOL
REMARK 923 INTER-LIGAND FREE ENERGY PREDICTED BY IDOCK:   -6.76 KCAL/MOL
REMARK 924 INTRA-LIGAND FREE ENERGY PREDICTED BY IDOCK:   -1.27 KCAL/MOL
REMARK 927      BINDING AFFINITY PREDICTED BY RF-SCORE:    0.00 PKD
ROOT
HETATM    1  C   UNL     1      -5.415   7.861  67.099  1.00  0.00    -0.036 C  
HETATM    2  C   UNL     1      -5.191   6.821  68.185  1.00  0.00    -0.011 C  
ENDROOT
BRANCH   2   3
HETATM    3  O   UNL     1      -5.485   7.395  69.465  1.00  0.00    -0.022 OA 
BRANCH   3   4
HETATM    4  C   UNL     1      -6.786   7.795  69.637  1.00  0.00    -0.039 A  
HETATM    5  C   UNL     1      -7.756   6.801  69.518  1.00  0.00    -0.104 A  
HETATM    6  C   UNL     1      -9.118   7.130  69.509  1.00  0.00    -0.146 A  
HETATM    7  C   UNL     1      -9.531   8.469  69.616  1.00  0.00    -0.165 A  
HETATM    8  C   UNL     1      -8.551   9.441  69.869  1.00  0.00    -0.201 A  
HETATM    9  C   UNL     1      -7.189   9.107  69.886  1.00  0.00    -0.062 A  
BRANCH   7  10
HETATM   10  C   UNL     1     -10.951   8.873  69.256  1.00  0.00    -0.026 C  
BRANCH  10  11
HETATM   11  C   UNL     1     -11.519  10.172  69.781  1.00  0.00    -0.288 A  
HETATM   12  C   UNL     1     -11.355  11.338  69.020  1.00  0.00    -0.344 A  
HETATM   13  C   UNL     1     -11.844  12.602  69.441  1.00  0.00    -0.356 A  
HETATM   14 CL   UNL     1     -12.361   8.978  72.094  1.00  0.00    -0.447 Cl 
HETATM   15  C   UNL     1     -12.706  12.641  70.536  1.00  0.00    -0.066 A  
HETATM   16  C   UNL     1     -12.895  11.486  71.302  1.00  0.00    -0.463 A  
HETATM   17  C   UNL     1     -12.251  10.284  70.966  1.00  0.00    -0.384 A  
BRANCH  13  18
HETATM   18  C   UNL     1     -11.168  13.845  68.889  1.00  0.00    -0.271 C  
HETATM   19  C   UNL     1     -11.880  14.787  66.929  1.00  0.00    -0.262 C  
HETATM   20  C   UNL     1     -10.380  14.916  67.080  1.00  0.00    -0.260 C  
HETATM   21  O   UNL     1     -12.310  14.530  68.266  1.00  0.00    -0.163 OA 
HETATM   22  H   UNL     1     -11.426  16.448  70.936  1.00  0.00     0.000 HD 
HETATM   23  O   UNL     1     -10.151  13.687  67.831  1.00  0.00    -0.232 OA 
HETATM   24  C   UNL     1      -9.813  16.092  67.941  1.00  0.00    -0.235 C  
HETATM   25  O   UNL     1     -11.725  15.825  70.283  1.00  0.00    -0.315 OA 
HETATM   26  C   UNL     1      -9.493  15.651  69.392  1.00  0.00    -0.279 C  
HETATM   27  O   UNL     1     -10.684  17.221  67.878  1.00  0.00    -0.372 OA 
HETATM   28  H   UNL     1      -8.101  14.595  70.328  1.00  0.00     0.000 HD 
HETATM   29  H   UNL     1     -10.340  17.935  68.401  1.00  0.00     0.000 HD 
HETATM   30  O   UNL     1      -8.297  14.865  69.438  1.00  0.00    -0.156 OA 
HETATM   31  C   UNL     1     -10.675  14.872  69.966  1.00  0.00    -0.138 C  
BRANCH  20  32
HETATM   32  C   UNL     1      -9.804  15.085  65.656  1.00  0.00    -0.345 C  
HETATM   33  O   UNL     1     -10.492  16.063  64.871  1.00  0.00    -0.574 OA 
HETATM   34  H   UNL     1     -10.137  16.166  63.996  1.00  0.00     0.000 HD 
ENDBRANCH  20  32
ENDBRANCH  13  18
ENDBRANCH  10  11
ENDBRANCH   7  10
ENDBRANCH   3   4
ENDBRANCH   2   3
TORSDOF 6
ENDMDL
MODEL      148
REMARK 921   NORMALIZED FREE ENERGY PREDICTED BY IDOCK:   -5.08 KCAL/MOL
REMARK 922        TOTAL FREE ENERGY PREDICTED BY IDOCK:   -8.00 KCAL/MOL
REMARK 923 INTER-LIGAND FREE ENERGY PREDICTED BY IDOCK:   -6.76 KCAL/MOL
REMARK 924 INTRA-LIGAND FREE ENERGY PREDICTED BY IDOCK:   -1.24 KCAL/MOL
REMARK 927      BINDING AFFINITY PREDICTED BY RF-SCORE:    0.00 PKD
ROOT
HETATM    1  C   UNL     1      -9.719  18.836  66.510  1.00  0.00    -0.380 C  
HETATM    2  C   UNL     1      -8.774  17.771  67.043  1.00  0.00    -0.244 C  
ENDROOT
BRANCH   2   3
HETATM    3  O   UNL     1      -9.436  17.011  68.062  1.00  0.00    -0.245 OA 
BRANCH   3   4
HETATM    4  C   UNL     1     -10.019  15.846  67.633  1.00  0.00    -0.237 A  
HETATM    5  C   UNL     1     -11.313  15.602  68.091  1.00  0.00    -0.340 A  
HETATM    6  C   UNL     1     -11.935  14.369  67.851  1.00  0.00    -0.348 A  
HETATM    7  C   UNL     1     -11.263  13.356  67.146  1.00  0.00    -0.325 A  
HETATM    8  C   UNL     1     -10.018  13.664  66.577  1.00  0.00    -0.288 A  
HETATM    9  C   UNL     1      -9.403  14.902  66.813  1.00  0.00    -0.270 A  
BRANCH   7  10
HETATM   10  C   UNL     1     -11.766  11.922  67.184  1.00  0.00    -0.311 C  
BRANCH  10  11
HETATM   11  C   UNL     1     -11.101  10.916  68.096  1.00  0.00    -0.337 A  
HETATM   12  C   UNL     1     -10.254   9.951  67.534  1.00  0.00    -0.265 A  
HETATM   13  C   UNL     1      -9.598   8.961  68.311  1.00  0.00    -0.159 A  
HETATM   14 CL   UNL     1     -12.392  11.912  70.293  1.00  0.00    -0.324 Cl 
HETATM   15  C   UNL     1      -9.621   9.095  69.699  1.00  0.00    -0.182 A  
HETATM   16  C   UNL     1     -10.450  10.060  70.281  1.00  0.00    -0.331 A  
HETATM   17  C   UNL     1     -11.233  10.913  69.487  1.00  0.00    -0.277 A  
BRANCH  13  18
HETATM   18  C   UNL     1      -9.187   7.673  67.622  1.00  0.00    -0.135 C  
HETATM   19  C   UNL     1      -7.139   7.489  66.617  1.00  0.00    -0.078 C  
HETATM   20  C   UNL     1      -8.191   6.718  65.850  1.00  0.00    -0.132 C  
HETATM   21  O   UNL     1      -7.743   7.655  67.900  1.00  0.00    -0.110 OA 
HETATM   22  H   UNL     1      -9.065   5.094  69.711  1.00  0.00     0.000 HD 
HETATM   23  O   UNL     1      -9.328   7.578  66.156  1.00  0.00    -0.155 OA 
HETATM   24  C   UNL     1      -8.564   5.277  66.333  1.00  0.00    -0.114 C  
HETATM   25  O   UNL     1      -8.753   5.892  69.299  1.00  0.00    -0.117 OA 
HETATM   26  C   UNL     1      -9.826   5.272  67.233  1.00  0.00    -0.161 C  
HETATM   27  O   UNL     1      -7.438   4.650  66.946  1.00  0.00    -0.083 OA 
HETATM   28  H   UNL     1     -11.786   5.459  67.006  1.00  0.00     0.000 HD 
HETATM   29  H   UNL     1      -7.664   3.776  67.239  1.00  0.00     0.000 HD 
HETATM   30  O   UNL     1     -11.013   5.462  66.454  1.00  0.00    -0.243 OA 
HETATM   31  C   UNL     1      -9.701   6.358  68.301  1.00  0.00    -0.127 C  
BRANCH  20  32
HETATM   32  C   UNL     1      -7.674   6.584  64.400  1.00  0.00    -0.109 C  
HETATM   33  O   UNL     1      -8.612   5.971  63.511  1.00  0.00    -0.336 OA 
HETATM   34  H   UNL     1      -8.294   5.888  62.620  1.00  0.00     0.000 HD 
ENDBRANCH  20  32
ENDBRANCH  13  18
ENDBRANCH  10  11
ENDBRANCH   7  10
ENDBRANCH   3   4
ENDBRANCH   2   3
TORSDOF 6
ENDMDL
MODEL      149
REMARK 921   NORMALIZED FREE ENERGY PREDICTED BY IDOCK:   -5.08 KCAL/MOL
REMARK 922        TOTAL FREE ENERGY PREDICTED BY IDOCK:   -8.00 KCAL/MOL
REMARK 923 INTER-LIGAND FREE ENERGY PREDICTED BY IDOCK:   -6.77 KCAL/MOL
REMARK 924 INTRA-LIGAND FREE ENERGY PREDICTED BY IDOCK:   -1.24 KCAL/MOL
REMARK 927      BINDING AFFINITY PREDICTED BY RF-SCORE:    0.00 PKD
ROOT
HETATM    1  C   UNL     1      -7.571   7.280  62.839  1.00  0.00    -0.105 C  
HETATM    2  C   UNL     1      -8.465   8.419  62.375  1.00  0.00    -0.151 C  
ENDROOT
BRANCH   2   3
HETATM    3  O   UNL     1      -7.922   9.667  62.824  1.00  0.00    -0.117 OA 
BRANCH   3   4
HETATM    4  C   UNL     1      -8.244  10.010  64.112  1.00  0.00    -0.159 A  
HETATM    5  C   UNL     1      -9.582  10.325  64.348  1.00  0.00    -0.378 A  
HETATM    6  C   UNL     1      -9.985  10.850  65.583  1.00  0.00    -0.305 A  
HETATM    7  C   UNL     1      -9.047  11.071  66.606  1.00  0.00    -0.177 A  
HETATM    8  C   UNL     1      -7.732  10.626  66.401  1.00  0.00    -0.141 A  
HETATM    9  C   UNL     1      -7.335  10.094  65.166  1.00  0.00    -0.141 A  
BRANCH   7  10
HETATM   10  C   UNL     1      -9.392  11.952  67.796  1.00  0.00    -0.184 C  
BRANCH  10  11
HETATM   11  C   UNL     1     -10.348  11.446  68.853  1.00  0.00    -0.203 A  
HETATM   12  C   UNL     1      -9.988  10.320  69.606  1.00  0.00    -0.240 A  
HETATM   13  C   UNL     1     -10.828   9.770  70.609  1.00  0.00    -0.396 A  
HETATM   14 CL   UNL     1     -12.219  13.332  68.197  1.00  0.00    -0.217 Cl 
HETATM   15  C   UNL     1     -11.943  10.506  71.008  1.00  0.00    -0.466 A  
HETATM   16  C   UNL     1     -12.313  11.640  70.278  1.00  0.00    -0.339 A  
HETATM   17  C   UNL     1     -11.561  12.063  69.171  1.00  0.00    -0.312 A  
BRANCH  13  18
HETATM   18  C   UNL     1     -10.650   8.303  70.960  1.00  0.00    -0.204 C  
HETATM   19  C   UNL     1      -9.033   7.048  69.937  1.00  0.00    -0.142 C  
HETATM   20  C   UNL     1     -10.269   6.220  70.213  1.00  0.00    -0.196 C  
HETATM   21  O   UNL     1      -9.194   8.157  70.820  1.00  0.00    -0.146 OA 
HETATM   22  H   UNL     1      -9.838   7.846  74.148  1.00  0.00     0.000 HD 
HETATM   23  O   UNL     1     -11.254   7.286  70.078  1.00  0.00    -0.263 OA 
HETATM   24  C   UNL     1     -10.454   5.604  71.640  1.00  0.00    -0.228 C  
HETATM   25  O   UNL     1      -9.683   8.067  73.236  1.00  0.00    -0.286 OA 
HETATM   26  C   UNL     1     -11.358   6.482  72.541  1.00  0.00    -0.262 C  
HETATM   27  O   UNL     1      -9.184   5.321  72.228  1.00  0.00    -0.138 OA 
HETATM   28  H   UNL     1     -13.289   6.895  72.717  1.00  0.00     0.000 HD 
HETATM   29  H   UNL     1      -9.296   4.947  73.093  1.00  0.00     0.000 HD 
HETATM   30  O   UNL     1     -12.734   6.357  72.165  1.00  0.00    -0.244 OA 
HETATM   31  C   UNL     1     -10.906   7.939  72.462  1.00  0.00    -0.341 C  
BRANCH  20  32
HETATM   32  C   UNL     1     -10.246   5.040  69.216  1.00  0.00    -0.174 C  
HETATM   33  O   UNL     1      -9.271   5.184  68.179  1.00  0.00    -0.110 OA 
HETATM   34  H   UNL     1      -9.257   4.459  67.566  1.00  0.00     0.000 HD 
ENDBRANCH  20  32
ENDBRANCH  13  18
ENDBRANCH  10  11
ENDBRANCH   7  10
ENDBRANCH   3   4
ENDBRANCH   2   3
TORSDOF 6
ENDMDL
MODEL      150
REMARK 921   NORMALIZED FREE ENERGY PREDICTED BY IDOCK:   -5.08 KCAL/MOL
REMARK 922        TOTAL FREE ENERGY PREDICTED BY IDOCK:   -8.00 KCAL/MOL
REMARK 923 INTER-LIGAND FREE ENERGY PREDICTED BY IDOCK:   -6.79 KCAL/MOL
REMARK 924 INTRA-LIGAND FREE ENERGY PREDICTED BY IDOCK:   -1.21 KCAL/MOL
REMARK 927      BINDING AFFINITY PREDICTED BY RF-SCORE:    0.00 PKD
ROOT
HETATM    1  C   UNL     1      -6.802  18.770  68.136  1.00  0.00    -0.254 C  
HETATM    2  C   UNL     1      -7.564  17.512  68.519  1.00  0.00    -0.266 C  
ENDROOT
BRANCH   2   3
HETATM    3  O   UNL     1      -8.001  16.837  67.332  1.00  0.00    -0.162 OA 
BRANCH   3   4
HETATM    4  C   UNL     1      -8.977  15.894  67.526  1.00  0.00    -0.194 A  
HETATM    5  C   UNL     1      -8.546  14.649  67.983  1.00  0.00    -0.162 A  
HETATM    6  C   UNL     1      -9.434  13.567  68.054  1.00  0.00    -0.220 A  
HETATM    7  C   UNL     1     -10.775  13.717  67.661  1.00  0.00    -0.253 A  
HETATM    8  C   UNL     1     -11.224  15.004  67.331  1.00  0.00    -0.337 A  
HETATM    9  C   UNL     1     -10.334  16.086  67.269  1.00  0.00    -0.295 A  
BRANCH   7  10
HETATM   10  C   UNL     1     -11.644  12.498  67.394  1.00  0.00    -0.434 C  
BRANCH  10  11
HETATM   11  C   UNL     1     -10.998  11.158  67.129  1.00  0.00    -0.350 A  
HETATM   12  C   UNL     1     -11.029  10.181  68.134  1.00  0.00    -0.313 A  
HETATM   13  C   UNL     1     -10.438   8.901  67.976  1.00  0.00    -0.263 A  
HETATM   14 CL   UNL     1     -10.122  11.963  64.665  1.00  0.00    -0.295 Cl 
HETATM   15  C   UNL     1     -10.010   8.528  66.703  1.00  0.00    -0.363 A  
HETATM   16  C   UNL     1      -9.982   9.483  65.681  1.00  0.00    -0.269 A  
HETATM   17  C   UNL     1     -10.406  10.801  65.914  1.00  0.00    -0.238 A  
BRANCH  13  18
HETATM   18  C   UNL     1     -10.024   8.150  69.229  1.00  0.00    -0.188 C  
HETATM   19  C   UNL     1      -9.466   9.283  71.137  1.00  0.00    -0.217 C  
HETATM   20  C   UNL     1      -8.625   8.036  70.982  1.00  0.00    -0.133 C  
HETATM   21  O   UNL     1     -10.573   9.026  70.274  1.00  0.00    -0.200 OA 
HETATM   22  H   UNL     1     -12.432   6.176  70.385  1.00  0.00     0.000 HD 
HETATM   23  O   UNL     1      -8.585   8.005  69.525  1.00  0.00    -0.133 OA 
HETATM   24  C   UNL     1      -9.220   6.668  71.452  1.00  0.00    -0.151 C  
HETATM   25  O   UNL     1     -11.981   7.000  70.238  1.00  0.00    -0.251 OA 
HETATM   26  C   UNL     1      -9.853   5.873  70.282  1.00  0.00    -0.185 C  
HETATM   27  O   UNL     1     -10.118   6.865  72.544  1.00  0.00    -0.169 OA 
HETATM   28  H   UNL     1      -9.230   4.810  68.730  1.00  0.00     0.000 HD 
HETATM   29  H   UNL     1     -10.479   6.035  72.830  1.00  0.00     0.000 HD 
HETATM   30  O   UNL     1      -8.842   5.297  69.447  1.00  0.00    -0.099 OA 
HETATM   31  C   UNL     1     -10.766   6.791  69.471  1.00  0.00    -0.257 C  
BRANCH  20  32
HETATM   32  C   UNL     1      -7.333   8.266  71.799  1.00  0.00    -0.094 C  
HETATM   33  O   UNL     1      -6.525   7.094  71.936  1.00  0.00    -0.044 OA 
HETATM   34  H   UNL     1      -5.731   7.236  72.439  1.00  0.00     0.000 HD 
ENDBRANCH  20  32
ENDBRANCH  13  18
ENDBRANCH  10  11
ENDBRANCH   7  10
ENDBRANCH   3   4
ENDBRANCH   2   3
TORSDOF 6
ENDMDL
MODEL      151
REMARK 921   NORMALIZED FREE ENERGY PREDICTED BY IDOCK:   -5.05 KCAL/MOL
REMARK 922        TOTAL FREE ENERGY PREDICTED BY IDOCK:   -7.96 KCAL/MOL
REMARK 923 INTER-LIGAND FREE ENERGY PREDICTED BY IDOCK:   -6.84 KCAL/MOL
REMARK 924 INTRA-LIGAND FREE ENERGY PREDICTED BY IDOCK:   -1.12 KCAL/MOL
REMARK 927      BINDING AFFINITY PREDICTED BY RF-SCORE:    0.00 PKD
ROOT
HETATM    1  C   UNL     1     -11.628  16.019  70.776  1.00  0.00    -0.431 C  
HETATM    2  C   UNL     1     -10.586  16.270  69.697  1.00  0.00    -0.320 C  
ENDROOT
BRANCH   2   3
HETATM    3  O   UNL     1     -11.117  15.887  68.422  1.00  0.00    -0.310 OA 
BRANCH   3   4
HETATM    4  C   UNL     1     -10.916  14.575  68.079  1.00  0.00    -0.260 A  
HETATM    5  C   UNL     1     -11.920  13.978  67.318  1.00  0.00    -0.448 A  
HETATM    6  C   UNL     1     -11.895  12.601  67.056  1.00  0.00    -0.415 A  
HETATM    7  C   UNL     1     -10.857  11.797  67.559  1.00  0.00    -0.286 A  
HETATM    8  C   UNL     1      -9.788  12.433  68.207  1.00  0.00    -0.224 A  
HETATM    9  C   UNL     1      -9.813  13.812  68.460  1.00  0.00    -0.204 A  
BRANCH   7  10
HETATM   10  C   UNL     1     -10.997  10.284  67.592  1.00  0.00    -0.356 C  
BRANCH  10  11
HETATM   11  C   UNL     1     -10.740   9.533  68.878  1.00  0.00    -0.220 A  
HETATM   12  C   UNL     1      -9.867   8.436  68.857  1.00  0.00    -0.184 A  
HETATM   13  C   UNL     1      -9.576   7.667  70.014  1.00  0.00    -0.164 A  
HETATM   14 CL   UNL     1     -12.520  11.090  70.254  1.00  0.00    -0.376 Cl 
HETATM   15  C   UNL     1      -9.999   8.154  71.250  1.00  0.00    -0.225 A  
HETATM   16  C   UNL     1     -10.861   9.255  71.295  1.00  0.00    -0.417 A  
HETATM   17  C   UNL     1     -11.281   9.892  70.116  1.00  0.00    -0.289 A  
BRANCH  13  18
HETATM   18  C   UNL     1      -9.112   6.235  69.816  1.00  0.00    -0.143 C  
HETATM   19  C   UNL     1      -8.275   5.547  67.801  1.00  0.00    -0.100 C  
HETATM   20  C   UNL     1      -9.059   4.439  68.469  1.00  0.00    -0.124 C  
HETATM   21  O   UNL     1      -7.991   6.430  68.886  1.00  0.00    -0.107 OA 
HETATM   22  H   UNL     1      -6.590   5.427  71.821  1.00  0.00     0.000 HD 
HETATM   23  O   UNL     1     -10.027   5.277  69.167  1.00  0.00    -0.170 OA 
HETATM   24  C   UNL     1      -8.345   3.565  69.552  1.00  0.00    -0.055 C  
HETATM   25  O   UNL     1      -7.002   5.828  71.064  1.00  0.00    -0.062 OA 
HETATM   26  C   UNL     1      -8.639   4.062  70.990  1.00  0.00    -0.076 C  
HETATM   27  O   UNL     1      -6.949   3.464  69.270  1.00  0.00    -0.041 OA 
HETATM   28  H   UNL     1     -10.148   4.016  72.274  1.00  0.00     0.000 HD 
HETATM   29  H   UNL     1      -6.516   2.933  69.927  1.00  0.00     0.000 HD 
HETATM   30  O   UNL     1      -9.968   3.711  71.392  1.00  0.00    -0.171 OA 
HETATM   31  C   UNL     1      -8.433   5.574  71.065  1.00  0.00    -0.125 C  
BRANCH  20  32
HETATM   32  C   UNL     1      -9.514   3.479  67.347  1.00  0.00    -0.190 C  
HETATM   33  O   UNL     1      -9.847   2.169  67.814  1.00  0.00    -0.349 OA 
HETATM   34  H   UNL     1     -10.127   1.578  67.125  1.00  0.00     0.000 HD 
ENDBRANCH  20  32
ENDBRANCH  13  18
ENDBRANCH  10  11
ENDBRANCH   7  10
ENDBRANCH   3   4
ENDBRANCH   2   3
TORSDOF 6
ENDMDL
MODEL      152
REMARK 921   NORMALIZED FREE ENERGY PREDICTED BY IDOCK:   -5.04 KCAL/MOL
REMARK 922        TOTAL FREE ENERGY PREDICTED BY IDOCK:   -7.94 KCAL/MOL
REMARK 923 INTER-LIGAND FREE ENERGY PREDICTED BY IDOCK:   -6.56 KCAL/MOL
REMARK 924 INTRA-LIGAND FREE ENERGY PREDICTED BY IDOCK:   -1.39 KCAL/MOL
REMARK 927      BINDING AFFINITY PREDICTED BY RF-SCORE:    0.00 PKD
ROOT
HETATM    1  C   UNL     1     -10.847   3.853  63.123  1.00  0.00    -0.076 C  
HETATM    2  C   UNL     1      -9.431   3.585  63.606  1.00  0.00    -0.126 C  
ENDROOT
BRANCH   2   3
HETATM    3  O   UNL     1      -8.625   4.751  63.394  1.00  0.00    -0.125 OA 
BRANCH   3   4
HETATM    4  C   UNL     1      -8.440   5.539  64.501  1.00  0.00    -0.094 A  
HETATM    5  C   UNL     1      -8.596   4.910  65.736  1.00  0.00    -0.128 A  
HETATM    6  C   UNL     1      -8.595   5.655  66.923  1.00  0.00    -0.110 A  
HETATM    7  C   UNL     1      -8.440   7.052  66.889  1.00  0.00    -0.119 A  
HETATM    8  C   UNL     1      -8.152   7.652  65.654  1.00  0.00    -0.127 A  
HETATM    9  C   UNL     1      -8.146   6.902  64.470  1.00  0.00    -0.069 A  
BRANCH   7  10
HETATM   10  C   UNL     1      -8.788   7.899  68.103  1.00  0.00    -0.125 C  
BRANCH  10  11
HETATM   11  C   UNL     1      -8.477   9.378  68.101  1.00  0.00    -0.120 A  
HETATM   12  C   UNL     1      -9.513  10.286  67.840  1.00  0.00    -0.154 A  
HETATM   13  C   UNL     1      -9.310  11.690  67.805  1.00  0.00    -0.178 A  
HETATM   14 CL   UNL     1      -5.816   8.916  68.538  1.00  0.00    -0.041 Cl 
HETATM   15  C   UNL     1      -8.093  12.189  68.265  1.00  0.00    -0.166 A  
HETATM   16  C   UNL     1      -7.048  11.300  68.544  1.00  0.00    -0.083 A  
HETATM   17  C   UNL     1      -7.221   9.914  68.395  1.00  0.00    -0.073 A  
BRANCH  13  18
HETATM   18  C   UNL     1     -10.282  12.529  66.995  1.00  0.00    -0.221 C  
HETATM   19  C   UNL     1     -11.689  11.547  65.480  1.00  0.00     0.226 C  
HETATM   20  C   UNL     1     -11.234  12.907  64.997  1.00  0.00    -0.293 C  
HETATM   21  O   UNL     1     -11.421  11.606  66.881  1.00  0.00    -0.426 OA 
HETATM   22  H   UNL     1     -12.478  14.131  68.903  1.00  0.00     0.000 HD 
HETATM   23  O   UNL     1      -9.914  12.905  65.616  1.00  0.00    -0.274 OA 
HETATM   24  C   UNL     1     -11.984  14.177  65.520  1.00  0.00    -0.391 C  
HETATM   25  O   UNL     1     -12.109  13.384  68.446  1.00  0.00    -0.343 OA 
HETATM   26  C   UNL     1     -11.255  14.831  66.721  1.00  0.00    -0.344 C  
HETATM   27  O   UNL     1     -13.350  13.870  65.795  1.00  0.00    -0.623 OA 
HETATM   28  H   UNL     1      -9.639  15.938  67.025  1.00  0.00     0.000 HD 
HETATM   29  H   UNL     1     -13.805  14.641  66.112  1.00  0.00     0.000 HD 
HETATM   30  O   UNL     1     -10.085  15.537  66.289  1.00  0.00    -0.264 OA 
HETATM   31  C   UNL     1     -10.892  13.761  67.748  1.00  0.00    -0.250 C  
BRANCH  20  32
HETATM   32  C   UNL     1     -11.380  12.903  63.458  1.00  0.00    -0.351 C  
HETATM   33  O   UNL     1     -12.351  13.833  62.972  1.00  0.00    -1.089 OA 
HETATM   34  H   UNL     1     -12.441  13.830  62.026  1.00  0.00     0.000 HD 
ENDBRANCH  20  32
ENDBRANCH  13  18
ENDBRANCH  10  11
ENDBRANCH   7  10
ENDBRANCH   3   4
ENDBRANCH   2   3
TORSDOF 6
ENDMDL
MODEL      153
REMARK 921   NORMALIZED FREE ENERGY PREDICTED BY IDOCK:   -5.03 KCAL/MOL
REMARK 922        TOTAL FREE ENERGY PREDICTED BY IDOCK:   -7.93 KCAL/MOL
REMARK 923 INTER-LIGAND FREE ENERGY PREDICTED BY IDOCK:   -7.02 KCAL/MOL
REMARK 924 INTRA-LIGAND FREE ENERGY PREDICTED BY IDOCK:   -0.91 KCAL/MOL
REMARK 927      BINDING AFFINITY PREDICTED BY RF-SCORE:    0.00 PKD
ROOT
HETATM    1  C   UNL     1      -5.577   6.207  68.305  1.00  0.00    -0.012 C  
HETATM    2  C   UNL     1      -5.157   5.242  69.402  1.00  0.00     0.000 C  
ENDROOT
BRANCH   2   3
HETATM    3  O   UNL     1      -5.628   5.722  70.668  1.00  0.00    -0.012 OA 
BRANCH   3   4
HETATM    4  C   UNL     1      -6.896   6.244  70.656  1.00  0.00    -0.062 A  
HETATM    5  C   UNL     1      -7.932   5.337  70.439  1.00  0.00    -0.091 A  
HETATM    6  C   UNL     1      -9.245   5.786  70.241  1.00  0.00    -0.174 A  
HETATM    7  C   UNL     1      -9.540   7.160  70.254  1.00  0.00    -0.169 A  
HETATM    8  C   UNL     1      -8.513   8.050  70.605  1.00  0.00    -0.125 A  
HETATM    9  C   UNL     1      -7.203   7.596  70.810  1.00  0.00    -0.062 A  
BRANCH   7  10
HETATM   10  C   UNL     1     -10.858   7.674  69.698  1.00  0.00    -0.195 C  
BRANCH  10  11
HETATM   11  C   UNL     1     -11.235   9.126  69.882  1.00  0.00    -0.118 A  
HETATM   12  C   UNL     1     -11.196   9.980  68.771  1.00  0.00    -0.173 A  
HETATM   13  C   UNL     1     -11.521  11.359  68.853  1.00  0.00    -0.363 A  
HETATM   14 CL   UNL     1     -11.584   8.794  72.575  1.00  0.00    -0.321 Cl 
HETATM   15  C   UNL     1     -12.112  11.825  70.027  1.00  0.00    -0.387 A  
HETATM   16  C   UNL     1     -12.173  10.986  71.145  1.00  0.00    -0.415 A  
HETATM   17  C   UNL     1     -11.675   9.674  71.090  1.00  0.00    -0.372 A  
BRANCH  13  18
HETATM   18  C   UNL     1     -10.934  12.291  67.809  1.00  0.00    -0.232 C  
HETATM   19  C   UNL     1     -12.119  12.828  65.926  1.00  0.00    -0.426 C  
HETATM   20  C   UNL     1     -10.639  12.730  65.626  1.00  0.00    -0.275 C  
HETATM   21  O   UNL     1     -12.142  12.988  67.344  1.00  0.00    -0.338 OA 
HETATM   22  H   UNL     1     -10.314  15.324  69.013  1.00  0.00     0.000 HD 
HETATM   23  O   UNL     1     -10.307  11.705  66.608  1.00  0.00    -0.211 OA 
HETATM   24  C   UNL     1      -9.730  13.966  65.929  1.00  0.00    -0.214 C  
HETATM   25  O   UNL     1     -10.854  14.620  68.671  1.00  0.00    -0.240 OA 
HETATM   26  C   UNL     1      -9.026  13.849  67.305  1.00  0.00    -0.221 C  
HETATM   27  O   UNL     1     -10.471  15.177  65.781  1.00  0.00    -0.297 OA 
HETATM   28  H   UNL     1      -7.519  12.833  68.096  1.00  0.00     0.000 HD 
HETATM   29  H   UNL     1      -9.919  15.928  65.965  1.00  0.00     0.000 HD 
HETATM   30  O   UNL     1      -7.951  12.905  67.253  1.00  0.00    -0.174 OA 
HETATM   31  C   UNL     1     -10.044  13.452  68.373  1.00  0.00    -0.244 C  
BRANCH  20  32
HETATM   32  C   UNL     1     -10.511  12.440  64.114  1.00  0.00    -0.389 C  
HETATM   33  O   UNL     1     -11.563  13.009  63.329  1.00  0.00    -0.705 OA 
HETATM   34  H   UNL     1     -11.484  12.830  62.400  1.00  0.00     0.000 HD 
ENDBRANCH  20  32
ENDBRANCH  13  18
ENDBRANCH  10  11
ENDBRANCH   7  10
ENDBRANCH   3   4
ENDBRANCH   2   3
TORSDOF 6
ENDMDL
MODEL      154
REMARK 921   NORMALIZED FREE ENERGY PREDICTED BY IDOCK:   -5.00 KCAL/MOL
REMARK 922        TOTAL FREE ENERGY PREDICTED BY IDOCK:   -7.89 KCAL/MOL
REMARK 923 INTER-LIGAND FREE ENERGY PREDICTED BY IDOCK:   -6.62 KCAL/MOL
REMARK 924 INTRA-LIGAND FREE ENERGY PREDICTED BY IDOCK:   -1.27 KCAL/MOL
REMARK 927      BINDING AFFINITY PREDICTED BY RF-SCORE:    0.00 PKD
ROOT
HETATM    1  C   UNL     1     -14.389  13.707  72.180  1.00  0.00    -0.388 C  
HETATM    2  C   UNL     1     -12.893  13.593  71.935  1.00  0.00    -0.287 C  
ENDROOT
BRANCH   2   3
HETATM    3  O   UNL     1     -12.321  14.905  71.849  1.00  0.00    -0.316 OA 
BRANCH   3   4
HETATM    4  C   UNL     1     -11.703  15.192  70.659  1.00  0.00    -0.312 A  
HETATM    5  C   UNL     1     -12.472  15.016  69.509  1.00  0.00    -0.122 A  
HETATM    6  C   UNL     1     -11.891  15.119  68.238  1.00  0.00    -0.275 A  
HETATM    7  C   UNL     1     -10.521  15.399  68.100  1.00  0.00    -0.247 A  
HETATM    8  C   UNL     1      -9.791  15.705  69.259  1.00  0.00    -0.269 A  
HETATM    9  C   UNL     1     -10.379  15.608  70.528  1.00  0.00    -0.007 A  
BRANCH   7  10
HETATM   10  C   UNL     1      -9.812  15.165  66.775  1.00  0.00    -0.251 C  
BRANCH  10  11
HETATM   11  C   UNL     1     -10.207  13.990  65.909  1.00  0.00    -0.332 A  
HETATM   12  C   UNL     1      -9.777  12.707  66.274  1.00  0.00    -0.260 A  
HETATM   13  C   UNL     1     -10.089  11.550  65.515  1.00  0.00    -0.286 A  
HETATM   14 CL   UNL     1     -11.460  15.621  64.104  1.00  0.00    -0.203 Cl 
HETATM   15  C   UNL     1     -11.038  11.667  64.500  1.00  0.00    -0.365 A  
HETATM   16  C   UNL     1     -11.491  12.938  64.127  1.00  0.00    -0.449 A  
HETATM   17  C   UNL     1     -11.025  14.090  64.780  1.00  0.00    -0.402 A  
BRANCH  13  18
HETATM   18  C   UNL     1      -9.166  10.350  65.635  1.00  0.00    -0.182 C  
HETATM   19  C   UNL     1      -9.823   8.483  66.782  1.00  0.00    -0.257 C  
HETATM   20  C   UNL     1      -8.341   8.732  66.954  1.00  0.00    -0.108 C  
HETATM   21  O   UNL     1     -10.138   9.247  65.618  1.00  0.00    -0.215 OA 
HETATM   22  H   UNL     1      -8.426   9.014  62.686  1.00  0.00     0.000 HD 
HETATM   23  O   UNL     1      -8.375  10.187  66.869  1.00  0.00    -0.121 OA 
HETATM   24  C   UNL     1      -7.363   8.231  65.840  1.00  0.00    -0.076 C  
HETATM   25  O   UNL     1      -8.966   9.188  63.448  1.00  0.00    -0.144 OA 
HETATM   26  C   UNL     1      -7.002   9.352  64.833  1.00  0.00    -0.097 C  
HETATM   27  O   UNL     1      -7.884   7.060  65.211  1.00  0.00    -0.106 OA 
HETATM   28  H   UNL     1      -5.858  10.970  64.793  1.00  0.00     0.000 HD 
HETATM   29  H   UNL     1      -7.290   6.756  64.535  1.00  0.00     0.000 HD 
HETATM   30  O   UNL     1      -6.079  10.283  65.410  1.00  0.00    -0.100 OA 
HETATM   31  C   UNL     1      -8.275  10.064  64.378  1.00  0.00    -0.165 C  
BRANCH  20  32
HETATM   32  C   UNL     1      -7.922   8.031  68.266  1.00  0.00    -0.128 C  
HETATM   33  O   UNL     1      -8.961   7.983  69.248  1.00  0.00    -0.147 OA 
HETATM   34  H   UNL     1      -8.703   7.553  70.055  1.00  0.00     0.000 HD 
ENDBRANCH  20  32
ENDBRANCH  13  18
ENDBRANCH  10  11
ENDBRANCH   7  10
ENDBRANCH   3   4
ENDBRANCH   2   3
TORSDOF 6
ENDMDL
MODEL      155
REMARK 921   NORMALIZED FREE ENERGY PREDICTED BY IDOCK:   -4.98 KCAL/MOL
REMARK 922        TOTAL FREE ENERGY PREDICTED BY IDOCK:   -7.87 KCAL/MOL
REMARK 923 INTER-LIGAND FREE ENERGY PREDICTED BY IDOCK:   -6.21 KCAL/MOL
REMARK 924 INTRA-LIGAND FREE ENERGY PREDICTED BY IDOCK:   -1.65 KCAL/MOL
REMARK 927      BINDING AFFINITY PREDICTED BY RF-SCORE:    0.00 PKD
ROOT
HETATM    1  C   UNL     1     -13.000  11.373  71.794  1.00  0.00    -0.519 C  
HETATM    2  C   UNL     1     -13.273   9.912  71.470  1.00  0.00    -0.408 C  
ENDROOT
BRANCH   2   3
HETATM    3  O   UNL     1     -12.809   9.089  72.548  1.00  0.00    -0.404 OA 
BRANCH   3   4
HETATM    4  C   UNL     1     -12.098   7.980  72.168  1.00  0.00    -0.343 A  
HETATM    5  C   UNL     1     -10.948   7.704  72.907  1.00  0.00    -0.456 A  
HETATM    6  C   UNL     1     -10.062   6.698  72.500  1.00  0.00    -0.189 A  
HETATM    7  C   UNL     1     -10.315   5.950  71.337  1.00  0.00    -0.271 A  
HETATM    8  C   UNL     1     -11.540   6.148  70.681  1.00  0.00    -0.256 A  
HETATM    9  C   UNL     1     -12.427   7.151  71.097  1.00  0.00    -0.400 A  
BRANCH   7  10
HETATM   10  C   UNL     1      -9.215   5.120  70.695  1.00  0.00    -0.191 C  
BRANCH  10  11
HETATM   11  C   UNL     1      -8.880   5.318  69.234  1.00  0.00    -0.115 A  
HETATM   12  C   UNL     1      -8.486   6.590  68.797  1.00  0.00    -0.122 A  
HETATM   13  C   UNL     1      -8.166   6.869  67.443  1.00  0.00    -0.119 A  
HETATM   14 CL   UNL     1      -9.541   2.731  68.636  1.00  0.00    -0.173 Cl 
HETATM   15  C   UNL     1      -8.024   5.794  66.567  1.00  0.00    -0.102 A  
HETATM   16  C   UNL     1      -8.400   4.513  66.986  1.00  0.00    -0.105 A  
HETATM   17  C   UNL     1      -8.889   4.293  68.284  1.00  0.00    -0.107 A  
BRANCH  13  18
HETATM   18  C   UNL     1      -8.304   8.303  66.962  1.00  0.00    -0.122 C  
HETATM   19  C   UNL     1      -6.449   9.582  66.563  1.00  0.00    -0.067 C  
HETATM   20  C   UNL     1      -7.578  10.422  67.119  1.00  0.00    -0.096 C  
HETATM   21  O   UNL     1      -7.126   8.419  66.089  1.00  0.00    -0.074 OA 
HETATM   22  H   UNL     1      -9.825   8.515  64.017  1.00  0.00     0.000 HD 
HETATM   23  O   UNL     1      -8.197   9.395  67.949  1.00  0.00    -0.113 OA 
HETATM   24  C   UNL     1      -8.679  10.942  66.137  1.00  0.00    -0.184 C  
HETATM   25  O   UNL     1      -9.098   8.354  64.608  1.00  0.00     0.186 OA 
HETATM   26  C   UNL     1      -9.931  10.028  66.127  1.00  0.00    -0.256 C  
HETATM   27  O   UNL     1      -8.128  11.150  64.837  1.00  0.00    -0.351 OA 
HETATM   28  H   UNL     1     -11.480   9.656  67.306  1.00  0.00     0.000 HD 
HETATM   29  H   UNL     1      -8.796  11.466  64.241  1.00  0.00     0.000 HD 
HETATM   30  O   UNL     1     -10.712  10.216  67.313  1.00  0.00    -0.261 OA 
HETATM   31  C   UNL     1      -9.502   8.569  65.987  1.00  0.00    -0.186 C  
BRANCH  20  32
HETATM   32  C   UNL     1      -6.929  11.667  67.765  1.00  0.00    -0.084 C  
HETATM   33  O   UNL     1      -7.317  12.899  67.150  1.00  0.00    -0.324 OA 
HETATM   34  H   UNL     1      -6.918  13.665  67.546  1.00  0.00     0.000 HD 
ENDBRANCH  20  32
ENDBRANCH  13  18
ENDBRANCH  10  11
ENDBRANCH   7  10
ENDBRANCH   3   4
ENDBRANCH   2   3
TORSDOF 6
ENDMDL
MODEL      156
REMARK 921   NORMALIZED FREE ENERGY PREDICTED BY IDOCK:   -4.96 KCAL/MOL
REMARK 922        TOTAL FREE ENERGY PREDICTED BY IDOCK:   -7.84 KCAL/MOL
REMARK 923 INTER-LIGAND FREE ENERGY PREDICTED BY IDOCK:   -6.65 KCAL/MOL
REMARK 924 INTRA-LIGAND FREE ENERGY PREDICTED BY IDOCK:   -1.18 KCAL/MOL
REMARK 927      BINDING AFFINITY PREDICTED BY RF-SCORE:    0.00 PKD
ROOT
HETATM    1  C   UNL     1     -14.133  13.851  72.276  1.00  0.00    -0.632 C  
HETATM    2  C   UNL     1     -12.714  13.584  71.801  1.00  0.00    -0.244 C  
ENDROOT
BRANCH   2   3
HETATM    3  O   UNL     1     -11.997  14.822  71.716  1.00  0.00    -0.351 OA 
BRANCH   3   4
HETATM    4  C   UNL     1     -11.438  15.087  70.492  1.00  0.00    -0.290 A  
HETATM    5  C   UNL     1     -12.269  14.912  69.386  1.00  0.00    -0.240 A  
HETATM    6  C   UNL     1     -11.754  14.992  68.085  1.00  0.00    -0.335 A  
HETATM    7  C   UNL     1     -10.388  15.245  67.872  1.00  0.00    -0.246 A  
HETATM    8  C   UNL     1      -9.594  15.550  68.988  1.00  0.00    -0.238 A  
HETATM    9  C   UNL     1     -10.115  15.477  70.287  1.00  0.00    -0.056 A  
BRANCH   7  10
HETATM   10  C   UNL     1      -9.755  14.985  66.515  1.00  0.00    -0.285 C  
BRANCH  10  11
HETATM   11  C   UNL     1     -10.142  13.753  65.728  1.00  0.00    -0.322 A  
HETATM   12  C   UNL     1      -9.508  12.538  66.021  1.00  0.00    -0.154 A  
HETATM   13  C   UNL     1      -9.800  11.336  65.326  1.00  0.00    -0.291 A  
HETATM   14 CL   UNL     1     -11.859  15.185  64.151  1.00  0.00    -0.268 Cl 
HETATM   15  C   UNL     1     -10.909  11.318  64.481  1.00  0.00    -0.354 A  
HETATM   16  C   UNL     1     -11.564  12.518  64.185  1.00  0.00    -0.457 A  
HETATM   17  C   UNL     1     -11.139  13.731  64.749  1.00  0.00    -0.377 A  
BRANCH  13  18
HETATM   18  C   UNL     1      -8.733  10.256  65.295  1.00  0.00    -0.172 C  
HETATM   19  C   UNL     1      -7.654   9.737  63.345  1.00  0.00    -0.130 C  
HETATM   20  C   UNL     1      -7.855   8.504  64.198  1.00  0.00    -0.144 C  
HETATM   21  O   UNL     1      -7.814  10.800  64.285  1.00  0.00     0.055 OA 
HETATM   22  H   UNL     1      -6.140  10.972  67.243  1.00  0.00     0.000 HD 
HETATM   23  O   UNL     1      -9.106   8.905  64.832  1.00  0.00    -0.143 OA 
HETATM   24  C   UNL     1      -6.833   8.213  65.346  1.00  0.00    -0.062 C  
HETATM   25  O   UNL     1      -6.682  11.030  66.464  1.00  0.00    -0.122 OA 
HETATM   26  C   UNL     1      -7.336   8.726  66.719  1.00  0.00    -0.082 C  
HETATM   27  O   UNL     1      -5.541   8.713  65.001  1.00  0.00    -0.046 OA 
HETATM   28  H   UNL     1      -8.672   8.190  68.081  1.00  0.00     0.000 HD 
HETATM   29  H   UNL     1      -4.921   8.536  65.697  1.00  0.00     0.000 HD 
HETATM   30  O   UNL     1      -8.364   7.875  67.239  1.00  0.00    -0.119 OA 
HETATM   31  C   UNL     1      -7.840  10.161  66.580  1.00  0.00    -0.112 C  
BRANCH  20  32
HETATM   32  C   UNL     1      -7.813   7.290  63.242  1.00  0.00    -0.113 C  
HETATM   33  O   UNL     1      -8.491   6.138  63.749  1.00  0.00    -0.324 OA 
HETATM   34  H   UNL     1      -8.465   5.392  63.161  1.00  0.00     0.000 HD 
ENDBRANCH  20  32
ENDBRANCH  13  18
ENDBRANCH  10  11
ENDBRANCH   7  10
ENDBRANCH   3   4
ENDBRANCH   2   3
TORSDOF 6
ENDMDL
MODEL      157
REMARK 921   NORMALIZED FREE ENERGY PREDICTED BY IDOCK:   -4.96 KCAL/MOL
REMARK 922        TOTAL FREE ENERGY PREDICTED BY IDOCK:   -7.83 KCAL/MOL
REMARK 923 INTER-LIGAND FREE ENERGY PREDICTED BY IDOCK:   -6.33 KCAL/MOL
REMARK 924 INTRA-LIGAND FREE ENERGY PREDICTED BY IDOCK:   -1.50 KCAL/MOL
REMARK 927      BINDING AFFINITY PREDICTED BY RF-SCORE:    0.00 PKD
ROOT
HETATM    1  C   UNL     1      -8.762   3.473  65.213  1.00  0.00    -0.119 C  
HETATM    2  C   UNL     1      -8.686   3.296  66.722  1.00  0.00    -0.125 C  
ENDROOT
BRANCH   2   3
HETATM    3  O   UNL     1      -9.799   3.958  67.337  1.00  0.00    -0.168 OA 
BRANCH   3   4
HETATM    4  C   UNL     1      -9.471   5.019  68.141  1.00  0.00    -0.132 A  
HETATM    5  C   UNL     1     -10.125   6.220  67.870  1.00  0.00    -0.169 A  
HETATM    6  C   UNL     1      -9.744   7.403  68.517  1.00  0.00    -0.152 A  
HETATM    7  C   UNL     1      -8.693   7.400  69.451  1.00  0.00    -0.137 A  
HETATM    8  C   UNL     1      -8.136   6.164  69.811  1.00  0.00    -0.119 A  
HETATM    9  C   UNL     1      -8.526   4.981  69.165  1.00  0.00    -0.088 A  
BRANCH   7  10
HETATM   10  C   UNL     1      -8.041   8.702  69.887  1.00  0.00    -0.111 C  
BRANCH  10  11
HETATM   11  C   UNL     1      -7.685   9.748  68.854  1.00  0.00    -0.082 A  
HETATM   12  C   UNL     1      -8.460  10.913  68.778  1.00  0.00    -0.150 A  
HETATM   13  C   UNL     1      -8.207  11.941  67.833  1.00  0.00    -0.150 A  
HETATM   14 CL   UNL     1      -5.674   8.195  67.838  1.00  0.00    -0.037 Cl 
HETATM   15  C   UNL     1      -7.016  11.888  67.109  1.00  0.00    -0.142 A  
HETATM   16  C   UNL     1      -6.221  10.739  67.179  1.00  0.00    -0.065 A  
HETATM   17  C   UNL     1      -6.591   9.654  67.990  1.00  0.00    -0.061 A  
BRANCH  13  18
HETATM   18  C   UNL     1      -9.361  12.847  67.441  1.00  0.00    -0.194 C  
HETATM   19  C   UNL     1     -11.513  12.070  67.464  1.00  0.00    -0.333 C  
HETATM   20  C   UNL     1     -11.302  13.053  66.333  1.00  0.00    -0.317 C  
HETATM   21  O   UNL     1     -10.419  12.354  68.335  1.00  0.00    -0.224 OA 
HETATM   22  H   UNL     1      -9.649  15.478  69.447  1.00  0.00     0.000 HD 
HETATM   23  O   UNL     1      -9.900  12.754  66.071  1.00  0.00    -0.261 OA 
HETATM   24  C   UNL     1     -11.394  14.584  66.645  1.00  0.00    -0.356 C  
HETATM   25  O   UNL     1      -9.745  14.567  69.192  1.00  0.00    -0.166 OA 
HETATM   26  C   UNL     1      -9.999  15.214  66.886  1.00  0.00    -0.239 C  
HETATM   27  O   UNL     1     -12.307  14.820  67.716  1.00  0.00    -0.570 OA 
HETATM   28  H   UNL     1      -8.432  15.759  65.800  1.00  0.00     0.000 HD 
HETATM   29  H   UNL     1     -12.363  15.749  67.905  1.00  0.00     0.000 HD 
HETATM   30  O   UNL     1      -9.287  15.373  65.653  1.00  0.00    -0.296 OA 
HETATM   31  C   UNL     1      -9.204  14.348  67.861  1.00  0.00    -0.195 C  
BRANCH  20  32
HETATM   32  C   UNL     1     -12.383  12.747  65.271  1.00  0.00    -0.488 C  
HETATM   33  O   UNL     1     -13.401  13.748  65.184  1.00  0.00    -0.688 OA 
HETATM   34  H   UNL     1     -14.065  13.560  64.532  1.00  0.00     0.000 HD 
ENDBRANCH  20  32
ENDBRANCH  13  18
ENDBRANCH  10  11
ENDBRANCH   7  10
ENDBRANCH   3   4
ENDBRANCH   2   3
TORSDOF 6
ENDMDL
MODEL      158
REMARK 921   NORMALIZED FREE ENERGY PREDICTED BY IDOCK:   -4.96 KCAL/MOL
REMARK 922        TOTAL FREE ENERGY PREDICTED BY IDOCK:   -7.83 KCAL/MOL
REMARK 923 INTER-LIGAND FREE ENERGY PREDICTED BY IDOCK:   -6.74 KCAL/MOL
REMARK 924 INTRA-LIGAND FREE ENERGY PREDICTED BY IDOCK:   -1.10 KCAL/MOL
REMARK 927      BINDING AFFINITY PREDICTED BY RF-SCORE:    0.00 PKD
ROOT
HETATM    1  C   UNL     1     -10.557  16.745  69.503  1.00  0.00    -0.283 C  
HETATM    2  C   UNL     1     -11.020  15.545  70.315  1.00  0.00    -0.334 C  
ENDROOT
BRANCH   2   3
HETATM    3  O   UNL     1     -12.244  15.040  69.765  1.00  0.00    -0.310 OA 
BRANCH   3   4
HETATM    4  C   UNL     1     -12.093  14.127  68.753  1.00  0.00    -0.291 A  
HETATM    5  C   UNL     1     -11.871  12.807  69.144  1.00  0.00    -0.352 A  
HETATM    6  C   UNL     1     -11.537  11.828  68.198  1.00  0.00    -0.391 A  
HETATM    7  C   UNL     1     -11.418  12.160  66.838  1.00  0.00    -0.414 A  
HETATM    8  C   UNL     1     -11.774  13.459  66.444  1.00  0.00    -0.409 A  
HETATM    9  C   UNL     1     -12.115  14.434  67.393  1.00  0.00    -0.348 A  
BRANCH   7  10
HETATM   10  C   UNL     1     -10.723  11.218  65.868  1.00  0.00    -0.291 C  
BRANCH  10  11
HETATM   11  C   UNL     1      -9.495  10.456  66.311  1.00  0.00    -0.215 A  
HETATM   12  C   UNL     1      -9.519   9.055  66.275  1.00  0.00    -0.306 A  
HETATM   13  C   UNL     1      -8.417   8.259  66.683  1.00  0.00    -0.124 A  
HETATM   14 CL   UNL     1      -8.194  12.763  66.996  1.00  0.00    -0.141 Cl 
HETATM   15  C   UNL     1      -7.199   8.895  66.915  1.00  0.00    -0.082 A  
HETATM   16  C   UNL     1      -7.149  10.293  66.945  1.00  0.00    -0.092 A  
HETATM   17  C   UNL     1      -8.301  11.061  66.714  1.00  0.00    -0.147 A  
BRANCH  13  18
HETATM   18  C   UNL     1      -8.697   6.839  67.141  1.00  0.00    -0.119 C  
HETATM   19  C   UNL     1     -10.790   6.228  67.836  1.00  0.00    -0.333 C  
HETATM   20  C   UNL     1      -9.723   5.506  68.628  1.00  0.00    -0.142 C  
HETATM   21  O   UNL     1     -10.081   6.663  66.676  1.00  0.00    -0.180 OA 
HETATM   22  H   UNL     1      -8.187   4.603  64.738  1.00  0.00     0.000 HD 
HETATM   23  O   UNL     1      -8.707   6.550  68.588  1.00  0.00    -0.123 OA 
HETATM   24  C   UNL     1      -9.081   4.217  68.016  1.00  0.00    -0.131 C  
HETATM   25  O   UNL     1      -8.662   5.281  65.205  1.00  0.00    -0.147 OA 
HETATM   26  C   UNL     1      -7.741   4.518  67.297  1.00  0.00    -0.089 C  
HETATM   27  O   UNL     1     -10.022   3.538  67.185  1.00  0.00    -0.304 OA 
HETATM   28  H   UNL     1      -5.871   4.938  67.801  1.00  0.00     0.000 HD 
HETATM   29  H   UNL     1      -9.631   2.755  66.814  1.00  0.00     0.000 HD 
HETATM   30  O   UNL     1      -6.692   4.753  68.242  1.00  0.00    -0.048 OA 
HETATM   31  C   UNL     1      -7.914   5.721  66.370  1.00  0.00    -0.102 C  
BRANCH  20  32
HETATM   32  C   UNL     1     -10.370   5.090  69.969  1.00  0.00    -0.233 C  
HETATM   33  O   UNL     1     -10.848   6.194  70.741  1.00  0.00    -0.255 OA 
HETATM   34  H   UNL     1     -11.246   5.939  71.566  1.00  0.00     0.000 HD 
ENDBRANCH  20  32
ENDBRANCH  13  18
ENDBRANCH  10  11
ENDBRANCH   7  10
ENDBRANCH   3   4
ENDBRANCH   2   3
TORSDOF 6
ENDMDL
MODEL      159
REMARK 921   NORMALIZED FREE ENERGY PREDICTED BY IDOCK:   -4.92 KCAL/MOL
REMARK 922        TOTAL FREE ENERGY PREDICTED BY IDOCK:   -7.78 KCAL/MOL
REMARK 923 INTER-LIGAND FREE ENERGY PREDICTED BY IDOCK:   -6.13 KCAL/MOL
REMARK 924 INTRA-LIGAND FREE ENERGY PREDICTED BY IDOCK:   -1.65 KCAL/MOL
REMARK 927      BINDING AFFINITY PREDICTED BY RF-SCORE:    0.00 PKD
ROOT
HETATM    1  C   UNL     1      -5.154   6.551  68.184  1.00  0.00    -0.007 C  
HETATM    2  C   UNL     1      -5.231   5.037  68.061  1.00  0.00    -0.010 C  
ENDROOT
BRANCH   2   3
HETATM    3  O   UNL     1      -5.583   4.472  69.330  1.00  0.00    -0.014 OA 
BRANCH   3   4
HETATM    4  C   UNL     1      -6.871   4.712  69.736  1.00  0.00    -0.044 A  
HETATM    5  C   UNL     1      -7.878   4.252  68.888  1.00  0.00    -0.069 A  
HETATM    6  C   UNL     1      -9.218   4.589  69.121  1.00  0.00    -0.194 A  
HETATM    7  C   UNL     1      -9.571   5.401  70.212  1.00  0.00    -0.236 A  
HETATM    8  C   UNL     1      -8.565   5.744  71.129  1.00  0.00    -0.128 A  
HETATM    9  C   UNL     1      -7.227   5.398  70.896  1.00  0.00    -0.073 A  
BRANCH   7  10
HETATM   10  C   UNL     1     -10.939   6.060  70.277  1.00  0.00    -0.412 C  
BRANCH  10  11
HETATM   11  C   UNL     1     -11.045   7.567  70.335  1.00  0.00    -0.277 A  
HETATM   12  C   UNL     1     -10.837   8.305  69.161  1.00  0.00    -0.036 A  
HETATM   13  C   UNL     1     -10.904   9.722  69.125  1.00  0.00    -0.231 A  
HETATM   14 CL   UNL     1     -11.481   7.528  73.036  1.00  0.00    -0.315 Cl 
HETATM   15  C   UNL     1     -11.413  10.383  70.242  1.00  0.00    -0.406 A  
HETATM   16  C   UNL     1     -11.640   9.664  71.421  1.00  0.00    -0.472 A  
HETATM   17  C   UNL     1     -11.391   8.284  71.484  1.00  0.00    -0.268 A  
BRANCH  13  18
HETATM   18  C   UNL     1     -10.144  10.442  68.026  1.00  0.00    -0.163 C  
HETATM   19  C   UNL     1      -9.883  12.714  68.084  1.00  0.00    -0.226 C  
HETATM   20  C   UNL     1     -10.039  12.222  66.662  1.00  0.00    -0.215 C  
HETATM   21  O   UNL     1      -9.513  11.529  68.788  1.00  0.00    -0.175 OA 
HETATM   22  H   UNL     1      -6.972   9.477  67.830  1.00  0.00     0.000 HD 
HETATM   23  O   UNL     1     -10.909  11.087  66.941  1.00  0.00    -0.266 OA 
HETATM   24  C   UNL     1      -8.780  11.663  65.921  1.00  0.00     0.002 C  
HETATM   25  O   UNL     1      -7.714   9.952  68.188  1.00  0.00    -0.082 OA 
HETATM   26  C   UNL     1      -8.697  10.118  65.996  1.00  0.00    -0.140 C  
HETATM   27  O   UNL     1      -7.597  12.310  66.390  1.00  0.00    -0.350 OA 
HETATM   28  H   UNL     1      -9.598   8.562  65.162  1.00  0.00     0.000 HD 
HETATM   29  H   UNL     1      -6.833  11.971  65.940  1.00  0.00     0.000 HD 
HETATM   30  O   UNL     1      -9.649   9.509  65.116  1.00  0.00    -0.280 OA 
HETATM   31  C   UNL     1      -8.921   9.659  67.436  1.00  0.00    -0.131 C  
BRANCH  20  32
HETATM   32  C   UNL     1     -10.552  13.420  65.831  1.00  0.00    -0.283 C  
HETATM   33  O   UNL     1      -9.922  13.544  64.553  1.00  0.00    -0.631 OA 
HETATM   34  H   UNL     1     -10.238  14.281  64.043  1.00  0.00     0.000 HD 
ENDBRANCH  20  32
ENDBRANCH  13  18
ENDBRANCH  10  11
ENDBRANCH   7  10
ENDBRANCH   3   4
ENDBRANCH   2   3
TORSDOF 6
ENDMDL
MODEL      160
REMARK 921   NORMALIZED FREE ENERGY PREDICTED BY IDOCK:   -4.92 KCAL/MOL
REMARK 922        TOTAL FREE ENERGY PREDICTED BY IDOCK:   -7.78 KCAL/MOL
REMARK 923 INTER-LIGAND FREE ENERGY PREDICTED BY IDOCK:   -6.62 KCAL/MOL
REMARK 924 INTRA-LIGAND FREE ENERGY PREDICTED BY IDOCK:   -1.16 KCAL/MOL
REMARK 927      BINDING AFFINITY PREDICTED BY RF-SCORE:    0.00 PKD
ROOT
HETATM    1  C   UNL     1      -9.709  15.489  65.603  1.00  0.00    -0.355 C  
HETATM    2  C   UNL     1      -9.790  14.442  66.703  1.00  0.00    -0.278 C  
ENDROOT
BRANCH   2   3
HETATM    3  O   UNL     1     -10.785  13.468  66.365  1.00  0.00    -0.284 OA 
BRANCH   3   4
HETATM    4  C   UNL     1     -11.311  12.780  67.429  1.00  0.00    -0.313 A  
HETATM    5  C   UNL     1     -11.619  13.537  68.558  1.00  0.00    -0.368 A  
HETATM    6  C   UNL     1     -12.001  12.914  69.754  1.00  0.00    -0.365 A  
HETATM    7  C   UNL     1     -12.077  11.513  69.836  1.00  0.00    -0.389 A  
HETATM    8  C   UNL     1     -11.894  10.773  68.658  1.00  0.00    -0.208 A  
HETATM    9  C   UNL     1     -11.519  11.402  67.462  1.00  0.00    -0.336 A  
BRANCH   7  10
HETATM   10  C   UNL     1     -12.138  10.819  71.188  1.00  0.00    -0.415 C  
BRANCH  10  11
HETATM   11  C   UNL     1     -11.649   9.395  71.324  1.00  0.00    -0.434 A  
HETATM   12  C   UNL     1     -10.306   9.111  71.037  1.00  0.00    -0.363 A  
HETATM   13  C   UNL     1      -9.764   7.803  71.126  1.00  0.00    -0.175 A  
HETATM   14 CL   UNL     1     -14.152   8.497  71.968  1.00  0.00    -0.487 Cl 
HETATM   15  C   UNL     1     -10.537   6.812  71.731  1.00  0.00    -0.237 A  
HETATM   16  C   UNL     1     -11.876   7.077  72.037  1.00  0.00    -0.336 A  
HETATM   17  C   UNL     1     -12.442   8.334  71.771  1.00  0.00    -0.332 A  
BRANCH  13  18
HETATM   18  C   UNL     1      -8.534   7.485  70.295  1.00  0.00    -0.138 C  
HETATM   19  C   UNL     1      -8.114   5.344  69.604  1.00  0.00    -0.099 C  
HETATM   20  C   UNL     1      -6.828   6.076  69.917  1.00  0.00    -0.064 C  
HETATM   21  O   UNL     1      -9.049   6.410  69.434  1.00  0.00    -0.139 OA 
HETATM   22  H   UNL     1      -8.525   9.071  67.377  1.00  0.00     0.000 HD 
HETATM   23  O   UNL     1      -7.343   6.938  70.973  1.00  0.00    -0.075 OA 
HETATM   24  C   UNL     1      -6.212   7.009  68.823  1.00  0.00    -0.027 C  
HETATM   25  O   UNL     1      -8.781   8.398  67.997  1.00  0.00    -0.137 OA 
HETATM   26  C   UNL     1      -6.608   8.493  69.032  1.00  0.00    -0.048 C  
HETATM   27  O   UNL     1      -6.529   6.524  67.518  1.00  0.00    -0.047 OA 
HETATM   28  H   UNL     1      -6.123   9.979  70.251  1.00  0.00     0.000 HD 
HETATM   29  H   UNL     1      -6.155   7.091  66.855  1.00  0.00     0.000 HD 
HETATM   30  O   UNL     1      -5.880   9.069  70.123  1.00  0.00    -0.030 OA 
HETATM   31  C   UNL     1      -8.113   8.595  69.272  1.00  0.00    -0.112 C  
BRANCH  20  32
HETATM   32  C   UNL     1      -5.768   4.995  70.231  1.00  0.00    -0.016 C  
HETATM   33  O   UNL     1      -5.718   4.626  71.612  1.00  0.00    -0.011 OA 
HETATM   34  H   UNL     1      -5.066   3.963  71.806  1.00  0.00     0.000 HD 
ENDBRANCH  20  32
ENDBRANCH  13  18
ENDBRANCH  10  11
ENDBRANCH   7  10
ENDBRANCH   3   4
ENDBRANCH   2   3
TORSDOF 6
ENDMDL
MODEL      161
REMARK 921   NORMALIZED FREE ENERGY PREDICTED BY IDOCK:   -4.91 KCAL/MOL
REMARK 922        TOTAL FREE ENERGY PREDICTED BY IDOCK:   -7.77 KCAL/MOL
REMARK 923 INTER-LIGAND FREE ENERGY PREDICTED BY IDOCK:   -6.33 KCAL/MOL
REMARK 924 INTRA-LIGAND FREE ENERGY PREDICTED BY IDOCK:   -1.43 KCAL/MOL
REMARK 927      BINDING AFFINITY PREDICTED BY RF-SCORE:    0.00 PKD
ROOT
HETATM    1  C   UNL     1      -9.229  10.311  62.479  1.00  0.00    -0.321 C  
HETATM    2  C   UNL     1      -8.060  10.215  63.446  1.00  0.00    -0.161 C  
ENDROOT
BRANCH   2   3
HETATM    3  O   UNL     1      -8.518  10.486  64.777  1.00  0.00    -0.174 OA 
BRANCH   3   4
HETATM    4  C   UNL     1      -8.948   9.389  65.479  1.00  0.00    -0.204 A  
HETATM    5  C   UNL     1      -8.215   8.217  65.297  1.00  0.00    -0.149 A  
HETATM    6  C   UNL     1      -8.666   7.003  65.832  1.00  0.00    -0.140 A  
HETATM    7  C   UNL     1      -9.867   6.944  66.559  1.00  0.00    -0.168 A  
HETATM    8  C   UNL     1     -10.522   8.152  66.847  1.00  0.00    -0.379 A  
HETATM    9  C   UNL     1     -10.063   9.366  66.316  1.00  0.00    -0.328 A  
BRANCH   7  10
HETATM   10  C   UNL     1     -10.542   5.610  66.834  1.00  0.00    -0.367 C  
BRANCH  10  11
HETATM   11  C   UNL     1     -10.032   4.726  67.949  1.00  0.00    -0.161 A  
HETATM   12  C   UNL     1     -10.285   5.099  69.276  1.00  0.00    -0.276 A  
HETATM   13  C   UNL     1      -9.833   4.336  70.385  1.00  0.00    -0.268 A  
HETATM   14 CL   UNL     1      -8.808   3.037  66.178  1.00  0.00    -0.136 Cl 
HETATM   15  C   UNL     1      -9.318   3.064  70.141  1.00  0.00    -0.229 A  
HETATM   16  C   UNL     1      -9.069   2.666  68.823  1.00  0.00    -0.209 A  
HETATM   17  C   UNL     1      -9.359   3.518  67.745  1.00  0.00    -0.197 A  
BRANCH  13  18
HETATM   18  C   UNL     1      -9.647   5.052  71.711  1.00  0.00    -0.154 C  
HETATM   19  C   UNL     1      -9.253   7.305  71.775  1.00  0.00    -0.142 C  
HETATM   20  C   UNL     1      -8.501   6.591  72.877  1.00  0.00    -0.119 C  
HETATM   21  O   UNL     1     -10.256   6.356  71.413  1.00  0.00    -0.195 OA 
HETATM   22  H   UNL     1     -12.334   4.856  73.652  1.00  0.00     0.000 HD 
HETATM   23  O   UNL     1      -8.275   5.332  72.177  1.00  0.00    -0.112 OA 
HETATM   24  C   UNL     1      -9.260   6.249  74.201  1.00  0.00    -0.154 C  
HETATM   25  O   UNL     1     -11.804   5.186  72.936  1.00  0.00    -0.256 OA 
HETATM   26  C   UNL     1      -9.797   4.796  74.208  1.00  0.00    -0.166 C  
HETATM   27  O   UNL     1     -10.273   7.221  74.460  1.00  0.00    -0.401 OA 
HETATM   28  H   UNL     1      -9.064   2.966  74.422  1.00  0.00     0.000 HD 
HETATM   29  H   UNL     1     -10.734   7.013  75.264  1.00  0.00     0.000 HD 
HETATM   30  O   UNL     1      -8.735   3.857  74.418  1.00  0.00    -0.094 OA 
HETATM   31  C   UNL     1     -10.520   4.508  72.893  1.00  0.00    -0.190 C  
BRANCH  20  32
HETATM   32  C   UNL     1      -7.312   7.499  73.264  1.00  0.00    -0.084 C  
HETATM   33  O   UNL     1      -7.701   8.693  73.948  1.00  0.00    -0.399 OA 
HETATM   34  H   UNL     1      -6.970   9.252  74.186  1.00  0.00     0.000 HD 
ENDBRANCH  20  32
ENDBRANCH  13  18
ENDBRANCH  10  11
ENDBRANCH   7  10
ENDBRANCH   3   4
ENDBRANCH   2   3
TORSDOF 6
ENDMDL
MODEL      162
REMARK 921   NORMALIZED FREE ENERGY PREDICTED BY IDOCK:   -4.85 KCAL/MOL
REMARK 922        TOTAL FREE ENERGY PREDICTED BY IDOCK:   -7.68 KCAL/MOL
REMARK 923 INTER-LIGAND FREE ENERGY PREDICTED BY IDOCK:   -6.22 KCAL/MOL
REMARK 924 INTRA-LIGAND FREE ENERGY PREDICTED BY IDOCK:   -1.46 KCAL/MOL
REMARK 927      BINDING AFFINITY PREDICTED BY RF-SCORE:    0.00 PKD
ROOT
HETATM    1  C   UNL     1      -5.203  14.412  73.163  1.00  0.00    -0.302 C  
HETATM    2  C   UNL     1      -5.147  13.204  72.241  1.00  0.00    -0.046 C  
ENDROOT
BRANCH   2   3
HETATM    3  O   UNL     1      -5.854  13.495  71.029  1.00  0.00    -0.198 OA 
BRANCH   3   4
HETATM    4  C   UNL     1      -5.684  12.578  70.023  1.00  0.00    -0.140 A  
HETATM    5  C   UNL     1      -5.298  13.089  68.785  1.00  0.00    -0.072 A  
HETATM    6  C   UNL     1      -5.259  12.265  67.652  1.00  0.00    -0.094 A  
HETATM    7  C   UNL     1      -5.613  10.908  67.744  1.00  0.00    -0.042 A  
HETATM    8  C   UNL     1      -5.870  10.380  69.018  1.00  0.00    -0.040 A  
HETATM    9  C   UNL     1      -5.899  11.206  70.150  1.00  0.00    -0.124 A  
BRANCH   7  10
HETATM   10  C   UNL     1      -5.919  10.101  66.492  1.00  0.00    -0.062 C  
BRANCH  10  11
HETATM   11  C   UNL     1      -7.333  10.046  65.960  1.00  0.00    -0.112 A  
HETATM   12  C   UNL     1      -8.124  11.201  66.024  1.00  0.00    -0.064 A  
HETATM   13  C   UNL     1      -9.465  11.237  65.560  1.00  0.00    -0.255 A  
HETATM   14 CL   UNL     1      -7.113   7.380  65.386  1.00  0.00    -0.059 Cl 
HETATM   15  C   UNL     1      -9.931  10.155  64.816  1.00  0.00    -0.334 A  
HETATM   16  C   UNL     1      -9.152   8.996  64.728  1.00  0.00    -0.088 A  
HETATM   17  C   UNL     1      -7.897   8.921  65.354  1.00  0.00    -0.102 A  
BRANCH  13  18
HETATM   18  C   UNL     1     -10.394  12.282  66.152  1.00  0.00    -0.242 C  
HETATM   19  C   UNL     1     -10.119  13.000  68.307  1.00  0.00    -0.239 C  
HETATM   20  C   UNL     1     -11.584  12.952  67.934  1.00  0.00    -0.345 C  
HETATM   21  O   UNL     1      -9.471  13.009  67.036  1.00  0.00    -0.221 OA 
HETATM   22  H   UNL     1     -10.252  15.177  64.531  1.00  0.00     0.000 HD 
HETATM   23  O   UNL     1     -11.514  11.833  67.002  1.00  0.00    -0.389 OA 
HETATM   24  C   UNL     1     -12.198  14.160  67.153  1.00  0.00    -0.313 C  
HETATM   25  O   UNL     1      -9.956  14.507  65.137  1.00  0.00    -0.354 OA 
HETATM   26  C   UNL     1     -12.238  13.908  65.625  1.00  0.00    -0.452 C  
HETATM   27  O   UNL     1     -11.527  15.371  67.502  1.00  0.00    -0.318 OA 
HETATM   28  H   UNL     1     -13.305  12.832  64.347  1.00  0.00     0.000 HD 
HETATM   29  H   UNL     1     -11.900  16.105  67.028  1.00  0.00     0.000 HD 
HETATM   30  O   UNL     1     -13.281  12.987  65.284  1.00  0.00    -0.636 OA 
HETATM   31  C   UNL     1     -10.881  13.387  65.153  1.00  0.00    -0.313 C  
BRANCH  20  32
HETATM   32  C   UNL     1     -12.375  12.825  69.256  1.00  0.00     0.113 C  
HETATM   33  O   UNL     1     -12.715  14.084  69.844  1.00  0.00    -0.381 OA 
HETATM   34  H   UNL     1     -13.201  14.005  70.657  1.00  0.00     0.000 HD 
ENDBRANCH  20  32
ENDBRANCH  13  18
ENDBRANCH  10  11
ENDBRANCH   7  10
ENDBRANCH   3   4
ENDBRANCH   2   3
TORSDOF 6
ENDMDL
MODEL      163
REMARK 921   NORMALIZED FREE ENERGY PREDICTED BY IDOCK:   -4.85 KCAL/MOL
REMARK 922        TOTAL FREE ENERGY PREDICTED BY IDOCK:   -7.68 KCAL/MOL
REMARK 923 INTER-LIGAND FREE ENERGY PREDICTED BY IDOCK:   -6.26 KCAL/MOL
REMARK 924 INTRA-LIGAND FREE ENERGY PREDICTED BY IDOCK:   -1.42 KCAL/MOL
REMARK 927      BINDING AFFINITY PREDICTED BY RF-SCORE:    0.00 PKD
ROOT
HETATM    1  C   UNL     1     -10.124  16.280  69.577  1.00  0.00    -0.221 C  
HETATM    2  C   UNL     1     -10.981  15.287  70.344  1.00  0.00    -0.290 C  
ENDROOT
BRANCH   2   3
HETATM    3  O   UNL     1     -12.171  15.005  69.597  1.00  0.00    -0.300 OA 
BRANCH   3   4
HETATM    4  C   UNL     1     -12.024  14.074  68.600  1.00  0.00    -0.354 A  
HETATM    5  C   UNL     1     -11.727  12.775  69.012  1.00  0.00    -0.371 A  
HETATM    6  C   UNL     1     -11.393  11.788  68.075  1.00  0.00    -0.355 A  
HETATM    7  C   UNL     1     -11.347  12.090  66.704  1.00  0.00    -0.399 A  
HETATM    8  C   UNL     1     -11.778  13.362  66.296  1.00  0.00    -0.405 A  
HETATM    9  C   UNL     1     -12.119  14.345  67.236  1.00  0.00    -0.358 A  
BRANCH   7  10
HETATM   10  C   UNL     1     -10.654  11.154  65.727  1.00  0.00    -0.289 C  
BRANCH  10  11
HETATM   11  C   UNL     1      -9.453  10.354  66.176  1.00  0.00    -0.227 A  
HETATM   12  C   UNL     1      -9.515   8.955  66.122  1.00  0.00    -0.318 A  
HETATM   13  C   UNL     1      -8.440   8.125  66.535  1.00  0.00    -0.132 A  
HETATM   14 CL   UNL     1      -8.099  12.618  66.904  1.00  0.00    -0.077 Cl 
HETATM   15  C   UNL     1      -7.208   8.724  66.790  1.00  0.00    -0.082 A  
HETATM   16  C   UNL     1      -7.121  10.120  66.837  1.00  0.00    -0.091 A  
HETATM   17  C   UNL     1      -8.249  10.922  66.601  1.00  0.00    -0.145 A  
BRANCH  13  18
HETATM   18  C   UNL     1      -8.765   6.707  66.972  1.00  0.00    -0.113 C  
HETATM   19  C   UNL     1      -7.428   5.615  68.474  1.00  0.00    -0.080 C  
HETATM   20  C   UNL     1      -7.984   4.656  67.445  1.00  0.00    -0.101 C  
HETATM   21  O   UNL     1      -8.308   6.734  68.369  1.00  0.00    -0.121 OA 
HETATM   22  H   UNL     1     -11.700   6.490  68.512  1.00  0.00     0.000 HD 
HETATM   23  O   UNL     1      -8.055   5.587  66.325  1.00  0.00    -0.104 OA 
HETATM   24  C   UNL     1      -9.425   4.084  67.656  1.00  0.00    -0.183 C  
HETATM   25  O   UNL     1     -10.773   6.689  68.435  1.00  0.00    -0.218 OA 
HETATM   26  C   UNL     1     -10.492   4.883  66.866  1.00  0.00    -0.144 C  
HETATM   27  O   UNL     1      -9.721   3.983  69.049  1.00  0.00    -0.169 OA 
HETATM   28  H   UNL     1     -11.085   5.066  64.983  1.00  0.00     0.000 HD 
HETATM   29  H   UNL     1     -10.596   3.636  69.177  1.00  0.00     0.000 HD 
HETATM   30  O   UNL     1     -10.432   4.576  65.468  1.00  0.00    -0.272 OA 
HETATM   31  C   UNL     1     -10.292   6.380  67.099  1.00  0.00    -0.232 C  
BRANCH  20  32
HETATM   32  C   UNL     1      -7.025   3.445  67.401  1.00  0.00    -0.054 C  
HETATM   33  O   UNL     1      -7.600   2.239  67.911  1.00  0.00    -0.055 OA 
HETATM   34  H   UNL     1      -7.009   1.495  67.884  1.00  0.00     0.000 HD 
ENDBRANCH  20  32
ENDBRANCH  13  18
ENDBRANCH  10  11
ENDBRANCH   7  10
ENDBRANCH   3   4
ENDBRANCH   2   3
TORSDOF 6
ENDMDL
MODEL      164
REMARK 921   NORMALIZED FREE ENERGY PREDICTED BY IDOCK:   -4.84 KCAL/MOL
REMARK 922        TOTAL FREE ENERGY PREDICTED BY IDOCK:   -7.68 KCAL/MOL
REMARK 923 INTER-LIGAND FREE ENERGY PREDICTED BY IDOCK:   -6.36 KCAL/MOL
REMARK 924 INTRA-LIGAND FREE ENERGY PREDICTED BY IDOCK:   -1.32 KCAL/MOL
REMARK 927      BINDING AFFINITY PREDICTED BY RF-SCORE:    0.00 PKD
ROOT
HETATM    1  C   UNL     1     -10.229   3.277  72.575  1.00  0.00    -0.218 C  
HETATM    2  C   UNL     1     -10.628   4.592  71.925  1.00  0.00    -0.038 C  
ENDROOT
BRANCH   2   3
HETATM    3  O   UNL     1     -11.256   5.436  72.899  1.00  0.00    -0.280 OA 
BRANCH   3   4
HETATM    4  C   UNL     1     -11.407   6.746  72.522  1.00  0.00    -0.254 A  
HETATM    5  C   UNL     1     -12.657   7.098  72.013  1.00  0.00    -0.253 A  
HETATM    6  C   UNL     1     -12.866   8.362  71.445  1.00  0.00    -0.262 A  
HETATM    7  C   UNL     1     -11.819   9.296  71.375  1.00  0.00    -0.428 A  
HETATM    8  C   UNL     1     -10.609   8.977  72.010  1.00  0.00    -0.321 A  
HETATM    9  C   UNL     1     -10.406   7.714  72.584  1.00  0.00    -0.332 A  
BRANCH   7  10
HETATM   10  C   UNL     1     -11.921  10.508  70.463  1.00  0.00    -0.436 C  
BRANCH  10  11
HETATM   11  C   UNL     1     -11.270  10.479  69.099  1.00  0.00    -0.314 A  
HETATM   12  C   UNL     1     -10.801   9.256  68.599  1.00  0.00    -0.120 A  
HETATM   13  C   UNL     1     -10.166   9.138  67.336  1.00  0.00    -0.310 A  
HETATM   14 CL   UNL     1     -11.494  13.193  68.830  1.00  0.00    -0.322 Cl 
HETATM   15  C   UNL     1     -10.212  10.232  66.473  1.00  0.00    -0.289 A  
HETATM   16  C   UNL     1     -10.686  11.460  66.947  1.00  0.00    -0.308 A  
HETATM   17  C   UNL     1     -11.144  11.596  68.268  1.00  0.00    -0.234 A  
BRANCH  13  18
HETATM   18  C   UNL     1      -9.222   7.968  67.122  1.00  0.00    -0.142 C  
HETATM   19  C   UNL     1      -8.034   7.769  65.177  1.00  0.00    -0.129 C  
HETATM   20  C   UNL     1      -8.442   6.411  65.705  1.00  0.00    -0.146 C  
HETATM   21  O   UNL     1      -8.163   8.605  66.326  1.00  0.00    -0.110 OA 
HETATM   22  H   UNL     1      -6.755   7.900  69.344  1.00  0.00     0.000 HD 
HETATM   23  O   UNL     1      -9.694   6.813  66.334  1.00  0.00    -0.151 OA 
HETATM   24  C   UNL     1      -7.564   5.745  66.815  1.00  0.00    -0.096 C  
HETATM   25  O   UNL     1      -7.214   8.198  68.567  1.00  0.00    -0.084 OA 
HETATM   26  C   UNL     1      -8.131   5.996  68.235  1.00  0.00    -0.110 C  
HETATM   27  O   UNL     1      -6.201   6.145  66.679  1.00  0.00    -0.034 OA 
HETATM   28  H   UNL     1      -9.634   5.339  69.348  1.00  0.00     0.000 HD 
HETATM   29  H   UNL     1      -5.668   5.740  67.353  1.00  0.00     0.000 HD 
HETATM   30  O   UNL     1      -9.287   5.185  68.477  1.00  0.00    -0.115 OA 
HETATM   31  C   UNL     1      -8.465   7.477  68.403  1.00  0.00    -0.125 C  
BRANCH  20  32
HETATM   32  C   UNL     1      -8.443   5.447  64.497  1.00  0.00    -0.117 C  
HETATM   33  O   UNL     1      -8.325   6.109  63.234  1.00  0.00    -0.284 OA 
HETATM   34  H   UNL     1      -8.326   5.516  62.492  1.00  0.00     0.000 HD 
ENDBRANCH  20  32
ENDBRANCH  13  18
ENDBRANCH  10  11
ENDBRANCH   7  10
ENDBRANCH   3   4
ENDBRANCH   2   3
TORSDOF 6
ENDMDL
MODEL      165
REMARK 921   NORMALIZED FREE ENERGY PREDICTED BY IDOCK:   -4.83 KCAL/MOL
REMARK 922        TOTAL FREE ENERGY PREDICTED BY IDOCK:   -7.66 KCAL/MOL
REMARK 923 INTER-LIGAND FREE ENERGY PREDICTED BY IDOCK:   -6.44 KCAL/MOL
REMARK 924 INTRA-LIGAND FREE ENERGY PREDICTED BY IDOCK:   -1.22 KCAL/MOL
REMARK 927      BINDING AFFINITY PREDICTED BY RF-SCORE:    0.00 PKD
ROOT
HETATM    1  C   UNL     1     -10.474  19.896  66.132  1.00  0.00    -0.581 C  
HETATM    2  C   UNL     1      -9.591  18.797  66.701  1.00  0.00    -0.336 C  
ENDROOT
BRANCH   2   3
HETATM    3  O   UNL     1     -10.412  17.781  67.290  1.00  0.00    -0.356 OA 
BRANCH   3   4
HETATM    4  C   UNL     1      -9.765  16.607  67.579  1.00  0.00    -0.247 A  
HETATM    5  C   UNL     1      -8.376  16.677  67.673  1.00  0.00    -0.183 A  
HETATM    6  C   UNL     1      -7.608  15.511  67.797  1.00  0.00    -0.162 A  
HETATM    7  C   UNL     1      -8.225  14.249  67.826  1.00  0.00    -0.178 A  
HETATM    8  C   UNL     1      -9.627  14.203  67.865  1.00  0.00    -0.223 A  
HETATM    9  C   UNL     1     -10.392  15.373  67.749  1.00  0.00    -0.253 A  
BRANCH   7  10
HETATM   10  C   UNL     1      -7.412  12.984  67.603  1.00  0.00    -0.156 C  
BRANCH  10  11
HETATM   11  C   UNL     1      -7.206  12.012  68.742  1.00  0.00    -0.108 A  
HETATM   12  C   UNL     1      -7.930  10.812  68.746  1.00  0.00    -0.136 A  
HETATM   13  C   UNL     1      -7.809   9.848  69.780  1.00  0.00    -0.169 A  
HETATM   14 CL   UNL     1      -5.486  13.720  70.013  1.00  0.00    -0.098 Cl 
HETATM   15  C   UNL     1      -6.775  10.001  70.703  1.00  0.00    -0.074 A  
HETATM   16  C   UNL     1      -6.032  11.187  70.710  1.00  0.00    -0.003 A  
HETATM   17  C   UNL     1      -6.294  12.208  69.783  1.00  0.00    -0.102 A  
BRANCH  13  18
HETATM   18  C   UNL     1      -8.974   8.902  70.009  1.00  0.00    -0.165 C  
HETATM   19  C   UNL     1     -10.401   9.213  71.770  1.00  0.00    -0.260 C  
HETATM   20  C   UNL     1     -10.195   7.740  71.493  1.00  0.00    -0.182 C  
HETATM   21  O   UNL     1      -9.982   9.824  70.550  1.00  0.00    -0.265 OA 
HETATM   22  H   UNL     1     -11.129   8.901  67.482  1.00  0.00     0.000 HD 
HETATM   23  O   UNL     1      -8.824   7.822  71.004  1.00  0.00    -0.138 OA 
HETATM   24  C   UNL     1     -11.044   7.064  70.365  1.00  0.00    -0.287 C  
HETATM   25  O   UNL     1     -10.717   9.235  68.270  1.00  0.00    -0.209 OA 
HETATM   26  C   UNL     1     -10.275   6.990  69.022  1.00  0.00    -0.187 C  
HETATM   27  O   UNL     1     -12.315   7.704  70.248  1.00  0.00    -0.377 OA 
HETATM   28  H   UNL     1      -8.800   5.924  68.237  1.00  0.00     0.000 HD 
HETATM   29  H   UNL     1     -12.830   7.293  69.564  1.00  0.00     0.000 HD 
HETATM   30  O   UNL     1      -9.271   5.969  69.061  1.00  0.00    -0.122 OA 
HETATM   31  C   UNL     1      -9.653   8.350  68.709  1.00  0.00    -0.149 C  
BRANCH  20  32
HETATM   32  C   UNL     1     -10.518   6.991  72.806  1.00  0.00    -0.238 C  
HETATM   33  O   UNL     1     -11.743   7.406  73.416  1.00  0.00    -0.496 OA 
HETATM   34  H   UNL     1     -11.941   6.946  74.223  1.00  0.00     0.000 HD 
ENDBRANCH  20  32
ENDBRANCH  13  18
ENDBRANCH  10  11
ENDBRANCH   7  10
ENDBRANCH   3   4
ENDBRANCH   2   3
TORSDOF 6
ENDMDL
MODEL      166
REMARK 921   NORMALIZED FREE ENERGY PREDICTED BY IDOCK:   -4.81 KCAL/MOL
REMARK 922        TOTAL FREE ENERGY PREDICTED BY IDOCK:   -7.63 KCAL/MOL
REMARK 923 INTER-LIGAND FREE ENERGY PREDICTED BY IDOCK:   -6.26 KCAL/MOL
REMARK 924 INTRA-LIGAND FREE ENERGY PREDICTED BY IDOCK:   -1.37 KCAL/MOL
REMARK 927      BINDING AFFINITY PREDICTED BY RF-SCORE:    0.00 PKD
ROOT
HETATM    1  C   UNL     1     -12.380  11.843  63.412  1.00  0.00    -0.577 C  
HETATM    2  C   UNL     1     -12.362  13.357  63.552  1.00  0.00    -0.326 C  
ENDROOT
BRANCH   2   3
HETATM    3  O   UNL     1     -12.905  13.726  64.826  1.00  0.00    -0.685 OA 
BRANCH   3   4
HETATM    4  C   UNL     1     -12.002  14.259  65.710  1.00  0.00    -0.393 A  
HETATM    5  C   UNL     1     -10.959  14.998  65.152  1.00  0.00    -0.417 A  
HETATM    6  C   UNL     1      -9.894  15.443  65.947  1.00  0.00    -0.387 A  
HETATM    7  C   UNL     1      -9.856  15.149  67.321  1.00  0.00    -0.228 A  
HETATM    8  C   UNL     1     -10.975  14.523  67.891  1.00  0.00    -0.277 A  
HETATM    9  C   UNL     1     -12.042  14.086  67.093  1.00  0.00    -0.436 A  
BRANCH   7  10
HETATM   10  C   UNL     1      -8.568  15.307  68.111  1.00  0.00    -0.160 C  
BRANCH  10  11
HETATM   11  C   UNL     1      -7.587  14.159  68.188  1.00  0.00    -0.136 A  
HETATM   12  C   UNL     1      -7.751  13.072  67.318  1.00  0.00    -0.112 A  
HETATM   13  C   UNL     1      -6.887  11.946  67.328  1.00  0.00    -0.142 A  
HETATM   14 CL   UNL     1      -6.272  15.298  70.300  1.00  0.00    -0.127 Cl 
HETATM   15  C   UNL     1      -5.711  12.028  68.073  1.00  0.00    -0.055 A  
HETATM   16  C   UNL     1      -5.521  13.111  68.939  1.00  0.00    -0.072 A  
HETATM   17  C   UNL     1      -6.483  14.128  69.044  1.00  0.00    -0.099 A  
BRANCH  13  18
HETATM   18  C   UNL     1      -7.428  10.630  66.799  1.00  0.00    -0.120 C  
HETATM   19  C   UNL     1      -6.133   8.743  66.821  1.00  0.00    -0.058 C  
HETATM   20  C   UNL     1      -7.027   8.773  65.601  1.00  0.00    -0.079 C  
HETATM   21  O   UNL     1      -6.767   9.674  67.699  1.00  0.00    -0.065 OA 
HETATM   22  H   UNL     1     -10.073   9.564  68.500  1.00  0.00     0.000 HD 
HETATM   23  O   UNL     1      -7.073  10.220  65.426  1.00  0.00    -0.134 OA 
HETATM   24  C   UNL     1      -8.506   8.283  65.744  1.00  0.00    -0.151 C  
HETATM   25  O   UNL     1      -9.149   9.716  68.340  1.00  0.00    -0.123 OA 
HETATM   26  C   UNL     1      -9.491   9.457  65.970  1.00  0.00    -0.241 C  
HETATM   27  O   UNL     1      -8.600   7.272  66.748  1.00  0.00    -0.119 OA 
HETATM   28  H   UNL     1     -10.314  10.904  64.894  1.00  0.00     0.000 HD 
HETATM   29  H   UNL     1      -9.498   6.974  66.835  1.00  0.00     0.000 HD 
HETATM   30  O   UNL     1      -9.710  10.184  64.756  1.00  0.00    -0.294 OA 
HETATM   31  C   UNL     1      -8.952  10.379  67.062  1.00  0.00    -0.139 C  
BRANCH  20  32
HETATM   32  C   UNL     1      -6.358   7.874  64.537  1.00  0.00    -0.052 C  
HETATM   33  O   UNL     1      -5.371   8.550  63.753  1.00  0.00    -0.055 OA 
HETATM   34  H   UNL     1      -4.960   7.997  63.099  1.00  0.00     0.000 HD 
ENDBRANCH  20  32
ENDBRANCH  13  18
ENDBRANCH  10  11
ENDBRANCH   7  10
ENDBRANCH   3   4
ENDBRANCH   2   3
TORSDOF 6
ENDMDL
MODEL      167
REMARK 921   NORMALIZED FREE ENERGY PREDICTED BY IDOCK:   -4.80 KCAL/MOL
REMARK 922        TOTAL FREE ENERGY PREDICTED BY IDOCK:   -7.63 KCAL/MOL
REMARK 923 INTER-LIGAND FREE ENERGY PREDICTED BY IDOCK:   -6.12 KCAL/MOL
REMARK 924 INTRA-LIGAND FREE ENERGY PREDICTED BY IDOCK:   -1.50 KCAL/MOL
REMARK 927      BINDING AFFINITY PREDICTED BY RF-SCORE:    0.00 PKD
ROOT
HETATM    1  C   UNL     1     -14.396   7.569  71.436  1.00  0.00    -0.540 C  
HETATM    2  C   UNL     1     -13.124   8.391  71.568  1.00  0.00    -0.296 C  
ENDROOT
BRANCH   2   3
HETATM    3  O   UNL     1     -12.095   7.589  72.162  1.00  0.00    -0.294 OA 
BRANCH   3   4
HETATM    4  C   UNL     1     -11.026   7.318  71.346  1.00  0.00    -0.232 A  
HETATM    5  C   UNL     1      -9.912   8.141  71.500  1.00  0.00    -0.237 A  
HETATM    6  C   UNL     1      -8.834   8.060  70.608  1.00  0.00    -0.143 A  
HETATM    7  C   UNL     1      -8.861   7.148  69.538  1.00  0.00    -0.137 A  
HETATM    8  C   UNL     1      -9.926   6.238  69.475  1.00  0.00    -0.198 A  
HETATM    9  C   UNL     1     -10.998   6.318  70.375  1.00  0.00    -0.385 A  
BRANCH   7  10
HETATM   10  C   UNL     1      -7.889   7.289  68.377  1.00  0.00    -0.122 C  
BRANCH  10  11
HETATM   11  C   UNL     1      -8.094   8.384  67.355  1.00  0.00    -0.106 A  
HETATM   12  C   UNL     1      -8.103   9.718  67.786  1.00  0.00    -0.113 A  
HETATM   13  C   UNL     1      -8.301  10.808  66.900  1.00  0.00    -0.132 A  
HETATM   14 CL   UNL     1      -8.430   6.568  65.336  1.00  0.00    -0.143 Cl 
HETATM   15  C   UNL     1      -8.260  10.555  65.529  1.00  0.00    -0.162 A  
HETATM   16  C   UNL     1      -8.238   9.232  65.076  1.00  0.00    -0.146 A  
HETATM   17  C   UNL     1      -8.225   8.159  65.982  1.00  0.00    -0.121 A  
BRANCH  13  18
HETATM   18  C   UNL     1      -8.847  12.102  67.475  1.00  0.00    -0.175 C  
HETATM   19  C   UNL     1     -10.824  12.124  68.627  1.00  0.00    -0.235 C  
HETATM   20  C   UNL     1     -10.649  13.396  67.828  1.00  0.00    -0.245 C  
HETATM   21  O   UNL     1      -9.493  11.613  68.702  1.00  0.00    -0.186 OA 
HETATM   22  H   UNL     1      -6.819  13.447  69.735  1.00  0.00     0.000 HD 
HETATM   23  O   UNL     1      -9.887  12.829  66.721  1.00  0.00    -0.230 OA 
HETATM   24  C   UNL     1      -9.784  14.549  68.436  1.00  0.00    -0.224 C  
HETATM   25  O   UNL     1      -7.474  12.840  69.410  1.00  0.00     0.213 OA 
HETATM   26  C   UNL     1      -8.325  14.523  67.912  1.00  0.00    -0.159 C  
HETATM   27  O   UNL     1      -9.867  14.536  69.860  1.00  0.00    -0.328 OA 
HETATM   28  H   UNL     1      -7.361  14.985  66.243  1.00  0.00     0.000 HD 
HETATM   29  H   UNL     1      -9.342  15.236  70.229  1.00  0.00     0.000 HD 
HETATM   30  O   UNL     1      -8.255  15.002  66.564  1.00  0.00    -0.103 OA 
HETATM   31  C   UNL     1      -7.768  13.104  68.012  1.00  0.00    -0.146 C  
BRANCH  20  32
HETATM   32  C   UNL     1     -12.064  13.972  67.594  1.00  0.00    -0.309 C  
HETATM   33  O   UNL     1     -12.228  15.305  68.088  1.00  0.00    -0.489 OA 
HETATM   34  H   UNL     1     -13.098  15.659  67.944  1.00  0.00     0.000 HD 
ENDBRANCH  20  32
ENDBRANCH  13  18
ENDBRANCH  10  11
ENDBRANCH   7  10
ENDBRANCH   3   4
ENDBRANCH   2   3
TORSDOF 6
ENDMDL
MODEL      168
REMARK 921   NORMALIZED FREE ENERGY PREDICTED BY IDOCK:   -4.77 KCAL/MOL
REMARK 922        TOTAL FREE ENERGY PREDICTED BY IDOCK:   -7.58 KCAL/MOL
REMARK 923 INTER-LIGAND FREE ENERGY PREDICTED BY IDOCK:   -6.97 KCAL/MOL
REMARK 924 INTRA-LIGAND FREE ENERGY PREDICTED BY IDOCK:   -0.61 KCAL/MOL
REMARK 927      BINDING AFFINITY PREDICTED BY RF-SCORE:    0.00 PKD
ROOT
HETATM    1  C   UNL     1     -14.409  15.192  71.850  1.00  0.00    -0.693 C  
HETATM    2  C   UNL     1     -13.627  14.048  72.476  1.00  0.00    -0.566 C  
ENDROOT
BRANCH   2   3
HETATM    3  O   UNL     1     -12.508  13.722  71.642  1.00  0.00    -0.307 OA 
BRANCH   3   4
HETATM    4  C   UNL     1     -12.456  12.417  71.223  1.00  0.00    -0.170 A  
HETATM    5  C   UNL     1     -13.198  11.503  71.969  1.00  0.00    -0.443 A  
HETATM    6  C   UNL     1     -13.082  10.126  71.732  1.00  0.00    -0.568 A  
HETATM    7  C   UNL     1     -12.214   9.643  70.737  1.00  0.00    -0.309 A  
HETATM    8  C   UNL     1     -11.578  10.579  69.908  1.00  0.00    -0.384 A  
HETATM    9  C   UNL     1     -11.703  11.956  70.144  1.00  0.00    -0.337 A  
BRANCH   7  10
HETATM   10  C   UNL     1     -11.812   8.178  70.706  1.00  0.00    -0.167 C  
BRANCH  10  11
HETATM   11  C   UNL     1     -10.388   7.796  70.374  1.00  0.00    -0.212 A  
HETATM   12  C   UNL     1      -9.620   8.667  69.588  1.00  0.00    -0.170 A  
HETATM   13  C   UNL     1      -8.280   8.384  69.217  1.00  0.00    -0.116 A  
HETATM   14 CL   UNL     1     -10.635   5.389  71.652  1.00  0.00    -0.293 Cl 
HETATM   15  C   UNL     1      -7.638   7.315  69.841  1.00  0.00    -0.094 A  
HETATM   16  C   UNL     1      -8.382   6.439  70.639  1.00  0.00    -0.133 A  
HETATM   17  C   UNL     1      -9.757   6.641  70.845  1.00  0.00    -0.179 A  
BRANCH  13  18
HETATM   18  C   UNL     1      -7.734   9.046  67.965  1.00  0.00    -0.097 C  
HETATM   19  C   UNL     1      -8.607  11.024  67.215  1.00  0.00    -0.130 C  
HETATM   20  C   UNL     1      -8.193  10.141  66.059  1.00  0.00    -0.131 C  
HETATM   21  O   UNL     1      -7.883  10.467  68.312  1.00  0.00    -0.101 OA 
HETATM   22  H   UNL     1      -4.531   9.876  68.257  1.00  0.00     0.000 HD 
HETATM   23  O   UNL     1      -8.454   8.853  66.691  1.00  0.00    -0.116 OA 
HETATM   24  C   UNL     1      -6.692  10.139  65.619  1.00  0.00    -0.116 C  
HETATM   25  O   UNL     1      -5.467   9.971  68.390  1.00  0.00    -0.039 OA 
HETATM   26  C   UNL     1      -5.901   8.963  66.246  1.00  0.00    -0.050 C  
HETATM   27  O   UNL     1      -6.097  11.412  65.873  1.00  0.00    -0.388 OA 
HETATM   28  H   UNL     1      -5.743   7.004  65.989  1.00  0.00     0.000 HD 
HETATM   29  H   UNL     1      -5.186  11.411  65.606  1.00  0.00     0.000 HD 
HETATM   30  O   UNL     1      -6.228   7.725  65.605  1.00  0.00    -0.038 OA 
HETATM   31  C   UNL     1      -6.190   8.889  67.744  1.00  0.00    -0.055 C  
BRANCH  20  32
HETATM   32  C   UNL     1      -9.018  10.596  64.834  1.00  0.00    -0.199 C  
HETATM   33  O   UNL     1      -8.217  10.980  63.713  1.00  0.00    -0.366 OA 
HETATM   34  H   UNL     1      -8.724  11.260  62.961  1.00  0.00     0.000 HD 
ENDBRANCH  20  32
ENDBRANCH  13  18
ENDBRANCH  10  11
ENDBRANCH   7  10
ENDBRANCH   3   4
ENDBRANCH   2   3
TORSDOF 6
ENDMDL
MODEL      169
REMARK 921   NORMALIZED FREE ENERGY PREDICTED BY IDOCK:   -4.77 KCAL/MOL
REMARK 922        TOTAL FREE ENERGY PREDICTED BY IDOCK:   -7.58 KCAL/MOL
REMARK 923 INTER-LIGAND FREE ENERGY PREDICTED BY IDOCK:   -6.36 KCAL/MOL
REMARK 924 INTRA-LIGAND FREE ENERGY PREDICTED BY IDOCK:   -1.22 KCAL/MOL
REMARK 927      BINDING AFFINITY PREDICTED BY RF-SCORE:    0.00 PKD
ROOT
HETATM    1  C   UNL     1      -9.127   1.812  69.187  1.00  0.00    -0.166 C  
HETATM    2  C   UNL     1      -8.978   2.505  67.842  1.00  0.00    -0.155 C  
ENDROOT
BRANCH   2   3
HETATM    3  O   UNL     1      -9.988   3.513  67.709  1.00  0.00     0.011 OA 
BRANCH   3   4
HETATM    4  C   UNL     1      -9.531   4.746  67.319  1.00  0.00    -0.146 A  
HETATM    5  C   UNL     1     -10.496   5.742  67.178  1.00  0.00    -0.337 A  
HETATM    6  C   UNL     1     -10.163   6.986  66.625  1.00  0.00    -0.218 A  
HETATM    7  C   UNL     1      -8.849   7.250  66.200  1.00  0.00    -0.181 A  
HETATM    8  C   UNL     1      -7.864   6.289  66.471  1.00  0.00    -0.104 A  
HETATM    9  C   UNL     1      -8.200   5.048  67.031  1.00  0.00    -0.107 A  
BRANCH   7  10
HETATM   10  C   UNL     1      -8.553   8.431  65.290  1.00  0.00    -0.177 C  
BRANCH  10  11
HETATM   11  C   UNL     1      -8.110   9.748  65.888  1.00  0.00    -0.114 A  
HETATM   12  C   UNL     1      -9.067  10.565  66.505  1.00  0.00    -0.175 A  
HETATM   13  C   UNL     1      -8.744  11.822  67.081  1.00  0.00    -0.169 A  
HETATM   14 CL   UNL     1      -5.540   9.385  65.023  1.00  0.00    -0.056 Cl 
HETATM   15  C   UNL     1      -7.397  12.146  67.234  1.00  0.00    -0.149 A  
HETATM   16  C   UNL     1      -6.424  11.337  66.637  1.00  0.00    -0.128 A  
HETATM   17  C   UNL     1      -6.784  10.189  65.913  1.00  0.00    -0.107 A  
BRANCH  13  18
HETATM   18  C   UNL     1      -9.852  12.852  67.205  1.00  0.00    -0.225 C  
HETATM   19  C   UNL     1      -9.951  14.636  65.775  1.00  0.00    -0.338 C  
HETATM   20  C   UNL     1     -10.418  15.025  67.161  1.00  0.00    -0.277 C  
HETATM   21  O   UNL     1     -10.058  13.213  65.795  1.00  0.00    -0.286 OA 
HETATM   22  H   UNL     1     -12.868  11.542  66.740  1.00  0.00     0.000 HD 
HETATM   23  O   UNL     1      -9.569  14.113  67.918  1.00  0.00    -0.211 OA 
HETATM   24  C   UNL     1     -11.897  14.715  67.566  1.00  0.00    -0.347 C  
HETATM   25  O   UNL     1     -12.022  11.886  66.477  1.00  0.00    -0.588 OA 
HETATM   26  C   UNL     1     -12.020  13.390  68.359  1.00  0.00    -0.324 C  
HETATM   27  O   UNL     1     -12.748  14.763  66.420  1.00  0.00    -0.207 OA 
HETATM   28  H   UNL     1     -11.621  12.736  70.187  1.00  0.00     0.000 HD 
HETATM   29  H   UNL     1     -13.646  14.575  66.666  1.00  0.00     0.000 HD 
HETATM   30  O   UNL     1     -11.546  13.548  69.701  1.00  0.00    -0.283 OA 
HETATM   31  C   UNL     1     -11.247  12.286  67.639  1.00  0.00    -0.290 C  
BRANCH  20  32
HETATM   32  C   UNL     1     -10.232  16.554  67.280  1.00  0.00    -0.287 C  
HETATM   33  O   UNL     1     -11.269  17.202  68.022  1.00  0.00    -0.224 OA 
HETATM   34  H   UNL     1     -11.155  18.142  68.094  1.00  0.00     0.000 HD 
ENDBRANCH  20  32
ENDBRANCH  13  18
ENDBRANCH  10  11
ENDBRANCH   7  10
ENDBRANCH   3   4
ENDBRANCH   2   3
TORSDOF 6
ENDMDL
MODEL      170
REMARK 921   NORMALIZED FREE ENERGY PREDICTED BY IDOCK:   -4.75 KCAL/MOL
REMARK 922        TOTAL FREE ENERGY PREDICTED BY IDOCK:   -7.56 KCAL/MOL
REMARK 923 INTER-LIGAND FREE ENERGY PREDICTED BY IDOCK:   -6.28 KCAL/MOL
REMARK 924 INTRA-LIGAND FREE ENERGY PREDICTED BY IDOCK:   -1.28 KCAL/MOL
REMARK 927      BINDING AFFINITY PREDICTED BY RF-SCORE:    0.00 PKD
ROOT
HETATM    1  C   UNL     1      -7.413  16.008  68.727  1.00  0.00    -0.176 C  
HETATM    2  C   UNL     1      -8.232  14.780  68.359  1.00  0.00    -0.154 C  
ENDROOT
BRANCH   2   3
HETATM    3  O   UNL     1      -9.601  15.159  68.166  1.00  0.00    -0.201 OA 
BRANCH   3   4
HETATM    4  C   UNL     1     -10.521  14.191  68.478  1.00  0.00    -0.252 A  
HETATM    5  C   UNL     1     -11.226  14.374  69.667  1.00  0.00    -0.274 A  
HETATM    6  C   UNL     1     -12.064  13.367  70.163  1.00  0.00    -0.415 A  
HETATM    7  C   UNL     1     -12.207  12.151  69.472  1.00  0.00    -0.169 A  
HETATM    8  C   UNL     1     -11.598  12.035  68.213  1.00  0.00    -0.394 A  
HETATM    9  C   UNL     1     -10.766  13.049  67.717  1.00  0.00    -0.242 A  
BRANCH   7  10
HETATM   10  C   UNL     1     -12.813  10.937  70.157  1.00  0.00    -0.144 C  
BRANCH  10  11
HETATM   11  C   UNL     1     -11.916   9.949  70.867  1.00  0.00    -0.434 A  
HETATM   12  C   UNL     1     -10.545   9.951  70.576  1.00  0.00    -0.359 A  
HETATM   13  C   UNL     1      -9.631   9.052  71.185  1.00  0.00    -0.356 A  
HETATM   14 CL   UNL     1     -14.039   8.807  72.161  1.00  0.00    -0.504 Cl 
HETATM   15  C   UNL     1     -10.078   8.297  72.269  1.00  0.00    -0.370 A  
HETATM   16  C   UNL     1     -11.440   8.290  72.586  1.00  0.00    -0.423 A  
HETATM   17  C   UNL     1     -12.357   9.055  71.847  1.00  0.00    -0.384 A  
BRANCH  13  18
HETATM   18  C   UNL     1      -8.345   8.735  70.444  1.00  0.00    -0.140 C  
HETATM   19  C   UNL     1      -6.338   9.538  71.194  1.00  0.00    -0.054 C  
HETATM   20  C   UNL     1      -6.373   9.492  69.683  1.00  0.00    -0.040 C  
HETATM   21  O   UNL     1      -7.393   8.648  71.560  1.00  0.00    -0.091 OA 
HETATM   22  H   UNL     1      -7.695   5.479  70.356  1.00  0.00     0.000 HD 
HETATM   23  O   UNL     1      -7.799   9.740  69.511  1.00  0.00    -0.100 OA 
HETATM   24  C   UNL     1      -6.054   8.138  68.967  1.00  0.00    -0.039 C  
HETATM   25  O   UNL     1      -7.736   6.345  70.746  1.00  0.00    -0.097 OA 
HETATM   26  C   UNL     1      -7.340   7.357  68.596  1.00  0.00    -0.096 C  
HETATM   27  O   UNL     1      -5.136   7.368  69.744  1.00  0.00    -0.015 OA 
HETATM   28  H   UNL     1      -8.783   7.472  67.242  1.00  0.00     0.000 HD 
HETATM   29  H   UNL     1      -4.943   6.546  69.309  1.00  0.00     0.000 HD 
HETATM   30  O   UNL     1      -7.995   7.951  67.469  1.00  0.00    -0.119 OA 
HETATM   31  C   UNL     1      -8.278   7.307  69.801  1.00  0.00    -0.130 C  
BRANCH  20  32
HETATM   32  C   UNL     1      -5.331  10.518  69.183  1.00  0.00    -0.038 C  
HETATM   33  O   UNL     1      -5.176  11.646  70.049  1.00  0.00    -0.067 OA 
HETATM   34  H   UNL     1      -4.536  12.277  69.742  1.00  0.00     0.000 HD 
ENDBRANCH  20  32
ENDBRANCH  13  18
ENDBRANCH  10  11
ENDBRANCH   7  10
ENDBRANCH   3   4
ENDBRANCH   2   3
TORSDOF 6
ENDMDL
MODEL      171
REMARK 921   NORMALIZED FREE ENERGY PREDICTED BY IDOCK:   -4.72 KCAL/MOL
REMARK 922        TOTAL FREE ENERGY PREDICTED BY IDOCK:   -7.51 KCAL/MOL
REMARK 923 INTER-LIGAND FREE ENERGY PREDICTED BY IDOCK:   -6.31 KCAL/MOL
REMARK 924 INTRA-LIGAND FREE ENERGY PREDICTED BY IDOCK:   -1.20 KCAL/MOL
REMARK 927      BINDING AFFINITY PREDICTED BY RF-SCORE:    0.00 PKD
ROOT
HETATM    1  C   UNL     1      -9.277   2.746  68.645  1.00  0.00    -0.238 C  
HETATM    2  C   UNL     1      -9.164   3.044  67.158  1.00  0.00    -0.175 C  
ENDROOT
BRANCH   2   3
HETATM    3  O   UNL     1     -10.134   4.033  66.794  1.00  0.00    -0.138 OA 
BRANCH   3   4
HETATM    4  C   UNL     1      -9.623   5.276  66.521  1.00  0.00    -0.156 A  
HETATM    5  C   UNL     1     -10.442   6.360  66.836  1.00  0.00    -0.340 A  
HETATM    6  C   UNL     1     -10.089   7.659  66.446  1.00  0.00    -0.097 A  
HETATM    7  C   UNL     1      -8.904   7.892  65.727  1.00  0.00    -0.155 A  
HETATM    8  C   UNL     1      -8.028   6.813  65.536  1.00  0.00    -0.119 A  
HETATM    9  C   UNL     1      -8.381   5.516  65.935  1.00  0.00    -0.125 A  
BRANCH   7  10
HETATM   10  C   UNL     1      -8.686   9.209  65.000  1.00  0.00    -0.222 C  
BRANCH  10  11
HETATM   11  C   UNL     1      -8.045  10.370  65.724  1.00  0.00    -0.155 A  
HETATM   12  C   UNL     1      -8.870  11.355  66.286  1.00  0.00    -0.196 A  
HETATM   13  C   UNL     1      -8.355  12.485  66.972  1.00  0.00    -0.144 A  
HETATM   14 CL   UNL     1      -5.528   9.483  65.119  1.00  0.00    -0.045 Cl 
HETATM   15  C   UNL     1      -6.998  12.498  67.290  1.00  0.00    -0.114 A  
HETATM   16  C   UNL     1      -6.158  11.518  66.750  1.00  0.00    -0.147 A  
HETATM   17  C   UNL     1      -6.668  10.507  65.920  1.00  0.00    -0.130 A  
BRANCH  13  18
HETATM   18  C   UNL     1      -9.222  13.730  67.042  1.00  0.00    -0.251 C  
HETATM   19  C   UNL     1     -11.468  13.566  67.452  1.00  0.00    -0.336 C  
HETATM   20  C   UNL     1     -11.172  14.701  66.497  1.00  0.00    -0.346 C  
HETATM   21  O   UNL     1     -10.200  13.332  68.065  1.00  0.00    -0.227 OA 
HETATM   22  H   UNL     1      -8.312  15.779  69.492  1.00  0.00     0.000 HD 
HETATM   23  O   UNL     1     -10.003  14.116  65.851  1.00  0.00    -0.298 OA 
HETATM   24  C   UNL     1     -10.726  16.080  67.089  1.00  0.00    -0.283 C  
HETATM   25  O   UNL     1      -8.730  15.015  69.110  1.00  0.00    -0.200 OA 
HETATM   26  C   UNL     1      -9.185  16.243  67.089  1.00  0.00    -0.213 C  
HETATM   27  O   UNL     1     -11.311  16.282  68.375  1.00  0.00    -0.367 OA 
HETATM   28  H   UNL     1      -7.751  16.602  65.769  1.00  0.00     0.000 HD 
HETATM   29  H   UNL     1     -11.040  17.118  68.734  1.00  0.00     0.000 HD 
HETATM   30  O   UNL     1      -8.696  16.502  65.768  1.00  0.00    -0.460 OA 
HETATM   31  C   UNL     1      -8.534  14.989  67.671  1.00  0.00    -0.160 C  
BRANCH  20  32
HETATM   32  C   UNL     1     -12.468  14.957  65.695  1.00  0.00     0.171 C  
HETATM   33  O   UNL     1     -12.623  14.092  64.566  1.00  0.00    -0.643 OA 
HETATM   34  H   UNL     1     -13.420  14.250  64.073  1.00  0.00     0.000 HD 
ENDBRANCH  20  32
ENDBRANCH  13  18
ENDBRANCH  10  11
ENDBRANCH   7  10
ENDBRANCH   3   4
ENDBRANCH   2   3
TORSDOF 6
ENDMDL
MODEL      172
REMARK 921   NORMALIZED FREE ENERGY PREDICTED BY IDOCK:   -4.70 KCAL/MOL
REMARK 922        TOTAL FREE ENERGY PREDICTED BY IDOCK:   -7.49 KCAL/MOL
REMARK 923 INTER-LIGAND FREE ENERGY PREDICTED BY IDOCK:   -6.98 KCAL/MOL
REMARK 924 INTRA-LIGAND FREE ENERGY PREDICTED BY IDOCK:   -0.50 KCAL/MOL
REMARK 927      BINDING AFFINITY PREDICTED BY RF-SCORE:    0.00 PKD
ROOT
HETATM    1  C   UNL     1     -14.397  15.218  71.865  1.00  0.00    -0.691 C  
HETATM    2  C   UNL     1     -13.703  13.957  72.355  1.00  0.00    -0.576 C  
ENDROOT
BRANCH   2   3
HETATM    3  O   UNL     1     -12.661  13.598  71.439  1.00  0.00    -0.344 OA 
BRANCH   3   4
HETATM    4  C   UNL     1     -12.582  12.261  71.144  1.00  0.00    -0.253 A  
HETATM    5  C   UNL     1     -13.156  11.393  72.071  1.00  0.00    -0.423 A  
HETATM    6  C   UNL     1     -12.985  10.007  71.953  1.00  0.00    -0.547 A  
HETATM    7  C   UNL     1     -12.228   9.467  70.899  1.00  0.00    -0.332 A  
HETATM    8  C   UNL     1     -11.771  10.343  69.903  1.00  0.00    -0.341 A  
HETATM    9  C   UNL     1     -11.951  11.729  70.020  1.00  0.00    -0.421 A  
BRANCH   7  10
HETATM   10  C   UNL     1     -11.741   8.029  70.953  1.00  0.00    -0.265 C  
BRANCH  10  11
HETATM   11  C   UNL     1     -10.346   7.689  70.476  1.00  0.00    -0.211 A  
HETATM   12  C   UNL     1      -9.609   8.666  69.793  1.00  0.00    -0.171 A  
HETATM   13  C   UNL     1      -8.300   8.432  69.300  1.00  0.00    -0.121 A  
HETATM   14 CL   UNL     1     -10.567   5.112  71.367  1.00  0.00    -0.250 Cl 
HETATM   15  C   UNL     1      -7.645   7.269  69.703  1.00  0.00    -0.099 A  
HETATM   16  C   UNL     1      -8.358   6.285  70.397  1.00  0.00    -0.126 A  
HETATM   17  C   UNL     1      -9.713   6.467  70.717  1.00  0.00    -0.180 A  
BRANCH  13  18
HETATM   18  C   UNL     1      -7.816   9.280  68.137  1.00  0.00    -0.095 C  
HETATM   19  C   UNL     1      -5.609   9.855  67.952  1.00  0.00    -0.039 C  
HETATM   20  C   UNL     1      -6.503  10.969  67.454  1.00  0.00    -0.067 C  
HETATM   21  O   UNL     1      -6.474   8.719  67.921  1.00  0.00    -0.056 OA 
HETATM   22  H   UNL     1      -8.303   7.810  65.199  1.00  0.00     0.000 HD 
HETATM   23  O   UNL     1      -7.631  10.729  68.347  1.00  0.00    -0.092 OA 
HETATM   24  C   UNL     1      -7.052  10.892  65.992  1.00  0.00    -0.067 C  
HETATM   25  O   UNL     1      -7.865   7.969  66.027  1.00  0.00    -0.088 OA 
HETATM   26  C   UNL     1      -8.481  10.295  65.935  1.00  0.00    -0.150 C  
HETATM   27  O   UNL     1      -6.126  10.208  65.148  1.00  0.00    -0.101 OA 
HETATM   28  H   UNL     1     -10.328  10.878  66.357  1.00  0.00     0.000 HD 
HETATM   29  H   UNL     1      -6.460  10.161  64.260  1.00  0.00     0.000 HD 
HETATM   30  O   UNL     1      -9.452  11.244  66.391  1.00  0.00    -0.189 OA 
HETATM   31  C   UNL     1      -8.539   9.018  66.772  1.00  0.00    -0.123 C  
BRANCH  20  32
HETATM   32  C   UNL     1      -5.684  12.275  67.557  1.00  0.00    -0.128 C  
HETATM   33  O   UNL     1      -6.326  13.404  66.958  1.00  0.00    -0.437 OA 
HETATM   34  H   UNL     1      -5.822  14.207  67.021  1.00  0.00     0.000 HD 
ENDBRANCH  20  32
ENDBRANCH  13  18
ENDBRANCH  10  11
ENDBRANCH   7  10
ENDBRANCH   3   4
ENDBRANCH   2   3
TORSDOF 6
ENDMDL
MODEL      173
REMARK 921   NORMALIZED FREE ENERGY PREDICTED BY IDOCK:   -4.70 KCAL/MOL
REMARK 922        TOTAL FREE ENERGY PREDICTED BY IDOCK:   -7.49 KCAL/MOL
REMARK 923 INTER-LIGAND FREE ENERGY PREDICTED BY IDOCK:   -6.47 KCAL/MOL
REMARK 924 INTRA-LIGAND FREE ENERGY PREDICTED BY IDOCK:   -1.01 KCAL/MOL
REMARK 927      BINDING AFFINITY PREDICTED BY RF-SCORE:    0.00 PKD
ROOT
HETATM    1  C   UNL     1     -10.375  16.615  69.644  1.00  0.00    -0.193 C  
HETATM    2  C   UNL     1     -10.936  15.382  70.336  1.00  0.00    -0.323 C  
ENDROOT
BRANCH   2   3
HETATM    3  O   UNL     1     -12.193  15.032  69.743  1.00  0.00    -0.310 OA 
BRANCH   3   4
HETATM    4  C   UNL     1     -12.117  14.132  68.710  1.00  0.00    -0.291 A  
HETATM    5  C   UNL     1     -11.905  12.802  69.069  1.00  0.00    -0.344 A  
HETATM    6  C   UNL     1     -11.645  11.831  68.092  1.00  0.00    -0.391 A  
HETATM    7  C   UNL     1     -11.590  12.183  66.732  1.00  0.00    -0.412 A  
HETATM    8  C   UNL     1     -11.938  13.495  66.378  1.00  0.00    -0.459 A  
HETATM    9  C   UNL     1     -12.205  14.462  67.358  1.00  0.00    -0.230 A  
BRANCH   7  10
HETATM   10  C   UNL     1     -10.970  11.241  65.713  1.00  0.00    -0.211 C  
BRANCH  10  11
HETATM   11  C   UNL     1      -9.606  10.645  65.973  1.00  0.00    -0.244 A  
HETATM   12  C   UNL     1      -9.434   9.261  65.827  1.00  0.00    -0.329 A  
HETATM   13  C   UNL     1      -8.193   8.615  66.063  1.00  0.00    -0.127 A  
HETATM   14 CL   UNL     1      -8.581  13.072  66.712  1.00  0.00    -0.122 Cl 
HETATM   15  C   UNL     1      -7.060   9.409  66.228  1.00  0.00    -0.088 A  
HETATM   16  C   UNL     1      -7.206  10.794  66.364  1.00  0.00    -0.138 A  
HETATM   17  C   UNL     1      -8.474  11.394  66.307  1.00  0.00    -0.138 A  
BRANCH  13  18
HETATM   18  C   UNL     1      -8.218   7.142  66.431  1.00  0.00    -0.120 C  
HETATM   19  C   UNL     1      -8.632   5.549  64.840  1.00  0.00    -0.111 C  
HETATM   20  C   UNL     1      -9.226   5.152  66.174  1.00  0.00    -0.151 C  
HETATM   21  O   UNL     1      -7.670   6.539  65.207  1.00  0.00    -0.089 OA 
HETATM   22  H   UNL     1      -5.301   6.074  67.606  1.00  0.00     0.000 HD 
HETATM   23  O   UNL     1      -9.522   6.492  66.665  1.00  0.00    -0.153 OA 
HETATM   24  C   UNL     1      -8.298   4.470  67.233  1.00  0.00    -0.104 C  
HETATM   25  O   UNL     1      -5.923   6.335  66.936  1.00  0.00    -0.023 OA 
HETATM   26  C   UNL     1      -7.745   5.487  68.264  1.00  0.00    -0.085 C  
HETATM   27  O   UNL     1      -7.274   3.716  66.586  1.00  0.00    -0.065 OA 
HETATM   28  H   UNL     1      -8.418   6.493  69.833  1.00  0.00     0.000 HD 
HETATM   29  H   UNL     1      -6.711   3.302  67.230  1.00  0.00     0.000 HD 
HETATM   30  O   UNL     1      -8.757   5.870  69.201  1.00  0.00    -0.117 OA 
HETATM   31  C   UNL     1      -7.192   6.711  67.534  1.00  0.00    -0.090 C  
BRANCH  20  32
HETATM   32  C   UNL     1     -10.368   4.155  65.872  1.00  0.00    -0.017 C  
HETATM   33  O   UNL     1     -11.467   4.739  65.167  1.00  0.00    -0.997 OA 
HETATM   34  H   UNL     1     -12.169   4.126  64.982  1.00  0.00     0.000 HD 
ENDBRANCH  20  32
ENDBRANCH  13  18
ENDBRANCH  10  11
ENDBRANCH   7  10
ENDBRANCH   3   4
ENDBRANCH   2   3
TORSDOF 6
ENDMDL
MODEL      174
REMARK 921   NORMALIZED FREE ENERGY PREDICTED BY IDOCK:   -4.69 KCAL/MOL
REMARK 922        TOTAL FREE ENERGY PREDICTED BY IDOCK:   -7.47 KCAL/MOL
REMARK 923 INTER-LIGAND FREE ENERGY PREDICTED BY IDOCK:   -5.87 KCAL/MOL
REMARK 924 INTRA-LIGAND FREE ENERGY PREDICTED BY IDOCK:   -1.60 KCAL/MOL
REMARK 927      BINDING AFFINITY PREDICTED BY RF-SCORE:    0.00 PKD
ROOT
HETATM    1  C   UNL     1      -5.135   6.561  68.187  1.00  0.00    -0.007 C  
HETATM    2  C   UNL     1      -5.311   5.055  68.069  1.00  0.00    -0.011 C  
ENDROOT
BRANCH   2   3
HETATM    3  O   UNL     1      -5.653   4.512  69.350  1.00  0.00    -0.014 OA 
BRANCH   3   4
HETATM    4  C   UNL     1      -6.936   4.762  69.764  1.00  0.00    -0.053 A  
HETATM    5  C   UNL     1      -7.952   4.345  68.905  1.00  0.00    -0.073 A  
HETATM    6  C   UNL     1      -9.285   4.699  69.150  1.00  0.00    -0.184 A  
HETATM    7  C   UNL     1      -9.623   5.485  70.265  1.00  0.00    -0.227 A  
HETATM    8  C   UNL     1      -8.610   5.784  71.190  1.00  0.00    -0.128 A  
HETATM    9  C   UNL     1      -7.278   5.420  70.945  1.00  0.00    -0.073 A  
BRANCH   7  10
HETATM   10  C   UNL     1     -10.979   6.167  70.351  1.00  0.00    -0.404 C  
BRANCH  10  11
HETATM   11  C   UNL     1     -11.057   7.670  70.493  1.00  0.00    -0.267 A  
HETATM   12  C   UNL     1     -10.786   8.470  69.375  1.00  0.00    -0.166 A  
HETATM   13  C   UNL     1     -10.823   9.887  69.420  1.00  0.00    -0.265 A  
HETATM   14 CL   UNL     1     -11.605   7.482  73.168  1.00  0.00    -0.166 Cl 
HETATM   15  C   UNL     1     -11.365  10.494  70.553  1.00  0.00    -0.400 A  
HETATM   16  C   UNL     1     -11.655   9.713  71.677  1.00  0.00    -0.406 A  
HETATM   17  C   UNL     1     -11.437   8.326  71.668  1.00  0.00    -0.278 A  
BRANCH  13  18
HETATM   18  C   UNL     1     -10.004  10.653  68.397  1.00  0.00    -0.163 C  
HETATM   19  C   UNL     1      -8.457   9.577  67.100  1.00  0.00    -0.131 C  
HETATM   20  C   UNL     1      -7.993  10.973  67.451  1.00  0.00    -0.119 C  
HETATM   21  O   UNL     1      -9.862   9.643  67.339  1.00  0.00    -0.157 OA 
HETATM   22  H   UNL     1     -11.888  12.055  66.048  1.00  0.00     0.000 HD 
HETATM   23  O   UNL     1      -8.635  11.071  68.756  1.00  0.00    -0.152 OA 
HETATM   24  C   UNL     1      -8.514  12.173  66.593  1.00  0.00    -0.088 C  
HETATM   25  O   UNL     1     -11.431  11.344  66.484  1.00  0.00    -0.384 OA 
HETATM   26  C   UNL     1      -9.732  12.872  67.247  1.00  0.00    -0.220 C  
HETATM   27  O   UNL     1      -8.762  11.755  65.251  1.00  0.00    -0.378 OA 
HETATM   28  H   UNL     1     -10.073  14.103  68.763  1.00  0.00     0.000 HD 
HETATM   29  H   UNL     1      -9.078  12.483  64.731  1.00  0.00     0.000 HD 
HETATM   30  O   UNL     1      -9.326  13.674  68.363  1.00  0.00    -0.203 OA 
HETATM   31  C   UNL     1     -10.757  11.825  67.678  1.00  0.00    -0.214 C  
BRANCH  20  32
HETATM   32  C   UNL     1      -6.452  10.973  67.331  1.00  0.00    -0.067 C  
HETATM   33  O   UNL     1      -5.925  12.144  66.702  1.00  0.00    -0.469 OA 
HETATM   34  H   UNL     1      -4.978  12.143  66.628  1.00  0.00     0.000 HD 
ENDBRANCH  20  32
ENDBRANCH  13  18
ENDBRANCH  10  11
ENDBRANCH   7  10
ENDBRANCH   3   4
ENDBRANCH   2   3
TORSDOF 6
ENDMDL
MODEL      175
REMARK 921   NORMALIZED FREE ENERGY PREDICTED BY IDOCK:   -4.66 KCAL/MOL
REMARK 922        TOTAL FREE ENERGY PREDICTED BY IDOCK:   -7.43 KCAL/MOL
REMARK 923 INTER-LIGAND FREE ENERGY PREDICTED BY IDOCK:   -6.44 KCAL/MOL
REMARK 924 INTRA-LIGAND FREE ENERGY PREDICTED BY IDOCK:   -0.99 KCAL/MOL
REMARK 927      BINDING AFFINITY PREDICTED BY RF-SCORE:    0.00 PKD
ROOT
HETATM    1  C   UNL     1     -14.409  15.201  72.182  1.00  0.00    -0.647 C  
HETATM    2  C   UNL     1     -13.397  14.091  72.416  1.00  0.00    -0.518 C  
ENDROOT
BRANCH   2   3
HETATM    3  O   UNL     1     -12.638  13.876  71.219  1.00  0.00    -0.340 OA 
BRANCH   3   4
HETATM    4  C   UNL     1     -12.412  12.561  70.903  1.00  0.00    -0.269 A  
HETATM    5  C   UNL     1     -13.015  11.617  71.733  1.00  0.00    -0.483 A  
HETATM    6  C   UNL     1     -12.715  10.254  71.602  1.00  0.00    -0.561 A  
HETATM    7  C   UNL     1     -11.797   9.815  70.633  1.00  0.00    -0.360 A  
HETATM    8  C   UNL     1     -11.302  10.759  69.720  1.00  0.00    -0.372 A  
HETATM    9  C   UNL     1     -11.611  12.120  69.850  1.00  0.00    -0.297 A  
BRANCH   7  10
HETATM   10  C   UNL     1     -11.199   8.420  70.709  1.00  0.00    -0.290 C  
BRANCH  10  11
HETATM   11  C   UNL     1      -9.748   8.203  70.342  1.00  0.00    -0.179 A  
HETATM   12  C   UNL     1      -9.379   8.247  68.991  1.00  0.00    -0.147 A  
HETATM   13  C   UNL     1      -8.044   8.043  68.555  1.00  0.00    -0.125 A  
HETATM   14 CL   UNL     1      -9.062   7.733  72.949  1.00  0.00    -0.228 Cl 
HETATM   15  C   UNL     1      -7.036   8.019  69.517  1.00  0.00    -0.050 A  
HETATM   16  C   UNL     1      -7.381   7.987  70.872  1.00  0.00    -0.058 A  
HETATM   17  C   UNL     1      -8.726   8.008  71.275  1.00  0.00    -0.138 A  
BRANCH  13  18
HETATM   18  C   UNL     1      -7.828   7.556  67.133  1.00  0.00    -0.117 C  
HETATM   19  C   UNL     1      -8.492   5.458  66.504  1.00  0.00    -0.113 C  
HETATM   20  C   UNL     1      -7.218   5.860  65.794  1.00  0.00    -0.075 C  
HETATM   21  O   UNL     1      -9.016   6.712  66.942  1.00  0.00    -0.120 OA 
HETATM   22  H   UNL     1      -9.452   9.396  64.896  1.00  0.00     0.000 HD 
HETATM   23  O   UNL     1      -6.660   6.698  66.848  1.00  0.00    -0.045 OA 
HETATM   24  C   UNL     1      -7.324   6.747  64.510  1.00  0.00    -0.090 C  
HETATM   25  O   UNL     1      -9.359   8.733  65.570  1.00  0.00    -0.192 OA 
HETATM   26  C   UNL     1      -7.120   8.252  64.823  1.00  0.00    -0.080 C  
HETATM   27  O   UNL     1      -8.544   6.480  63.819  1.00  0.00    -0.324 OA 
HETATM   28  H   UNL     1      -5.615   9.464  65.262  1.00  0.00     0.000 HD 
HETATM   29  H   UNL     1      -8.608   7.018  63.040  1.00  0.00     0.000 HD 
HETATM   30  O   UNL     1      -5.740   8.542  65.071  1.00  0.00    -0.047 OA 
HETATM   31  C   UNL     1      -7.980   8.649  66.021  1.00  0.00    -0.107 C  
BRANCH  20  32
HETATM   32  C   UNL     1      -6.511   4.550  65.376  1.00  0.00    -0.040 C  
HETATM   33  O   UNL     1      -6.521   3.543  66.391  1.00  0.00    -0.035 OA 
HETATM   34  H   UNL     1      -6.087   2.739  66.134  1.00  0.00     0.000 HD 
ENDBRANCH  20  32
ENDBRANCH  13  18
ENDBRANCH  10  11
ENDBRANCH   7  10
ENDBRANCH   3   4
ENDBRANCH   2   3
TORSDOF 6
ENDMDL
MODEL      176
REMARK 921   NORMALIZED FREE ENERGY PREDICTED BY IDOCK:   -4.63 KCAL/MOL
REMARK 922        TOTAL FREE ENERGY PREDICTED BY IDOCK:   -7.39 KCAL/MOL
REMARK 923 INTER-LIGAND FREE ENERGY PREDICTED BY IDOCK:   -5.85 KCAL/MOL
REMARK 924 INTRA-LIGAND FREE ENERGY PREDICTED BY IDOCK:   -1.54 KCAL/MOL
REMARK 927      BINDING AFFINITY PREDICTED BY RF-SCORE:    0.00 PKD
ROOT
HETATM    1  C   UNL     1     -10.243   3.268  72.551  1.00  0.00    -0.218 C  
HETATM    2  C   UNL     1     -10.644   4.575  71.886  1.00  0.00     0.003 C  
ENDROOT
BRANCH   2   3
HETATM    3  O   UNL     1     -11.274   5.428  72.849  1.00  0.00    -0.280 OA 
BRANCH   3   4
HETATM    4  C   UNL     1     -11.397   6.741  72.471  1.00  0.00    -0.254 A  
HETATM    5  C   UNL     1     -12.628   7.113  71.934  1.00  0.00    -0.328 A  
HETATM    6  C   UNL     1     -12.805   8.381  71.364  1.00  0.00    -0.262 A  
HETATM    7  C   UNL     1     -11.741   9.299  71.319  1.00  0.00    -0.416 A  
HETATM    8  C   UNL     1     -10.551   8.960  71.981  1.00  0.00    -0.388 A  
HETATM    9  C   UNL     1     -10.382   7.693  72.558  1.00  0.00    -0.310 A  
BRANCH   7  10
HETATM   10  C   UNL     1     -11.804  10.513  70.407  1.00  0.00    -0.431 C  
BRANCH  10  11
HETATM   11  C   UNL     1     -11.119  10.477  69.060  1.00  0.00    -0.300 A  
HETATM   12  C   UNL     1     -10.704   9.241  68.545  1.00  0.00    -0.185 A  
HETATM   13  C   UNL     1     -10.043   9.115  67.296  1.00  0.00    -0.295 A  
HETATM   14 CL   UNL     1     -11.189  13.204  68.846  1.00  0.00    -0.305 Cl 
HETATM   15  C   UNL     1     -10.007  10.227  66.457  1.00  0.00    -0.280 A  
HETATM   16  C   UNL     1     -10.427  11.469  66.946  1.00  0.00    -0.270 A  
HETATM   17  C   UNL     1     -10.911  11.602  68.257  1.00  0.00    -0.226 A  
BRANCH  13  18
HETATM   18  C   UNL     1      -9.159   7.900  67.080  1.00  0.00    -0.137 C  
HETATM   19  C   UNL     1      -8.101   6.898  68.844  1.00  0.00    -0.120 C  
HETATM   20  C   UNL     1      -7.246   6.845  67.598  1.00  0.00    -0.091 C  
HETATM   21  O   UNL     1      -9.405   7.150  68.320  1.00  0.00    -0.132 OA 
HETATM   22  H   UNL     1     -10.831   5.314  65.835  1.00  0.00     0.000 HD 
HETATM   23  O   UNL     1      -7.698   8.093  66.995  1.00  0.00    -0.094 OA 
HETATM   24  C   UNL     1      -7.511   5.710  66.555  1.00  0.00    -0.087 C  
HETATM   25  O   UNL     1     -10.539   5.912  66.513  1.00  0.00    -0.243 OA 
HETATM   26  C   UNL     1      -8.423   6.185  65.395  1.00  0.00    -0.138 C  
HETATM   27  O   UNL     1      -8.001   4.539  67.207  1.00  0.00    -0.099 OA 
HETATM   28  H   UNL     1      -8.262   7.321  63.779  1.00  0.00     0.000 HD 
HETATM   29  H   UNL     1      -8.162   3.850  66.574  1.00  0.00     0.000 HD 
HETATM   30  O   UNL     1      -7.703   7.030  64.490  1.00  0.00    -0.101 OA 
HETATM   31  C   UNL     1      -9.640   6.913  65.962  1.00  0.00     0.155 C  
BRANCH  20  32
HETATM   32  C   UNL     1      -5.782   6.686  68.070  1.00  0.00    -0.012 C  
HETATM   33  O   UNL     1      -5.131   5.529  67.538  1.00  0.00    -0.004 OA 
HETATM   34  H   UNL     1      -4.232   5.431  67.829  1.00  0.00     0.000 HD 
ENDBRANCH  20  32
ENDBRANCH  13  18
ENDBRANCH  10  11
ENDBRANCH   7  10
ENDBRANCH   3   4
ENDBRANCH   2   3
TORSDOF 6
ENDMDL
MODEL      177
REMARK 921   NORMALIZED FREE ENERGY PREDICTED BY IDOCK:   -4.63 KCAL/MOL
REMARK 922        TOTAL FREE ENERGY PREDICTED BY IDOCK:   -7.39 KCAL/MOL
REMARK 923 INTER-LIGAND FREE ENERGY PREDICTED BY IDOCK:   -7.43 KCAL/MOL
REMARK 924 INTRA-LIGAND FREE ENERGY PREDICTED BY IDOCK:    0.04 KCAL/MOL
REMARK 927      BINDING AFFINITY PREDICTED BY RF-SCORE:    0.00 PKD
ROOT
HETATM    1  C   UNL     1      -7.202  13.069  67.474  1.00  0.00    -0.154 C  
HETATM    2  C   UNL     1      -8.516  13.739  67.843  1.00  0.00    -0.176 C  
ENDROOT
BRANCH   2   3
HETATM    3  O   UNL     1      -9.603  12.852  67.553  1.00  0.00    -0.191 OA 
BRANCH   3   4
HETATM    4  C   UNL     1      -9.241  11.647  67.007  1.00  0.00    -0.183 A  
HETATM    5  C   UNL     1     -10.039  11.180  65.964  1.00  0.00    -0.292 A  
HETATM    6  C   UNL     1      -9.860   9.889  65.450  1.00  0.00    -0.384 A  
HETATM    7  C   UNL     1      -8.873   9.040  65.979  1.00  0.00    -0.208 A  
HETATM    8  C   UNL     1      -7.992   9.570  66.934  1.00  0.00    -0.109 A  
HETATM    9  C   UNL     1      -8.170  10.866  67.440  1.00  0.00    -0.117 A  
BRANCH   7  10
HETATM   10  C   UNL     1      -8.898   7.548  65.690  1.00  0.00    -0.072 C  
BRANCH  10  11
HETATM   11  C   UNL     1      -9.267   6.575  66.787  1.00  0.00    -0.163 A  
HETATM   12  C   UNL     1      -9.976   7.049  67.899  1.00  0.00    -0.183 A  
HETATM   13  C   UNL     1     -10.354   6.211  68.980  1.00  0.00    -0.263 A  
HETATM   14 CL   UNL     1      -7.955   4.523  65.539  1.00  0.00    -0.094 Cl 
HETATM   15  C   UNL     1     -10.208   4.833  68.824  1.00  0.00    -0.069 A  
HETATM   16  C   UNL     1      -9.514   4.337  67.715  1.00  0.00    -0.215 A  
HETATM   17  C   UNL     1      -8.990   5.206  66.745  1.00  0.00    -0.113 A  
BRANCH  13  18
HETATM   18  C   UNL     1     -10.591   6.859  70.332  1.00  0.00    -0.219 C  
HETATM   19  C   UNL     1     -12.650   6.764  71.326  1.00  0.00    -0.276 C  
HETATM   20  C   UNL     1     -11.966   8.080  71.621  1.00  0.00    -0.298 C  
HETATM   21  O   UNL     1     -11.565   5.929  70.921  1.00  0.00    -0.172 OA 
HETATM   22  H   UNL     1      -8.707   5.537  72.727  1.00  0.00     0.000 HD 
HETATM   23  O   UNL     1     -11.216   8.196  70.377  1.00  0.00    -0.264 OA 
HETATM   24  C   UNL     1     -10.927   8.138  72.790  1.00  0.00    -0.330 C  
HETATM   25  O   UNL     1      -9.440   5.578  72.123  1.00  0.00    -0.149 OA 
HETATM   26  C   UNL     1      -9.470   7.981  72.283  1.00  0.00    -0.209 C  
HETATM   27  O   UNL     1     -11.269   7.198  73.808  1.00  0.00    -0.511 OA 
HETATM   28  H   UNL     1      -8.125   9.084  71.334  1.00  0.00     0.000 HD 
HETATM   29  H   UNL     1     -10.639   7.233  74.517  1.00  0.00     0.000 HD 
HETATM   30  O   UNL     1      -9.017   9.180  71.644  1.00  0.00    -0.336 OA 
HETATM   31  C   UNL     1      -9.383   6.792  71.328  1.00  0.00    -0.165 C  
BRANCH  20  32
HETATM   32  C   UNL     1     -13.081   9.094  71.964  1.00  0.00    -0.429 C  
HETATM   33  O   UNL     1     -13.687   8.871  73.240  1.00  0.00    -1.085 OA 
HETATM   34  H   UNL     1     -14.372   9.494  73.450  1.00  0.00     0.000 HD 
ENDBRANCH  20  32
ENDBRANCH  13  18
ENDBRANCH  10  11
ENDBRANCH   7  10
ENDBRANCH   3   4
ENDBRANCH   2   3
TORSDOF 6
ENDMDL
MODEL      178
REMARK 921   NORMALIZED FREE ENERGY PREDICTED BY IDOCK:   -4.62 KCAL/MOL
REMARK 922        TOTAL FREE ENERGY PREDICTED BY IDOCK:   -7.38 KCAL/MOL
REMARK 923 INTER-LIGAND FREE ENERGY PREDICTED BY IDOCK:   -6.48 KCAL/MOL
REMARK 924 INTRA-LIGAND FREE ENERGY PREDICTED BY IDOCK:   -0.89 KCAL/MOL
REMARK 927      BINDING AFFINITY PREDICTED BY RF-SCORE:    0.00 PKD
ROOT
HETATM    1  C   UNL     1     -12.918   6.230  71.771  1.00  0.00     0.271 C  
HETATM    2  C   UNL     1     -12.113   7.466  72.144  1.00  0.00    -0.252 C  
ENDROOT
BRANCH   2   3
HETATM    3  O   UNL     1     -12.378   8.511  71.199  1.00  0.00    -0.286 OA 
BRANCH   3   4
HETATM    4  C   UNL     1     -11.308   8.878  70.424  1.00  0.00    -0.202 A  
HETATM    5  C   UNL     1     -11.186  10.240  70.150  1.00  0.00    -0.387 A  
HETATM    6  C   UNL     1     -10.231  10.702  69.234  1.00  0.00    -0.235 A  
HETATM    7  C   UNL     1      -9.381   9.799  68.572  1.00  0.00    -0.142 A  
HETATM    8  C   UNL     1      -9.426   8.451  68.956  1.00  0.00    -0.151 A  
HETATM    9  C   UNL     1     -10.377   7.994  69.879  1.00  0.00    -0.221 A  
BRANCH   7  10
HETATM   10  C   UNL     1      -8.603  10.231  67.339  1.00  0.00    -0.125 C  
BRANCH  10  11
HETATM   11  C   UNL     1      -7.779  11.498  67.376  1.00  0.00    -0.143 A  
HETATM   12  C   UNL     1      -8.432  12.723  67.571  1.00  0.00    -0.181 A  
HETATM   13  C   UNL     1      -7.741  13.961  67.607  1.00  0.00    -0.193 A  
HETATM   14 CL   UNL     1      -5.473  10.126  66.838  1.00  0.00    -0.044 Cl 
HETATM   15  C   UNL     1      -6.348  13.934  67.673  1.00  0.00    -0.140 A  
HETATM   16  C   UNL     1      -5.676  12.720  67.493  1.00  0.00    -0.116 A  
HETATM   17  C   UNL     1      -6.385  11.528  67.277  1.00  0.00    -0.107 A  
BRANCH  13  18
HETATM   18  C   UNL     1      -8.517  15.219  67.259  1.00  0.00    -0.193 C  
HETATM   19  C   UNL     1     -10.801  15.179  67.122  1.00  0.00    -0.320 C  
HETATM   20  C   UNL     1     -10.212  16.128  66.101  1.00  0.00    -0.336 C  
HETATM   21  O   UNL     1      -9.735  15.026  68.060  1.00  0.00    -0.210 OA 
HETATM   22  H   UNL     1      -8.091  17.636  69.497  1.00  0.00     0.000 HD 
HETATM   23  O   UNL     1      -8.963  15.414  65.866  1.00  0.00    -0.278 OA 
HETATM   24  C   UNL     1      -9.834  17.576  66.555  1.00  0.00    -0.310 C  
HETATM   25  O   UNL     1      -8.453  16.828  69.151  1.00  0.00    -0.203 OA 
HETATM   26  C   UNL     1      -8.331  17.702  66.910  1.00  0.00    -0.236 C  
HETATM   27  O   UNL     1     -10.695  18.009  67.607  1.00  0.00    -0.415 OA 
HETATM   28  H   UNL     1      -6.602  17.796  65.945  1.00  0.00     0.000 HD 
HETATM   29  H   UNL     1     -10.466  18.888  67.883  1.00  0.00     0.000 HD 
HETATM   30  O   UNL     1      -7.523  17.719  65.727  1.00  0.00    -0.526 OA 
HETATM   31  C   UNL     1      -7.920  16.552  67.828  1.00  0.00    -0.160 C  
BRANCH  20  32
HETATM   32  C   UNL     1     -11.260  16.271  64.973  1.00  0.00    -0.176 C  
HETATM   33  O   UNL     1     -11.518  17.628  64.600  1.00  0.00    -0.466 OA 
HETATM   34  H   UNL     1     -12.162  17.716  63.908  1.00  0.00     0.000 HD 
ENDBRANCH  20  32
ENDBRANCH  13  18
ENDBRANCH  10  11
ENDBRANCH   7  10
ENDBRANCH   3   4
ENDBRANCH   2   3
TORSDOF 6
ENDMDL
MODEL      179
REMARK 921   NORMALIZED FREE ENERGY PREDICTED BY IDOCK:   -4.56 KCAL/MOL
REMARK 922        TOTAL FREE ENERGY PREDICTED BY IDOCK:   -7.29 KCAL/MOL
REMARK 923 INTER-LIGAND FREE ENERGY PREDICTED BY IDOCK:   -6.09 KCAL/MOL
REMARK 924 INTRA-LIGAND FREE ENERGY PREDICTED BY IDOCK:   -1.20 KCAL/MOL
REMARK 927      BINDING AFFINITY PREDICTED BY RF-SCORE:    0.00 PKD
ROOT
HETATM    1  C   UNL     1      -6.552   9.010  64.029  1.00  0.00    -0.087 C  
HETATM    2  C   UNL     1      -8.022   9.242  63.715  1.00  0.00    -0.142 C  
ENDROOT
BRANCH   2   3
HETATM    3  O   UNL     1      -8.448  10.476  64.305  1.00  0.00    -0.176 OA 
BRANCH   3   4
HETATM    4  C   UNL     1      -8.805  10.395  65.627  1.00  0.00    -0.173 A  
HETATM    5  C   UNL     1      -9.878   9.555  65.923  1.00  0.00    -0.360 A  
HETATM    6  C   UNL     1     -10.430   9.528  67.211  1.00  0.00    -0.328 A  
HETATM    7  C   UNL     1      -9.913  10.351  68.227  1.00  0.00    -0.168 A  
HETATM    8  C   UNL     1      -8.752  11.089  67.950  1.00  0.00    -0.133 A  
HETATM    9  C   UNL     1      -8.199  11.106  66.662  1.00  0.00    -0.158 A  
BRANCH   7  10
HETATM   10  C   UNL     1     -10.705  10.597  69.501  1.00  0.00    -0.290 C  
BRANCH  10  11
HETATM   11  C   UNL     1     -10.946   9.460  70.468  1.00  0.00    -0.332 A  
HETATM   12  C   UNL     1     -10.046   8.386  70.485  1.00  0.00    -0.211 A  
HETATM   13  C   UNL     1     -10.201   7.271  71.350  1.00  0.00    -0.199 A  
HETATM   14 CL   UNL     1     -13.280  10.581  71.351  1.00  0.00    -0.463 Cl 
HETATM   15  C   UNL     1     -11.151   7.356  72.367  1.00  0.00    -0.331 A  
HETATM   16  C   UNL     1     -12.052   8.427  72.376  1.00  0.00    -0.443 A  
HETATM   17  C   UNL     1     -11.991   9.429  71.395  1.00  0.00    -0.371 A  
BRANCH  13  18
HETATM   18  C   UNL     1      -9.562   5.957  70.937  1.00  0.00    -0.170 C  
HETATM   19  C   UNL     1      -8.520   5.753  68.910  1.00  0.00    -0.104 C  
HETATM   20  C   UNL     1      -9.213   4.465  69.296  1.00  0.00    -0.139 C  
HETATM   21  O   UNL     1      -8.412   6.438  70.158  1.00  0.00    -0.131 OA 
HETATM   22  H   UNL     1      -7.102   5.043  72.973  1.00  0.00     0.000 HD 
HETATM   23  O   UNL     1     -10.316   5.052  70.048  1.00  0.00    -0.275 OA 
HETATM   24  C   UNL     1      -8.476   3.477  70.261  1.00  0.00    -0.056 C  
HETATM   25  O   UNL     1      -7.507   5.536  72.268  1.00  0.00    -0.092 OA 
HETATM   26  C   UNL     1      -8.920   3.660  71.734  1.00  0.00    -0.106 C  
HETATM   27  O   UNL     1      -7.063   3.573  70.086  1.00  0.00    -0.040 OA 
HETATM   28  H   UNL     1     -10.496   3.219  72.853  1.00  0.00     0.000 HD 
HETATM   29  H   UNL     1      -6.616   2.974  70.672  1.00  0.00     0.000 HD 
HETATM   30  O   UNL     1     -10.224   3.107  71.950  1.00  0.00    -0.127 OA 
HETATM   31  C   UNL     1      -8.895   5.144  72.099  1.00  0.00    -0.129 C  
BRANCH  20  32
HETATM   32  C   UNL     1      -9.480   3.693  67.984  1.00  0.00    -0.161 C  
HETATM   33  O   UNL     1     -10.095   4.488  66.966  1.00  0.00    -0.199 OA 
HETATM   34  H   UNL     1     -10.259   4.014  66.160  1.00  0.00     0.000 HD 
ENDBRANCH  20  32
ENDBRANCH  13  18
ENDBRANCH  10  11
ENDBRANCH   7  10
ENDBRANCH   3   4
ENDBRANCH   2   3
TORSDOF 6
ENDMDL
MODEL      180
REMARK 921   NORMALIZED FREE ENERGY PREDICTED BY IDOCK:   -4.53 KCAL/MOL
REMARK 922        TOTAL FREE ENERGY PREDICTED BY IDOCK:   -7.25 KCAL/MOL
REMARK 923 INTER-LIGAND FREE ENERGY PREDICTED BY IDOCK:   -6.75 KCAL/MOL
REMARK 924 INTRA-LIGAND FREE ENERGY PREDICTED BY IDOCK:   -0.50 KCAL/MOL
REMARK 927      BINDING AFFINITY PREDICTED BY RF-SCORE:    0.00 PKD
ROOT
HETATM    1  C   UNL     1     -12.043  14.272  68.088  1.00  0.00    -0.275 C  
HETATM    2  C   UNL     1     -11.312  13.958  69.384  1.00  0.00    -0.258 C  
ENDROOT
BRANCH   2   3
HETATM    3  O   UNL     1     -12.253  13.511  70.368  1.00  0.00    -0.339 OA 
BRANCH   3   4
HETATM    4  C   UNL     1     -12.310  12.152  70.542  1.00  0.00    -0.272 A  
HETATM    5  C   UNL     1     -13.154  11.696  71.554  1.00  0.00    -0.405 A  
HETATM    6  C   UNL     1     -13.159  10.346  71.927  1.00  0.00    -0.563 A  
HETATM    7  C   UNL     1     -12.309   9.425  71.289  1.00  0.00    -0.422 A  
HETATM    8  C   UNL     1     -11.565   9.872  70.186  1.00  0.00    -0.281 A  
HETATM    9  C   UNL     1     -11.569  11.223  69.812  1.00  0.00    -0.408 A  
BRANCH   7  10
HETATM   10  C   UNL     1     -12.044   8.061  71.905  1.00  0.00    -0.359 C  
BRANCH  10  11
HETATM   11  C   UNL     1     -10.773   7.316  71.562  1.00  0.00    -0.241 A  
HETATM   12  C   UNL     1     -10.369   7.251  70.222  1.00  0.00    -0.219 A  
HETATM   13  C   UNL     1      -9.199   6.564  69.807  1.00  0.00    -0.145 A  
HETATM   14 CL   UNL     1     -10.406   6.554  74.164  1.00  0.00    -0.373 Cl 
HETATM   15  C   UNL     1      -8.308   6.133  70.790  1.00  0.00    -0.126 A  
HETATM   16  C   UNL     1      -8.686   6.200  72.135  1.00  0.00    -0.131 A  
HETATM   17  C   UNL     1      -9.935   6.722  72.509  1.00  0.00    -0.169 A  
BRANCH  13  18
HETATM   18  C   UNL     1      -9.135   6.068  68.374  1.00  0.00    -0.112 C  
HETATM   19  C   UNL     1      -9.094   3.826  67.916  1.00  0.00    -0.152 C  
HETATM   20  C   UNL     1      -8.250   4.598  66.926  1.00  0.00    -0.106 C  
HETATM   21  O   UNL     1      -9.936   4.838  68.468  1.00  0.00    -0.148 OA 
HETATM   22  H   UNL     1     -11.776   6.998  66.587  1.00  0.00     0.000 HD 
HETATM   23  O   UNL     1      -7.827   5.669  67.820  1.00  0.00    -0.096 OA 
HETATM   24  C   UNL     1      -8.958   5.273  65.705  1.00  0.00    -0.158 C  
HETATM   25  O   UNL     1     -11.298   6.473  67.219  1.00  0.00    -0.316 OA 
HETATM   26  C   UNL     1      -9.264   6.770  65.963  1.00  0.00    -0.030 C  
HETATM   27  O   UNL     1     -10.111   4.525  65.321  1.00  0.00    -0.261 OA 
HETATM   28  H   UNL     1      -8.260   8.478  66.037  1.00  0.00     0.000 HD 
HETATM   29  H   UNL     1     -10.541   4.935  64.580  1.00  0.00     0.000 HD 
HETATM   30  O   UNL     1      -8.072   7.560  65.878  1.00  0.00    -0.112 OA 
HETATM   31  C   UNL     1      -9.924   6.932  67.332  1.00  0.00    -0.166 C  
BRANCH  20  32
HETATM   32  C   UNL     1      -7.219   3.601  66.350  1.00  0.00    -0.064 C  
HETATM   33  O   UNL     1      -6.739   3.959  65.050  1.00  0.00    -0.046 OA 
HETATM   34  H   UNL     1      -6.105   3.346  64.697  1.00  0.00     0.000 HD 
ENDBRANCH  20  32
ENDBRANCH  13  18
ENDBRANCH  10  11
ENDBRANCH   7  10
ENDBRANCH   3   4
ENDBRANCH   2   3
TORSDOF 6
ENDMDL
MODEL      181
REMARK 921   NORMALIZED FREE ENERGY PREDICTED BY IDOCK:   -4.46 KCAL/MOL
REMARK 922        TOTAL FREE ENERGY PREDICTED BY IDOCK:   -7.16 KCAL/MOL
REMARK 923 INTER-LIGAND FREE ENERGY PREDICTED BY IDOCK:   -6.54 KCAL/MOL
REMARK 924 INTRA-LIGAND FREE ENERGY PREDICTED BY IDOCK:   -0.62 KCAL/MOL
REMARK 927      BINDING AFFINITY PREDICTED BY RF-SCORE:    0.00 PKD
ROOT
HETATM    1  C   UNL     1      -8.152   6.283  64.562  1.00  0.00    -0.102 C  
HETATM    2  C   UNL     1      -7.702   6.705  63.172  1.00  0.00    -0.102 C  
ENDROOT
BRANCH   2   3
HETATM    3  O   UNL     1      -7.182   8.040  63.222  1.00  0.00    -0.084 OA 
BRANCH   3   4
HETATM    4  C   UNL     1      -8.010   8.964  63.806  1.00  0.00    -0.154 A  
HETATM    5  C   UNL     1      -9.065   9.427  63.020  1.00  0.00    -0.083 A  
HETATM    6  C   UNL     1      -9.867  10.490  63.455  1.00  0.00    -0.339 A  
HETATM    7  C   UNL     1      -9.620  11.112  64.692  1.00  0.00    -0.289 A  
HETATM    8  C   UNL     1      -8.643  10.550  65.527  1.00  0.00    -0.187 A  
HETATM    9  C   UNL     1      -7.848   9.480  65.091  1.00  0.00    -0.113 A  
BRANCH   7  10
HETATM   10  C   UNL     1     -10.233  12.465  65.014  1.00  0.00    -0.306 C  
BRANCH  10  11
HETATM   11  C   UNL     1     -10.643  12.786  66.434  1.00  0.00    -0.273 A  
HETATM   12  C   UNL     1     -10.507  11.795  67.416  1.00  0.00    -0.238 A  
HETATM   13  C   UNL     1     -10.877  12.004  68.770  1.00  0.00    -0.267 A  
HETATM   14 CL   UNL     1     -11.510  15.281  65.720  1.00  0.00    -0.181 Cl 
HETATM   15  C   UNL     1     -11.175  13.304  69.176  1.00  0.00    -0.305 A  
HETATM   16  C   UNL     1     -11.303  14.311  68.214  1.00  0.00    -0.314 A  
HETATM   17  C   UNL     1     -11.107  14.036  66.851  1.00  0.00    -0.304 A  
BRANCH  13  18
HETATM   18  C   UNL     1     -11.229  10.786  69.606  1.00  0.00    -0.291 C  
HETATM   19  C   UNL     1     -13.407  10.327  70.138  1.00  0.00     0.454 C  
HETATM   20  C   UNL     1     -12.479   9.939  71.268  1.00  0.00    -0.381 C  
HETATM   21  O   UNL     1     -12.524  10.409  69.020  1.00  0.00    -0.093 OA 
HETATM   22  H   UNL     1     -10.355   7.938  68.139  1.00  0.00     0.000 HD 
HETATM   23  O   UNL     1     -11.466  10.965  71.052  1.00  0.00    -0.115 OA 
HETATM   24  C   UNL     1     -11.751   8.555  71.199  1.00  0.00    -0.281 C  
HETATM   25  O   UNL     1     -10.895   8.705  68.291  1.00  0.00    -0.098 OA 
HETATM   26  C   UNL     1     -10.315   8.679  70.629  1.00  0.00    -0.202 C  
HETATM   27  O   UNL     1     -12.552   7.607  70.495  1.00  0.00    -0.495 OA 
HETATM   28  H   UNL     1      -8.546   9.323  71.248  1.00  0.00     0.000 HD 
HETATM   29  H   UNL     1     -12.111   6.767  70.453  1.00  0.00     0.000 HD 
HETATM   30  O   UNL     1      -9.426   9.247  71.597  1.00  0.00    -0.294 OA 
HETATM   31  C   UNL     1     -10.338   9.522  69.355  1.00  0.00    -0.214 C  
BRANCH  20  32
HETATM   32  C   UNL     1     -13.328   9.933  72.559  1.00  0.00    -0.083 C  
HETATM   33  O   UNL     1     -13.669   8.621  73.016  1.00  0.00    -0.809 OA 
HETATM   34  H   UNL     1     -14.192   8.618  73.809  1.00  0.00     0.000 HD 
ENDBRANCH  20  32
ENDBRANCH  13  18
ENDBRANCH  10  11
ENDBRANCH   7  10
ENDBRANCH   3   4
ENDBRANCH   2   3
TORSDOF 6
ENDMDL
MODEL      182
REMARK 921   NORMALIZED FREE ENERGY PREDICTED BY IDOCK:   -4.45 KCAL/MOL
REMARK 922        TOTAL FREE ENERGY PREDICTED BY IDOCK:   -7.15 KCAL/MOL
REMARK 923 INTER-LIGAND FREE ENERGY PREDICTED BY IDOCK:   -6.11 KCAL/MOL
REMARK 924 INTRA-LIGAND FREE ENERGY PREDICTED BY IDOCK:   -1.04 KCAL/MOL
REMARK 927      BINDING AFFINITY PREDICTED BY RF-SCORE:    0.00 PKD
ROOT
HETATM    1  C   UNL     1     -10.555   6.196  73.961  1.00  0.00    -0.191 C  
HETATM    2  C   UNL     1      -9.123   6.626  74.235  1.00  0.00    -0.190 C  
ENDROOT
BRANCH   2   3
HETATM    3  O   UNL     1      -9.008   8.044  74.064  1.00  0.00    -0.249 OA 
BRANCH   3   4
HETATM    4  C   UNL     1      -8.622   8.449  72.812  1.00  0.00    -0.170 A  
HETATM    5  C   UNL     1      -7.259   8.365  72.532  1.00  0.00    -0.114 A  
HETATM    6  C   UNL     1      -6.737   8.907  71.350  1.00  0.00    -0.085 A  
HETATM    7  C   UNL     1      -7.580   9.549  70.426  1.00  0.00    -0.169 A  
HETATM    8  C   UNL     1      -8.963   9.508  70.657  1.00  0.00    -0.226 A  
HETATM    9  C   UNL     1      -9.481   8.957  71.838  1.00  0.00    -0.301 A  
BRANCH   7  10
HETATM   10  C   UNL     1      -7.000  10.438  69.337  1.00  0.00    -0.091 C  
BRANCH  10  11
HETATM   11  C   UNL     1      -7.923  11.112  68.347  1.00  0.00    -0.137 A  
HETATM   12  C   UNL     1      -8.051  12.507  68.385  1.00  0.00    -0.136 A  
HETATM   13  C   UNL     1      -8.903  13.222  67.503  1.00  0.00    -0.206 A  
HETATM   14 CL   UNL     1      -8.720   8.708  67.310  1.00  0.00    -0.129 Cl 
HETATM   15  C   UNL     1      -9.455  12.534  66.423  1.00  0.00    -0.233 A  
HETATM   16  C   UNL     1      -9.328  11.143  66.358  1.00  0.00    -0.207 A  
HETATM   17  C   UNL     1      -8.629  10.435  67.349  1.00  0.00    -0.125 A  
BRANCH  13  18
HETATM   18  C   UNL     1      -9.408  14.582  67.950  1.00  0.00    -0.201 C  
HETATM   19  C   UNL     1      -8.527  16.501  67.068  1.00  0.00    -0.197 C  
HETATM   20  C   UNL     1      -8.889  16.689  68.525  1.00  0.00    -0.235 C  
HETATM   21  O   UNL     1      -9.287  15.349  66.702  1.00  0.00    -0.227 OA 
HETATM   22  H   UNL     1     -12.627  15.030  67.269  1.00  0.00     0.000 HD 
HETATM   23  O   UNL     1      -8.639  15.323  68.968  1.00  0.00    -0.194 OA 
HETATM   24  C   UNL     1     -10.373  17.025  68.890  1.00  0.00    -0.337 C  
HETATM   25  O   UNL     1     -11.698  14.987  67.075  1.00  0.00    -0.309 OA 
HETATM   26  C   UNL     1     -11.174  15.762  69.294  1.00  0.00    -0.324 C  
HETATM   27  O   UNL     1     -10.989  17.766  67.837  1.00  0.00    -0.308 OA 
HETATM   28  H   UNL     1     -11.303  14.548  70.856  1.00  0.00     0.000 HD 
HETATM   29  H   UNL     1     -11.890  17.970  68.059  1.00  0.00     0.000 HD 
HETATM   30  O   UNL     1     -10.811  15.322  70.608  1.00  0.00    -0.300 OA 
HETATM   31  C   UNL     1     -10.940  14.654  68.269  1.00  0.00    -0.252 C  
BRANCH  20  32
HETATM   32  C   UNL     1      -8.023  17.857  69.051  1.00  0.00    -0.062 C  
HETATM   33  O   UNL     1      -6.711  17.899  68.482  1.00  0.00    -0.210 OA 
HETATM   34  H   UNL     1      -6.179  18.616  68.806  1.00  0.00     0.000 HD 
ENDBRANCH  20  32
ENDBRANCH  13  18
ENDBRANCH  10  11
ENDBRANCH   7  10
ENDBRANCH   3   4
ENDBRANCH   2   3
TORSDOF 6
ENDMDL
MODEL      183
REMARK 921   NORMALIZED FREE ENERGY PREDICTED BY IDOCK:   -4.45 KCAL/MOL
REMARK 922        TOTAL FREE ENERGY PREDICTED BY IDOCK:   -7.15 KCAL/MOL
REMARK 923 INTER-LIGAND FREE ENERGY PREDICTED BY IDOCK:   -5.89 KCAL/MOL
REMARK 924 INTRA-LIGAND FREE ENERGY PREDICTED BY IDOCK:   -1.25 KCAL/MOL
REMARK 927      BINDING AFFINITY PREDICTED BY RF-SCORE:    0.00 PKD
ROOT
HETATM    1  C   UNL     1      -7.309  19.640  69.005  1.00  0.00    -0.363 C  
HETATM    2  C   UNL     1      -5.947  19.103  68.596  1.00  0.00    -0.216 C  
ENDROOT
BRANCH   2   3
HETATM    3  O   UNL     1      -5.671  17.898  69.321  1.00  0.00    -0.195 OA 
BRANCH   3   4
HETATM    4  C   UNL     1      -6.390  16.801  68.920  1.00  0.00    -0.172 A  
HETATM    5  C   UNL     1      -6.407  16.543  67.550  1.00  0.00    -0.187 A  
HETATM    6  C   UNL     1      -7.243  15.552  67.019  1.00  0.00    -0.124 A  
HETATM    7  C   UNL     1      -8.085  14.802  67.859  1.00  0.00    -0.146 A  
HETATM    8  C   UNL     1      -7.959  14.981  69.245  1.00  0.00    -0.190 A  
HETATM    9  C   UNL     1      -7.114  15.968  69.773  1.00  0.00     0.005 A  
BRANCH   7  10
HETATM   10  C   UNL     1      -9.234  13.992  67.281  1.00  0.00    -0.231 C  
BRANCH  10  11
HETATM   11  C   UNL     1      -9.855  12.881  68.097  1.00  0.00    -0.227 A  
HETATM   12  C   UNL     1      -9.224  11.630  68.125  1.00  0.00    -0.184 A  
HETATM   13  C   UNL     1      -9.742  10.527  68.853  1.00  0.00    -0.206 A  
HETATM   14 CL   UNL     1     -11.991  14.449  68.780  1.00  0.00    -0.351 Cl 
HETATM   15  C   UNL     1     -10.788  10.763  69.744  1.00  0.00    -0.284 A  
HETATM   16  C   UNL     1     -11.425  12.009  69.741  1.00  0.00    -0.284 A  
HETATM   17  C   UNL     1     -11.005  13.032  68.876  1.00  0.00    -0.230 A  
BRANCH  13  18
HETATM   18  C   UNL     1      -9.353   9.131  68.400  1.00  0.00    -0.135 C  
HETATM   19  C   UNL     1     -10.373   8.163  66.595  1.00  0.00    -0.213 C  
HETATM   20  C   UNL     1     -10.047   7.131  67.652  1.00  0.00    -0.180 C  
HETATM   21  O   UNL     1      -9.519   9.252  66.945  1.00  0.00    -0.147 OA 
HETATM   22  H   UNL     1      -6.171   8.935  67.471  1.00  0.00     0.000 HD 
HETATM   23  O   UNL     1     -10.193   7.992  68.819  1.00  0.00    -0.198 OA 
HETATM   24  C   UNL     1      -8.600   6.538  67.698  1.00  0.00    -0.116 C  
HETATM   25  O   UNL     1      -7.092   9.151  67.373  1.00  0.00    -0.078 OA 
HETATM   26  C   UNL     1      -7.705   7.262  68.736  1.00  0.00    -0.119 C  
HETATM   27  O   UNL     1      -8.030   6.513  66.389  1.00  0.00    -0.105 OA 
HETATM   28  H   UNL     1      -7.501   7.317  70.706  1.00  0.00     0.000 HD 
HETATM   29  H   UNL     1      -7.152   6.153  66.417  1.00  0.00     0.000 HD 
HETATM   30  O   UNL     1      -8.050   6.873  70.070  1.00  0.00    -0.120 OA 
HETATM   31  C   UNL     1      -7.836   8.774  68.562  1.00  0.00    -0.104 C  
BRANCH  20  32
HETATM   32  C   UNL     1     -11.010   5.944  67.425  1.00  0.00    -0.157 C  
HETATM   33  O   UNL     1     -11.408   5.781  66.061  1.00  0.00    -0.639 OA 
HETATM   34  H   UNL     1     -12.001   5.051  65.922  1.00  0.00     0.000 HD 
ENDBRANCH  20  32
ENDBRANCH  13  18
ENDBRANCH  10  11
ENDBRANCH   7  10
ENDBRANCH   3   4
ENDBRANCH   2   3
TORSDOF 6
ENDMDL
MODEL      184
REMARK 921   NORMALIZED FREE ENERGY PREDICTED BY IDOCK:   -4.45 KCAL/MOL
REMARK 922        TOTAL FREE ENERGY PREDICTED BY IDOCK:   -7.14 KCAL/MOL
REMARK 923 INTER-LIGAND FREE ENERGY PREDICTED BY IDOCK:   -5.57 KCAL/MOL
REMARK 924 INTRA-LIGAND FREE ENERGY PREDICTED BY IDOCK:   -1.58 KCAL/MOL
REMARK 927      BINDING AFFINITY PREDICTED BY RF-SCORE:    0.00 PKD
ROOT
HETATM    1  C   UNL     1     -12.605  11.748  63.380  1.00  0.00    -0.458 C  
HETATM    2  C   UNL     1     -12.086  13.169  63.535  1.00  0.00    -0.514 C  
ENDROOT
BRANCH   2   3
HETATM    3  O   UNL     1     -12.568  13.722  64.766  1.00  0.00    -0.594 OA 
BRANCH   3   4
HETATM    4  C   UNL     1     -11.657  13.738  65.791  1.00  0.00    -0.331 A  
HETATM    5  C   UNL     1     -10.508  14.500  65.581  1.00  0.00    -0.351 A  
HETATM    6  C   UNL     1      -9.442  14.451  66.489  1.00  0.00    -0.309 A  
HETATM    7  C   UNL     1      -9.511  13.629  67.628  1.00  0.00    -0.221 A  
HETATM    8  C   UNL     1     -10.722  12.974  67.894  1.00  0.00    -0.249 A  
HETATM    9  C   UNL     1     -11.790  13.032  66.986  1.00  0.00    -0.437 A  
BRANCH   7  10
HETATM   10  C   UNL     1      -8.256  13.293  68.417  1.00  0.00    -0.134 C  
BRANCH  10  11
HETATM   11  C   UNL     1      -7.336  12.194  67.934  1.00  0.00    -0.108 A  
HETATM   12  C   UNL     1      -7.876  10.927  67.673  1.00  0.00    -0.113 A  
HETATM   13  C   UNL     1      -7.087   9.835  67.229  1.00  0.00    -0.085 A  
HETATM   14 CL   UNL     1      -5.139  13.812  68.139  1.00  0.00    -0.105 Cl 
HETATM   15  C   UNL     1      -5.777  10.092  66.828  1.00  0.00    -0.050 A  
HETATM   16  C   UNL     1      -5.221  11.354  67.067  1.00  0.00    -0.088 A  
HETATM   17  C   UNL     1      -5.974  12.370  67.677  1.00  0.00    -0.128 A  
BRANCH  13  18
HETATM   18  C   UNL     1      -7.594   8.431  67.508  1.00  0.00    -0.098 C  
HETATM   19  C   UNL     1      -7.387   6.782  65.936  1.00  0.00    -0.075 C  
HETATM   20  C   UNL     1      -8.671   6.625  66.720  1.00  0.00    -0.121 C  
HETATM   21  O   UNL     1      -6.604   7.626  66.780  1.00  0.00    -0.058 OA 
HETATM   22  H   UNL     1      -6.051   7.007  70.081  1.00  0.00     0.000 HD 
HETATM   23  O   UNL     1      -8.916   8.039  66.981  1.00  0.00    -0.131 OA 
HETATM   24  C   UNL     1      -8.618   5.906  68.108  1.00  0.00    -0.113 C  
HETATM   25  O   UNL     1      -6.147   7.302  69.182  1.00  0.00    -0.029 OA 
HETATM   26  C   UNL     1      -8.522   6.911  69.283  1.00  0.00    -0.129 C  
HETATM   27  O   UNL     1      -7.578   4.928  68.122  1.00  0.00    -0.080 OA 
HETATM   28  H   UNL     1      -9.723   8.168  70.235  1.00  0.00     0.000 HD 
HETATM   29  H   UNL     1      -7.546   4.491  68.965  1.00  0.00     0.000 HD 
HETATM   30  O   UNL     1      -9.782   7.552  69.515  1.00  0.00    -0.163 OA 
HETATM   31  C   UNL     1      -7.436   7.945  68.989  1.00  0.00    -0.097 C  
BRANCH  20  32
HETATM   32  C   UNL     1      -9.638   5.812  65.831  1.00  0.00     0.008 C  
HETATM   33  O   UNL     1      -9.933   4.510  66.346  1.00  0.00    -0.207 OA 
HETATM   34  H   UNL     1     -10.528   4.010  65.799  1.00  0.00     0.000 HD 
ENDBRANCH  20  32
ENDBRANCH  13  18
ENDBRANCH  10  11
ENDBRANCH   7  10
ENDBRANCH   3   4
ENDBRANCH   2   3
TORSDOF 6
ENDMDL
MODEL      185
REMARK 921   NORMALIZED FREE ENERGY PREDICTED BY IDOCK:   -4.43 KCAL/MOL
REMARK 922        TOTAL FREE ENERGY PREDICTED BY IDOCK:   -7.12 KCAL/MOL
REMARK 923 INTER-LIGAND FREE ENERGY PREDICTED BY IDOCK:   -5.64 KCAL/MOL
REMARK 924 INTRA-LIGAND FREE ENERGY PREDICTED BY IDOCK:   -1.48 KCAL/MOL
REMARK 927      BINDING AFFINITY PREDICTED BY RF-SCORE:    0.00 PKD
ROOT
HETATM    1  C   UNL     1      -6.270  10.922  62.361  1.00  0.00    -0.078 C  
HETATM    2  C   UNL     1      -5.601  10.194  63.516  1.00  0.00    -0.126 C  
ENDROOT
BRANCH   2   3
HETATM    3  O   UNL     1      -6.328  10.447  64.725  1.00  0.00    -0.127 OA 
BRANCH   3   4
HETATM    4  C   UNL     1      -7.072   9.392  65.188  1.00  0.00    -0.100 A  
HETATM    5  C   UNL     1      -6.391   8.450  65.957  1.00  0.00    -0.053 A  
HETATM    6  C   UNL     1      -7.012   7.253  66.337  1.00  0.00    -0.069 A  
HETATM    7  C   UNL     1      -8.334   6.979  65.946  1.00  0.00    -0.141 A  
HETATM    8  C   UNL     1      -9.049   7.992  65.288  1.00  0.00     0.190 A  
HETATM    9  C   UNL     1      -8.425   9.192  64.917  1.00  0.00    -0.191 A  
BRANCH   7  10
HETATM   10  C   UNL     1      -8.892   5.568  66.038  1.00  0.00    -0.147 C  
BRANCH  10  11
HETATM   11  C   UNL     1      -9.110   4.933  67.392  1.00  0.00    -0.124 A  
HETATM   12  C   UNL     1      -9.779   5.665  68.382  1.00  0.00    -0.161 A  
HETATM   13  C   UNL     1     -10.016   5.153  69.685  1.00  0.00    -0.313 A  
HETATM   14 CL   UNL     1      -7.725   2.688  66.667  1.00  0.00    -0.074 Cl 
HETATM   15  C   UNL     1      -9.772   3.800  69.912  1.00  0.00    -0.200 A  
HETATM   16  C   UNL     1      -9.116   3.046  68.933  1.00  0.00    -0.210 A  
HETATM   17  C   UNL     1      -8.728   3.628  67.715  1.00  0.00    -0.106 A  
BRANCH  13  18
HETATM   18  C   UNL     1     -10.215   6.148  70.814  1.00  0.00    -0.198 C  
HETATM   19  C   UNL     1     -12.145   6.148  72.043  1.00  0.00    -0.198 C  
HETATM   20  C   UNL     1     -11.617   7.554  71.862  1.00  0.00    -0.275 C  
HETATM   21  O   UNL     1     -11.000   5.344  71.761  1.00  0.00    -0.213 OA 
HETATM   22  H   UNL     1      -7.963   5.797  73.230  1.00  0.00     0.000 HD 
HETATM   23  O   UNL     1     -11.004   7.368  70.553  1.00  0.00    -0.243 OA 
HETATM   24  C   UNL     1     -10.493   8.062  72.826  1.00  0.00    -0.345 C  
HETATM   25  O   UNL     1      -8.747   5.582  72.737  1.00  0.00    -0.120 OA 
HETATM   26  C   UNL     1      -9.081   7.908  72.207  1.00  0.00    -0.161 C  
HETATM   27  O   UNL     1     -10.615   7.439  74.104  1.00  0.00    -0.516 OA 
HETATM   28  H   UNL     1      -7.984   8.806  70.821  1.00  0.00     0.000 HD 
HETATM   29  H   UNL     1      -9.933   7.748  74.689  1.00  0.00     0.000 HD 
HETATM   30  O   UNL     1      -8.850   8.900  71.200  1.00  0.00    -0.201 OA 
HETATM   31  C   UNL     1      -8.923   6.503  71.627  1.00  0.00    -0.143 C  
BRANCH  20  32
HETATM   32  C   UNL     1     -12.821   8.507  72.038  1.00  0.00    -0.374 C  
HETATM   33  O   UNL     1     -13.054   8.892  73.395  1.00  0.00    -0.618 OA 
HETATM   34  H   UNL     1     -13.795   9.478  73.503  1.00  0.00     0.000 HD 
ENDBRANCH  20  32
ENDBRANCH  13  18
ENDBRANCH  10  11
ENDBRANCH   7  10
ENDBRANCH   3   4
ENDBRANCH   2   3
TORSDOF 6
ENDMDL
MODEL      186
REMARK 921   NORMALIZED FREE ENERGY PREDICTED BY IDOCK:   -4.41 KCAL/MOL
REMARK 922        TOTAL FREE ENERGY PREDICTED BY IDOCK:   -7.10 KCAL/MOL
REMARK 923 INTER-LIGAND FREE ENERGY PREDICTED BY IDOCK:   -5.87 KCAL/MOL
REMARK 924 INTRA-LIGAND FREE ENERGY PREDICTED BY IDOCK:   -1.23 KCAL/MOL
REMARK 927      BINDING AFFINITY PREDICTED BY RF-SCORE:    0.00 PKD
ROOT
HETATM    1  C   UNL     1      -6.713   7.867  63.012  1.00  0.00    -0.080 C  
HETATM    2  C   UNL     1      -7.900   8.632  62.447  1.00  0.00    -0.135 C  
ENDROOT
BRANCH   2   3
HETATM    3  O   UNL     1      -7.793  10.015  62.808  1.00  0.00    -0.127 OA 
BRANCH   3   4
HETATM    4  C   UNL     1      -8.123  10.304  64.107  1.00  0.00    -0.138 A  
HETATM    5  C   UNL     1      -9.472  10.180  64.441  1.00  0.00    -0.368 A  
HETATM    6  C   UNL     1      -9.941  10.611  65.689  1.00  0.00    -0.327 A  
HETATM    7  C   UNL     1      -9.061  11.178  66.626  1.00  0.00    -0.180 A  
HETATM    8  C   UNL     1      -7.690  11.173  66.329  1.00  0.00    -0.097 A  
HETATM    9  C   UNL     1      -7.223  10.734  65.081  1.00  0.00     0.165 A  
BRANCH   7  10
HETATM   10  C   UNL     1      -9.595  11.962  67.814  1.00  0.00    -0.190 C  
BRANCH  10  11
HETATM   11  C   UNL     1     -10.396  11.254  68.883  1.00  0.00    -0.214 A  
HETATM   12  C   UNL     1      -9.904  10.054  69.413  1.00  0.00    -0.240 A  
HETATM   13  C   UNL     1     -10.595   9.316  70.409  1.00  0.00    -0.298 A  
HETATM   14 CL   UNL     1     -12.410  13.100  68.729  1.00  0.00    -0.058 Cl 
HETATM   15  C   UNL     1     -11.684   9.919  71.035  1.00  0.00    -0.466 A  
HETATM   16  C   UNL     1     -12.186  11.124  70.530  1.00  0.00    -0.475 A  
HETATM   17  C   UNL     1     -11.588  11.745  69.422  1.00  0.00    -0.322 A  
BRANCH  13  18
HETATM   18  C   UNL     1     -10.314   7.827  70.513  1.00  0.00    -0.205 C  
HETATM   19  C   UNL     1     -11.978   6.364  71.085  1.00  0.00    -0.210 C  
HETATM   20  C   UNL     1     -10.648   5.922  71.654  1.00  0.00    -0.241 C  
HETATM   21  O   UNL     1     -11.593   7.269  70.050  1.00  0.00    -0.176 OA 
HETATM   22  H   UNL     1      -9.325   6.514  67.628  1.00  0.00     0.000 HD 
HETATM   23  O   UNL     1     -10.066   7.245  71.846  1.00  0.00    -0.178 OA 
HETATM   24  C   UNL     1      -9.669   5.121  70.732  1.00  0.00    -0.190 C  
HETATM   25  O   UNL     1      -9.951   6.853  68.256  1.00  0.00    -0.145 OA 
HETATM   26  C   UNL     1      -8.603   6.037  70.078  1.00  0.00    -0.131 C  
HETATM   27  O   UNL     1     -10.400   4.347  69.782  1.00  0.00    -0.026 OA 
HETATM   28  H   UNL     1      -6.951   6.984  70.628  1.00  0.00     0.000 HD 
HETATM   29  H   UNL     1      -9.806   3.861  69.223  1.00  0.00     0.000 HD 
HETATM   30  O   UNL     1      -7.604   6.423  71.029  1.00  0.00    -0.086 OA 
HETATM   31  C   UNL     1      -9.281   7.267  69.477  1.00  0.00    -0.149 C  
BRANCH  20  32
HETATM   32  C   UNL     1     -10.961   5.017  72.867  1.00  0.00    -0.277 C  
HETATM   33  O   UNL     1     -11.171   5.740  74.083  1.00  0.00    -0.299 OA 
HETATM   34  H   UNL     1     -11.364   5.184  74.828  1.00  0.00     0.000 HD 
ENDBRANCH  20  32
ENDBRANCH  13  18
ENDBRANCH  10  11
ENDBRANCH   7  10
ENDBRANCH   3   4
ENDBRANCH   2   3
TORSDOF 6
ENDMDL
MODEL      187
REMARK 921   NORMALIZED FREE ENERGY PREDICTED BY IDOCK:   -4.39 KCAL/MOL
REMARK 922        TOTAL FREE ENERGY PREDICTED BY IDOCK:   -7.07 KCAL/MOL
REMARK 923 INTER-LIGAND FREE ENERGY PREDICTED BY IDOCK:   -5.89 KCAL/MOL
REMARK 924 INTRA-LIGAND FREE ENERGY PREDICTED BY IDOCK:   -1.19 KCAL/MOL
REMARK 927      BINDING AFFINITY PREDICTED BY RF-SCORE:    0.00 PKD
ROOT
HETATM    1  C   UNL     1      -7.411  19.681  69.387  1.00  0.00    -0.229 C  
HETATM    2  C   UNL     1      -8.337  19.759  68.184  1.00  0.00    -0.289 C  
ENDROOT
BRANCH   2   3
HETATM    3  O   UNL     1      -9.572  19.099  68.488  1.00  0.00    -0.348 OA 
BRANCH   3   4
HETATM    4  C   UNL     1      -9.732  17.868  67.904  1.00  0.00    -0.288 A  
HETATM    5  C   UNL     1      -9.930  16.797  68.775  1.00  0.00    -0.269 A  
HETATM    6  C   UNL     1      -9.936  15.480  68.297  1.00  0.00    -0.213 A  
HETATM    7  C   UNL     1      -9.741  15.215  66.930  1.00  0.00    -0.248 A  
HETATM    8  C   UNL     1      -9.678  16.306  66.051  1.00  0.00    -0.370 A  
HETATM    9  C   UNL     1      -9.680  17.623  66.533  1.00  0.00    -0.310 A  
BRANCH   7  10
HETATM   10  C   UNL     1      -9.393  13.813  66.455  1.00  0.00    -0.249 C  
BRANCH  10  11
HETATM   11  C   UNL     1     -10.018  12.614  67.132  1.00  0.00    -0.217 A  
HETATM   12  C   UNL     1      -9.240  11.857  68.018  1.00  0.00    -0.190 A  
HETATM   13  C   UNL     1      -9.739  10.709  68.687  1.00  0.00    -0.178 A  
HETATM   14 CL   UNL     1     -12.366  12.949  65.767  1.00  0.00    -0.494 Cl 
HETATM   15  C   UNL     1     -11.110  10.462  68.631  1.00  0.00    -0.313 A  
HETATM   16  C   UNL     1     -11.908  11.214  67.763  1.00  0.00    -0.098 A  
HETATM   17  C   UNL     1     -11.353  12.232  66.971  1.00  0.00    -0.334 A  
BRANCH  13  18
HETATM   18  C   UNL     1      -8.739   9.665  69.150  1.00  0.00    -0.151 C  
HETATM   19  C   UNL     1      -6.599  10.260  69.697  1.00  0.00    -0.077 C  
HETATM   20  C   UNL     1      -6.632   8.896  69.045  1.00  0.00    -0.048 C  
HETATM   21  O   UNL     1      -7.951  10.441  70.117  1.00  0.00    -0.062 OA 
HETATM   22  H   UNL     1      -9.680   8.157  71.955  1.00  0.00     0.000 HD 
HETATM   23  O   UNL     1      -7.777   9.123  68.170  1.00  0.00    -0.091 OA 
HETATM   24  C   UNL     1      -6.972   7.651  69.929  1.00  0.00    -0.054 C  
HETATM   25  O   UNL     1      -9.317   8.860  71.428  1.00  0.00    -0.234 OA 
HETATM   26  C   UNL     1      -8.469   7.262  69.838  1.00  0.00    -0.140 C  
HETATM   27  O   UNL     1      -6.528   7.857  71.270  1.00  0.00    -0.037 OA 
HETATM   28  H   UNL     1      -9.675   6.381  68.535  1.00  0.00     0.000 HD 
HETATM   29  H   UNL     1      -6.735   7.102  71.807  1.00  0.00     0.000 HD 
HETATM   30  O   UNL     1      -8.758   6.620  68.590  1.00  0.00    -0.124 OA 
HETATM   31  C   UNL     1      -9.337   8.506  70.019  1.00  0.00    -0.163 C  
BRANCH  20  32
HETATM   32  C   UNL     1      -5.226   8.653  68.451  1.00  0.00    -0.034 C  
HETATM   33  O   UNL     1      -5.248   8.159  67.109  1.00  0.00    -0.033 OA 
HETATM   34  H   UNL     1      -4.384   8.009  66.744  1.00  0.00     0.000 HD 
ENDBRANCH  20  32
ENDBRANCH  13  18
ENDBRANCH  10  11
ENDBRANCH   7  10
ENDBRANCH   3   4
ENDBRANCH   2   3
TORSDOF 6
ENDMDL
MODEL      188
REMARK 921   NORMALIZED FREE ENERGY PREDICTED BY IDOCK:   -4.37 KCAL/MOL
REMARK 922        TOTAL FREE ENERGY PREDICTED BY IDOCK:   -7.04 KCAL/MOL
REMARK 923 INTER-LIGAND FREE ENERGY PREDICTED BY IDOCK:   -5.64 KCAL/MOL
REMARK 924 INTRA-LIGAND FREE ENERGY PREDICTED BY IDOCK:   -1.40 KCAL/MOL
REMARK 927      BINDING AFFINITY PREDICTED BY RF-SCORE:    0.00 PKD
ROOT
HETATM    1  C   UNL     1      -9.031   3.388  65.274  1.00  0.00    -0.140 C  
HETATM    2  C   UNL     1      -8.619   4.544  66.171  1.00  0.00    -0.113 C  
ENDROOT
BRANCH   2   3
HETATM    3  O   UNL     1      -9.266   5.745  65.732  1.00  0.00    -0.148 OA 
BRANCH   3   4
HETATM    4  C   UNL     1      -9.380   6.726  66.684  1.00  0.00    -0.165 A  
HETATM    5  C   UNL     1      -9.644   8.011  66.213  1.00  0.00    -0.223 A  
HETATM    6  C   UNL     1      -9.612   9.111  67.081  1.00  0.00    -0.215 A  
HETATM    7  C   UNL     1      -9.310   8.937  68.443  1.00  0.00    -0.140 A  
HETATM    8  C   UNL     1      -9.179   7.626  68.926  1.00  0.00    -0.139 A  
HETATM    9  C   UNL     1      -9.220   6.528  68.054  1.00  0.00    -0.111 A  
BRANCH   7  10
HETATM   10  C   UNL     1      -8.926  10.126  69.308  1.00  0.00    -0.193 C  
BRANCH  10  11
HETATM   11  C   UNL     1      -8.164  11.282  68.702  1.00  0.00    -0.146 A  
HETATM   12  C   UNL     1      -8.784  12.537  68.630  1.00  0.00     0.047 A  
HETATM   13  C   UNL     1      -8.149  13.674  68.066  1.00  0.00    -0.161 A  
HETATM   14 CL   UNL     1      -6.032   9.679  68.091  1.00  0.00    -0.047 Cl 
HETATM   15  C   UNL     1      -6.787  13.590  67.779  1.00  0.00    -0.168 A  
HETATM   16  C   UNL     1      -6.144  12.349  67.856  1.00  0.00    -0.093 A  
HETATM   17  C   UNL     1      -6.845  11.197  68.246  1.00  0.00    -0.068 A  
BRANCH  13  18
HETATM   18  C   UNL     1      -9.030  14.785  67.524  1.00  0.00    -0.187 C  
HETATM   19  C   UNL     1      -8.124  16.522  66.342  1.00  0.00    -0.327 C  
HETATM   20  C   UNL     1      -9.290  16.989  67.185  1.00  0.00    -0.236 C  
HETATM   21  O   UNL     1      -8.331  15.111  66.272  1.00  0.00    -0.042 OA 
HETATM   22  H   UNL     1     -11.274  13.678  65.339  1.00  0.00     0.000 HD 
HETATM   23  O   UNL     1      -9.129  16.045  68.284  1.00  0.00    -0.185 OA 
HETATM   24  C   UNL     1     -10.739  16.800  66.628  1.00  0.00    -0.107 C  
HETATM   25  O   UNL     1     -10.413  13.951  65.635  1.00  0.00    -0.290 OA 
HETATM   26  C   UNL     1     -11.411  15.514  67.172  1.00  0.00    -0.135 C  
HETATM   27  O   UNL     1     -10.738  16.869  65.202  1.00  0.00    -0.663 OA 
HETATM   28  H   UNL     1     -12.226  14.895  68.870  1.00  0.00     0.000 HD 
HETATM   29  H   UNL     1     -11.618  16.755  64.864  1.00  0.00     0.000 HD 
HETATM   30  O   UNL     1     -11.814  15.683  68.536  1.00  0.00    -0.355 OA 
HETATM   31  C   UNL     1     -10.450  14.334  67.036  1.00  0.00    -0.271 C  
BRANCH  20  32
HETATM   32  C   UNL     1      -9.093  18.505  67.415  1.00  0.00    -0.275 C  
HETATM   33  O   UNL     1      -9.329  19.297  66.247  1.00  0.00    -0.343 OA 
HETATM   34  H   UNL     1      -9.207  20.229  66.389  1.00  0.00     0.000 HD 
ENDBRANCH  20  32
ENDBRANCH  13  18
ENDBRANCH  10  11
ENDBRANCH   7  10
ENDBRANCH   3   4
ENDBRANCH   2   3
TORSDOF 6
ENDMDL
MODEL      189
REMARK 921   NORMALIZED FREE ENERGY PREDICTED BY IDOCK:   -4.36 KCAL/MOL
REMARK 922        TOTAL FREE ENERGY PREDICTED BY IDOCK:   -7.03 KCAL/MOL
REMARK 923 INTER-LIGAND FREE ENERGY PREDICTED BY IDOCK:   -5.68 KCAL/MOL
REMARK 924 INTRA-LIGAND FREE ENERGY PREDICTED BY IDOCK:   -1.34 KCAL/MOL
REMARK 927      BINDING AFFINITY PREDICTED BY RF-SCORE:    0.00 PKD
ROOT
HETATM    1  C   UNL     1      -5.290  15.165  72.689  1.00  0.00     0.191 C  
HETATM    2  C   UNL     1      -5.212  13.837  71.953  1.00  0.00    -0.199 C  
ENDROOT
BRANCH   2   3
HETATM    3  O   UNL     1      -5.851  13.960  70.676  1.00  0.00    -0.165 OA 
BRANCH   3   4
HETATM    4  C   UNL     1      -5.741  12.861  69.863  1.00  0.00    -0.122 A  
HETATM    5  C   UNL     1      -5.157  13.076  68.615  1.00  0.00    -0.064 A  
HETATM    6  C   UNL     1      -5.148  12.064  67.646  1.00  0.00    -0.076 A  
HETATM    7  C   UNL     1      -5.731  10.813  67.914  1.00  0.00    -0.042 A  
HETATM    8  C   UNL     1      -6.193  10.568  69.216  1.00  0.00    -0.048 A  
HETATM    9  C   UNL     1      -6.193  11.582  70.185  1.00  0.00    -0.132 A  
BRANCH   7  10
HETATM   10  C   UNL     1      -6.045   9.847  66.783  1.00  0.00    -0.060 C  
BRANCH  10  11
HETATM   11  C   UNL     1      -7.432   9.817  66.184  1.00  0.00    -0.101 A  
HETATM   12  C   UNL     1      -8.151  11.016  66.084  1.00  0.00    -0.141 A  
HETATM   13  C   UNL     1      -9.463  11.080  65.547  1.00  0.00    -0.250 A  
HETATM   14 CL   UNL     1      -7.354   7.097  65.902  1.00  0.00    -0.073 Cl 
HETATM   15  C   UNL     1      -9.961   9.953  64.895  1.00  0.00    -0.190 A  
HETATM   16  C   UNL     1      -9.254   8.748  64.971  1.00  0.00     0.045 A  
HETATM   17  C   UNL     1      -8.037   8.668  65.668  1.00  0.00    -0.110 A  
BRANCH  13  18
HETATM   18  C   UNL     1     -10.352  12.233  65.977  1.00  0.00    -0.245 C  
HETATM   19  C   UNL     1     -11.502  13.460  64.425  1.00  0.00    -0.384 C  
HETATM   20  C   UNL     1     -11.043  14.331  65.574  1.00  0.00    -0.323 C  
HETATM   21  O   UNL     1     -11.427  12.146  64.978  1.00  0.00    -0.325 OA 
HETATM   22  H   UNL     1     -12.846  11.256  67.941  1.00  0.00     0.000 HD 
HETATM   23  O   UNL     1      -9.819  13.607  65.893  1.00  0.00    -0.289 OA 
HETATM   24  C   UNL     1     -11.907  14.368  66.878  1.00  0.00    -0.410 C  
HETATM   25  O   UNL     1     -12.389  11.382  67.117  1.00  0.00     0.207 OA 
HETATM   26  C   UNL     1     -11.371  13.396  67.959  1.00  0.00    -0.286 C  
HETATM   27  O   UNL     1     -13.284  14.158  66.569  1.00  0.00    -0.164 OA 
HETATM   28  H   UNL     1      -9.857  13.317  69.235  1.00  0.00     0.000 HD 
HETATM   29  H   UNL     1     -13.808  14.180  67.360  1.00  0.00     0.000 HD 
HETATM   30  O   UNL     1     -10.185  13.913  68.572  1.00  0.00    -0.234 OA 
HETATM   31  C   UNL     1     -11.106  12.027  67.335  1.00  0.00    -0.281 C  
BRANCH  20  32
HETATM   32  C   UNL     1     -10.982  15.779  65.036  1.00  0.00    -0.417 C  
HETATM   33  O   UNL     1     -11.506  15.922  63.713  1.00  0.00    -0.993 OA 
HETATM   34  H   UNL     1     -11.468  16.812  63.383  1.00  0.00     0.000 HD 
ENDBRANCH  20  32
ENDBRANCH  13  18
ENDBRANCH  10  11
ENDBRANCH   7  10
ENDBRANCH   3   4
ENDBRANCH   2   3
TORSDOF 6
ENDMDL
MODEL      190
REMARK 921   NORMALIZED FREE ENERGY PREDICTED BY IDOCK:   -4.35 KCAL/MOL
REMARK 922        TOTAL FREE ENERGY PREDICTED BY IDOCK:   -7.01 KCAL/MOL
REMARK 923 INTER-LIGAND FREE ENERGY PREDICTED BY IDOCK:   -5.87 KCAL/MOL
REMARK 924 INTRA-LIGAND FREE ENERGY PREDICTED BY IDOCK:   -1.14 KCAL/MOL
REMARK 927      BINDING AFFINITY PREDICTED BY RF-SCORE:    0.00 PKD
ROOT
HETATM    1  C   UNL     1     -12.386  14.771  72.153  1.00  0.00    -0.408 C  
HETATM    2  C   UNL     1     -13.649  14.085  71.657  1.00  0.00    -0.350 C  
ENDROOT
BRANCH   2   3
HETATM    3  O   UNL     1     -13.639  12.711  72.066  1.00  0.00    -0.456 OA 
BRANCH   3   4
HETATM    4  C   UNL     1     -12.810  11.895  71.338  1.00  0.00    -0.307 A  
HETATM    5  C   UNL     1     -12.548  10.641  71.887  1.00  0.00    -0.309 A  
HETATM    6  C   UNL     1     -11.587   9.797  71.313  1.00  0.00    -0.465 A  
HETATM    7  C   UNL     1     -10.868  10.203  70.176  1.00  0.00    -0.368 A  
HETATM    8  C   UNL     1     -11.237  11.408  69.559  1.00  0.00    -0.322 A  
HETATM    9  C   UNL     1     -12.205  12.245  70.132  1.00  0.00    -0.302 A  
BRANCH   7  10
HETATM   10  C   UNL     1      -9.600   9.474  69.760  1.00  0.00    -0.235 C  
BRANCH  10  11
HETATM   11  C   UNL     1      -9.692   8.097  69.144  1.00  0.00    -0.163 A  
HETATM   12  C   UNL     1      -9.640   6.976  69.983  1.00  0.00    -0.164 A  
HETATM   13  C   UNL     1      -9.707   5.647  69.491  1.00  0.00    -0.206 A  
HETATM   14 CL   UNL     1      -9.761   9.132  66.612  1.00  0.00    -0.263 Cl 
HETATM   15  C   UNL     1     -10.059   5.459  68.155  1.00  0.00    -0.220 A  
HETATM   16  C   UNL     1     -10.129   6.565  67.301  1.00  0.00    -0.212 A  
HETATM   17  C   UNL     1      -9.879   7.862  67.779  1.00  0.00    -0.163 A  
BRANCH  13  18
HETATM   18  C   UNL     1      -9.099   4.544  70.338  1.00  0.00    -0.111 C  
HETATM   19  C   UNL     1      -9.882   4.125  72.447  1.00  0.00    -0.160 C  
HETATM   20  C   UNL     1      -8.388   3.901  72.368  1.00  0.00    -0.094 C  
HETATM   21  O   UNL     1     -10.280   4.074  71.077  1.00  0.00    -0.090 OA 
HETATM   22  H   UNL     1      -9.448   1.542  68.960  1.00  0.00     0.000 HD 
HETATM   23  O   UNL     1      -8.091   4.905  71.353  1.00  0.00    -0.105 OA 
HETATM   24  C   UNL     1      -7.864   2.531  71.824  1.00  0.00    -0.048 C  
HETATM   25  O   UNL     1      -9.727   2.314  69.439  1.00  0.00    -0.033 OA 
HETATM   26  C   UNL     1      -7.503   2.601  70.319  1.00  0.00    -0.043 C  
HETATM   27  O   UNL     1      -8.788   1.487  72.131  1.00  0.00    -0.064 OA 
HETATM   28  H   UNL     1      -6.050   3.345  69.195  1.00  0.00     0.000 HD 
HETATM   29  H   UNL     1      -8.469   0.656  71.801  1.00  0.00     0.000 HD 
HETATM   30  O   UNL     1      -6.271   3.303  70.118  1.00  0.00    -0.023 OA 
HETATM   31  C   UNL     1      -8.639   3.271  69.548  1.00  0.00    -0.066 C  
BRANCH  20  32
HETATM   32  C   UNL     1      -7.840   4.051  73.806  1.00  0.00    -0.081 C  
HETATM   33  O   UNL     1      -7.197   2.873  74.300  1.00  0.00    -0.040 OA 
HETATM   34  H   UNL     1      -6.860   2.966  75.184  1.00  0.00     0.000 HD 
ENDBRANCH  20  32
ENDBRANCH  13  18
ENDBRANCH  10  11
ENDBRANCH   7  10
ENDBRANCH   3   4
ENDBRANCH   2   3
TORSDOF 6
ENDMDL
MODEL      191
REMARK 921   NORMALIZED FREE ENERGY PREDICTED BY IDOCK:   -4.34 KCAL/MOL
REMARK 922        TOTAL FREE ENERGY PREDICTED BY IDOCK:   -6.99 KCAL/MOL
REMARK 923 INTER-LIGAND FREE ENERGY PREDICTED BY IDOCK:   -5.83 KCAL/MOL
REMARK 924 INTRA-LIGAND FREE ENERGY PREDICTED BY IDOCK:   -1.16 KCAL/MOL
REMARK 927      BINDING AFFINITY PREDICTED BY RF-SCORE:    0.00 PKD
ROOT
HETATM    1  C   UNL     1      -7.410  19.677  69.385  1.00  0.00    -0.229 C  
HETATM    2  C   UNL     1      -8.380  19.791  68.220  1.00  0.00    -0.274 C  
ENDROOT
BRANCH   2   3
HETATM    3  O   UNL     1      -9.607  19.129  68.553  1.00  0.00    -0.348 OA 
BRANCH   3   4
HETATM    4  C   UNL     1      -9.816  17.935  67.912  1.00  0.00    -0.309 A  
HETATM    5  C   UNL     1      -9.957  16.815  68.730  1.00  0.00    -0.269 A  
HETATM    6  C   UNL     1     -10.006  15.528  68.178  1.00  0.00    -0.217 A  
HETATM    7  C   UNL     1      -9.910  15.343  66.788  1.00  0.00    -0.255 A  
HETATM    8  C   UNL     1      -9.903  16.484  65.971  1.00  0.00    -0.348 A  
HETATM    9  C   UNL     1      -9.862  17.770  66.528  1.00  0.00    -0.331 A  
BRANCH   7  10
HETATM   10  C   UNL     1      -9.606  13.971  66.208  1.00  0.00    -0.284 C  
BRANCH  10  11
HETATM   11  C   UNL     1     -10.176  12.735  66.865  1.00  0.00    -0.241 A  
HETATM   12  C   UNL     1      -9.360  11.989  67.726  1.00  0.00    -0.190 A  
HETATM   13  C   UNL     1      -9.807  10.809  68.375  1.00  0.00    -0.177 A  
HETATM   14 CL   UNL     1     -12.551  13.008  65.533  1.00  0.00    -0.502 Cl 
HETATM   15  C   UNL     1     -11.168  10.510  68.329  1.00  0.00    -0.354 A  
HETATM   16  C   UNL     1     -12.005  11.250  67.485  1.00  0.00     0.172 A  
HETATM   17  C   UNL     1     -11.497  12.305  66.710  1.00  0.00    -0.361 A  
BRANCH  13  18
HETATM   18  C   UNL     1      -8.763   9.794  68.804  1.00  0.00    -0.128 C  
HETATM   19  C   UNL     1      -9.272   7.565  68.899  1.00  0.00    -0.142 C  
HETATM   20  C   UNL     1      -8.308   7.948  70.000  1.00  0.00    -0.121 C  
HETATM   21  O   UNL     1      -9.134   8.641  67.971  1.00  0.00    -0.140 OA 
HETATM   22  H   UNL     1      -6.141   9.726  66.767  1.00  0.00     0.000 HD 
HETATM   23  O   UNL     1      -8.772   9.316  70.200  1.00  0.00    -0.164 OA 
HETATM   24  C   UNL     1      -6.782   8.027  69.665  1.00  0.00    -0.038 C  
HETATM   25  O   UNL     1      -7.030   9.534  67.043  1.00  0.00    -0.083 OA 
HETATM   26  C   UNL     1      -6.329   9.475  69.346  1.00  0.00    -0.043 C  
HETATM   27  O   UNL     1      -6.449   7.097  68.634  1.00  0.00    -0.034 OA 
HETATM   28  H   UNL     1      -5.965  11.147  70.345  1.00  0.00     0.000 HD 
HETATM   29  H   UNL     1      -5.523   7.145  68.431  1.00  0.00     0.000 HD 
HETATM   30  O   UNL     1      -6.242  10.260  70.540  1.00  0.00    -0.101 OA 
HETATM   31  C   UNL     1      -7.297  10.110  68.349  1.00  0.00    -0.081 C  
BRANCH  20  32
HETATM   32  C   UNL     1      -8.467   6.892  71.117  1.00  0.00    -0.123 C  
HETATM   33  O   UNL     1      -8.579   7.456  72.427  1.00  0.00    -0.113 OA 
HETATM   34  H   UNL     1      -8.677   6.807  73.113  1.00  0.00     0.000 HD 
ENDBRANCH  20  32
ENDBRANCH  13  18
ENDBRANCH  10  11
ENDBRANCH   7  10
ENDBRANCH   3   4
ENDBRANCH   2   3
TORSDOF 6
ENDMDL
MODEL      192
REMARK 921   NORMALIZED FREE ENERGY PREDICTED BY IDOCK:   -4.32 KCAL/MOL
REMARK 922        TOTAL FREE ENERGY PREDICTED BY IDOCK:   -6.98 KCAL/MOL
REMARK 923 INTER-LIGAND FREE ENERGY PREDICTED BY IDOCK:   -5.86 KCAL/MOL
REMARK 924 INTRA-LIGAND FREE ENERGY PREDICTED BY IDOCK:   -1.11 KCAL/MOL
REMARK 927      BINDING AFFINITY PREDICTED BY RF-SCORE:    0.00 PKD
ROOT
HETATM    1  C   UNL     1      -7.031  19.689  69.579  1.00  0.00    -0.314 C  
HETATM    2  C   UNL     1      -5.724  19.229  68.951  1.00  0.00    -0.209 C  
ENDROOT
BRANCH   2   3
HETATM    3  O   UNL     1      -5.491  17.855  69.285  1.00  0.00    -0.183 OA 
BRANCH   3   4
HETATM    4  C   UNL     1      -6.280  16.953  68.618  1.00  0.00    -0.154 A  
HETATM    5  C   UNL     1      -6.439  17.170  67.250  1.00  0.00    -0.188 A  
HETATM    6  C   UNL     1      -7.354  16.411  66.508  1.00  0.00    -0.176 A  
HETATM    7  C   UNL     1      -8.131  15.420  67.131  1.00  0.00    -0.249 A  
HETATM    8  C   UNL     1      -7.864  15.124  68.476  1.00  0.00    -0.135 A  
HETATM    9  C   UNL     1      -6.942  15.880  69.213  1.00  0.00    -0.198 A  
BRANCH   7  10
HETATM   10  C   UNL     1      -9.357  14.846  66.438  1.00  0.00    -0.327 C  
BRANCH  10  11
HETATM   11  C   UNL     1      -9.958  13.548  66.927  1.00  0.00    -0.256 A  
HETATM   12  C   UNL     1      -9.199  12.373  66.831  1.00  0.00    -0.209 A  
HETATM   13  C   UNL     1      -9.688  11.110  67.254  1.00  0.00    -0.186 A  
HETATM   14 CL   UNL     1     -12.335  14.765  67.524  1.00  0.00     0.004 Cl 
HETATM   15  C   UNL     1     -10.871  11.076  67.990  1.00  0.00    -0.278 A  
HETATM   16  C   UNL     1     -11.639  12.240  68.108  1.00  0.00    -0.396 A  
HETATM   17  C   UNL     1     -11.218  13.445  67.522  1.00  0.00    -0.284 A  
BRANCH  13  18
HETATM   18  C   UNL     1      -9.081   9.867  66.627  1.00  0.00    -0.147 C  
HETATM   19  C   UNL     1     -10.095   7.829  66.859  1.00  0.00    -0.286 C  
HETATM   20  C   UNL     1      -8.589   7.689  66.857  1.00  0.00    -0.123 C  
HETATM   21  O   UNL     1     -10.292   9.114  66.270  1.00  0.00    -0.244 OA 
HETATM   22  H   UNL     1      -8.897  10.073  63.317  1.00  0.00     0.000 HD 
HETATM   23  O   UNL     1      -8.270   8.971  67.473  1.00  0.00    -0.108 OA 
HETATM   24  C   UNL     1      -7.843   7.644  65.482  1.00  0.00    -0.112 C  
HETATM   25  O   UNL     1      -9.324   9.936  64.155  1.00  0.00    -0.266 OA 
HETATM   26  C   UNL     1      -7.289   9.033  65.073  1.00  0.00    -0.096 C  
HETATM   27  O   UNL     1      -8.677   7.058  64.482  1.00  0.00    -0.334 OA 
HETATM   28  H   UNL     1      -5.789  10.219  65.591  1.00  0.00     0.000 HD 
HETATM   29  H   UNL     1      -8.225   7.031  63.648  1.00  0.00     0.000 HD 
HETATM   30  O   UNL     1      -6.128   9.368  65.842  1.00  0.00    -0.054 OA 
HETATM   31  C   UNL     1      -8.377  10.092  65.245  1.00  0.00    -0.154 C  
BRANCH  20  32
HETATM   32  C   UNL     1      -8.264   6.365  67.585  1.00  0.00    -0.118 C  
HETATM   33  O   UNL     1      -7.419   6.530  68.726  1.00  0.00    -0.084 OA 
HETATM   34  H   UNL     1      -7.220   5.716  69.174  1.00  0.00     0.000 HD 
ENDBRANCH  20  32
ENDBRANCH  13  18
ENDBRANCH  10  11
ENDBRANCH   7  10
ENDBRANCH   3   4
ENDBRANCH   2   3
TORSDOF 6
ENDMDL
MODEL      193
REMARK 921   NORMALIZED FREE ENERGY PREDICTED BY IDOCK:   -4.27 KCAL/MOL
REMARK 922        TOTAL FREE ENERGY PREDICTED BY IDOCK:   -6.91 KCAL/MOL
REMARK 923 INTER-LIGAND FREE ENERGY PREDICTED BY IDOCK:   -5.51 KCAL/MOL
REMARK 924 INTRA-LIGAND FREE ENERGY PREDICTED BY IDOCK:   -1.39 KCAL/MOL
REMARK 927      BINDING AFFINITY PREDICTED BY RF-SCORE:    0.00 PKD
ROOT
HETATM    1  C   UNL     1      -9.635   5.608  74.156  1.00  0.00    -0.155 C  
HETATM    2  C   UNL     1      -8.257   6.246  74.225  1.00  0.00    -0.116 C  
ENDROOT
BRANCH   2   3
HETATM    3  O   UNL     1      -8.352   7.630  73.863  1.00  0.00    -0.165 OA 
BRANCH   3   4
HETATM    4  C   UNL     1      -8.161   7.897  72.532  1.00  0.00    -0.126 A  
HETATM    5  C   UNL     1      -6.864   7.726  72.051  1.00  0.00    -0.062 A  
HETATM    6  C   UNL     1      -6.524   8.130  70.753  1.00  0.00    -0.037 A  
HETATM    7  C   UNL     1      -7.485   8.719  69.913  1.00  0.00    -0.053 A  
HETATM    8  C   UNL     1      -8.813   8.762  70.363  1.00  0.00    -0.185 A  
HETATM    9  C   UNL     1      -9.151   8.349  71.660  1.00  0.00    -0.268 A  
BRANCH   7  10
HETATM   10  C   UNL     1      -7.063   9.475  68.663  1.00  0.00    -0.069 C  
BRANCH  10  11
HETATM   11  C   UNL     1      -8.113   9.981  67.701  1.00  0.00    -0.110 A  
HETATM   12  C   UNL     1      -8.416  11.350  67.691  1.00  0.00    -0.130 A  
HETATM   13  C   UNL     1      -9.396  11.910  66.830  1.00  0.00    -0.198 A  
HETATM   14 CL   UNL     1      -8.649   7.451  66.807  1.00  0.00    -0.123 Cl 
HETATM   15  C   UNL     1      -9.910  11.110  65.811  1.00  0.00    -0.279 A  
HETATM   16  C   UNL     1      -9.610   9.743  65.795  1.00  0.00    -0.318 A  
HETATM   17  C   UNL     1      -8.777   9.176  66.772  1.00  0.00    -0.127 A  
BRANCH  13  18
HETATM   18  C   UNL     1     -10.047  13.216  67.250  1.00  0.00    -0.233 C  
HETATM   19  C   UNL     1     -10.079  13.849  69.449  1.00  0.00     0.337 C  
HETATM   20  C   UNL     1     -11.345  14.280  68.742  1.00  0.00    -0.275 C  
HETATM   21  O   UNL     1      -9.178  13.616  68.366  1.00  0.00    -0.195 OA 
HETATM   22  H   UNL     1      -8.585  15.866  65.882  1.00  0.00     0.000 HD 
HETATM   23  O   UNL     1     -11.421  13.181  67.787  1.00  0.00    -0.276 OA 
HETATM   24  C   UNL     1     -11.325  15.606  67.912  1.00  0.00    -0.302 C  
HETATM   25  O   UNL     1      -8.679  15.149  66.500  1.00  0.00    -0.278 OA 
HETATM   26  C   UNL     1     -11.077  15.348  66.405  1.00  0.00    -0.230 C  
HETATM   27  O   UNL     1     -10.401  16.535  68.480  1.00  0.00    -0.257 OA 
HETATM   28  H   UNL     1     -12.097  14.658  64.852  1.00  0.00     0.000 HD 
HETATM   29  H   UNL     1     -10.389  17.340  67.976  1.00  0.00     0.000 HD 
HETATM   30  O   UNL     1     -12.249  14.816  65.776  1.00  0.00    -0.208 OA 
HETATM   31  C   UNL     1      -9.893  14.398  66.233  1.00  0.00    -0.304 C  
BRANCH  20  32
HETATM   32  C   UNL     1     -12.427  14.450  69.833  1.00  0.00    -0.261 C  
HETATM   33  O   UNL     1     -13.054  15.736  69.823  1.00  0.00    -0.513 OA 
HETATM   34  H   UNL     1     -13.718  15.840  70.493  1.00  0.00     0.000 HD 
ENDBRANCH  20  32
ENDBRANCH  13  18
ENDBRANCH  10  11
ENDBRANCH   7  10
ENDBRANCH   3   4
ENDBRANCH   2   3
TORSDOF 6
ENDMDL
MODEL      194
REMARK 921   NORMALIZED FREE ENERGY PREDICTED BY IDOCK:   -4.22 KCAL/MOL
REMARK 922        TOTAL FREE ENERGY PREDICTED BY IDOCK:   -6.84 KCAL/MOL
REMARK 923 INTER-LIGAND FREE ENERGY PREDICTED BY IDOCK:   -5.58 KCAL/MOL
REMARK 924 INTRA-LIGAND FREE ENERGY PREDICTED BY IDOCK:   -1.26 KCAL/MOL
REMARK 927      BINDING AFFINITY PREDICTED BY RF-SCORE:    0.00 PKD
ROOT
HETATM    1  C   UNL     1      -5.499  19.313  70.841  1.00  0.00    -0.247 C  
HETATM    2  C   UNL     1      -5.602  19.724  69.381  1.00  0.00    -0.224 C  
ENDROOT
BRANCH   2   3
HETATM    3  O   UNL     1      -5.238  18.618  68.546  1.00  0.00    -0.172 OA 
BRANCH   3   4
HETATM    4  C   UNL     1      -6.237  17.705  68.323  1.00  0.00    -0.177 A  
HETATM    5  C   UNL     1      -7.382  18.189  67.691  1.00  0.00    -0.214 A  
HETATM    6  C   UNL     1      -8.523  17.385  67.568  1.00  0.00    -0.218 A  
HETATM    7  C   UNL     1      -8.535  16.077  68.082  1.00  0.00    -0.169 A  
HETATM    8  C   UNL     1      -7.335  15.560  68.594  1.00  0.00    -0.125 A  
HETATM    9  C   UNL     1      -6.193  16.366  68.708  1.00  0.00    -0.132 A  
BRANCH   7  10
HETATM   10  C   UNL     1      -9.846  15.332  68.275  1.00  0.00    -0.218 C  
BRANCH  10  11
HETATM   11  C   UNL     1     -10.095  14.042  67.527  1.00  0.00    -0.237 A  
HETATM   12  C   UNL     1      -9.767  12.828  68.146  1.00  0.00    -0.223 A  
HETATM   13  C   UNL     1      -9.955  11.571  67.514  1.00  0.00    -0.207 A  
HETATM   14 CL   UNL     1     -10.953  15.386  65.303  1.00  0.00    -0.380 Cl 
HETATM   15  C   UNL     1     -10.693  11.534  66.333  1.00  0.00    -0.320 A  
HETATM   16  C   UNL     1     -11.041  12.734  65.703  1.00  0.00    -0.311 A  
HETATM   17  C   UNL     1     -10.683  13.972  66.261  1.00  0.00    -0.289 A  
BRANCH  13  18
HETATM   18  C   UNL     1      -9.095  10.408  67.977  1.00  0.00    -0.136 C  
HETATM   19  C   UNL     1      -8.920   8.511  66.710  1.00  0.00    -0.146 C  
HETATM   20  C   UNL     1      -8.890   8.182  68.186  1.00  0.00    -0.132 C  
HETATM   21  O   UNL     1      -8.595   9.901  66.691  1.00  0.00    -0.124 OA 
HETATM   22  H   UNL     1      -5.891  11.232  68.272  1.00  0.00     0.000 HD 
HETATM   23  O   UNL     1      -9.749   9.267  68.647  1.00  0.00    -0.146 OA 
HETATM   24  C   UNL     1      -7.535   8.312  68.956  1.00  0.00    -0.091 C  
HETATM   25  O   UNL     1      -6.685  10.990  67.809  1.00  0.00    -0.063 OA 
HETATM   26  C   UNL     1      -7.409   9.671  69.690  1.00  0.00    -0.093 C  
HETATM   27  O   UNL     1      -6.438   8.045  68.082  1.00  0.00    -0.052 OA 
HETATM   28  H   UNL     1      -8.153  10.532  71.314  1.00  0.00     0.000 HD 
HETATM   29  H   UNL     1      -5.615   8.124  68.549  1.00  0.00     0.000 HD 
HETATM   30  O   UNL     1      -8.230   9.699  70.864  1.00  0.00    -0.290 OA 
HETATM   31  C   UNL     1      -7.786  10.807  68.740  1.00  0.00    -0.121 C  
BRANCH  20  32
HETATM   32  C   UNL     1      -9.343   6.711  68.323  1.00  0.00    -0.119 C  
HETATM   33  O   UNL     1     -10.573   6.424  67.651  1.00  0.00    -0.203 OA 
HETATM   34  H   UNL     1     -10.851   5.520  67.736  1.00  0.00     0.000 HD 
ENDBRANCH  20  32
ENDBRANCH  13  18
ENDBRANCH  10  11
ENDBRANCH   7  10
ENDBRANCH   3   4
ENDBRANCH   2   3
TORSDOF 6
ENDMDL
MODEL      195
REMARK 921   NORMALIZED FREE ENERGY PREDICTED BY IDOCK:   -4.20 KCAL/MOL
REMARK 922        TOTAL FREE ENERGY PREDICTED BY IDOCK:   -6.81 KCAL/MOL
REMARK 923 INTER-LIGAND FREE ENERGY PREDICTED BY IDOCK:   -5.53 KCAL/MOL
REMARK 924 INTRA-LIGAND FREE ENERGY PREDICTED BY IDOCK:   -1.28 KCAL/MOL
REMARK 927      BINDING AFFINITY PREDICTED BY RF-SCORE:    0.00 PKD
ROOT
HETATM    1  C   UNL     1      -6.995  10.035  63.905  1.00  0.00    -0.124 C  
HETATM    2  C   UNL     1      -8.446   9.583  63.865  1.00  0.00    -0.190 C  
ENDROOT
BRANCH   2   3
HETATM    3  O   UNL     1      -9.287  10.629  64.368  1.00  0.00    -0.212 OA 
BRANCH   3   4
HETATM    4  C   UNL     1      -9.517  10.590  65.720  1.00  0.00    -0.201 A  
HETATM    5  C   UNL     1     -10.243   9.496  66.189  1.00  0.00    -0.272 A  
HETATM    6  C   UNL     1     -10.676   9.444  67.521  1.00  0.00    -0.290 A  
HETATM    7  C   UNL     1     -10.389  10.496  68.407  1.00  0.00    -0.199 A  
HETATM    8  C   UNL     1      -9.547  11.524  67.957  1.00  0.00    -0.180 A  
HETATM    9  C   UNL     1      -9.109  11.568  66.626  1.00  0.00    -0.193 A  
BRANCH   7  10
HETATM   10  C   UNL     1     -11.138  10.625  69.724  1.00  0.00    -0.358 C  
BRANCH  10  11
HETATM   11  C   UNL     1     -10.896   9.620  70.827  1.00  0.00    -0.400 A  
HETATM   12  C   UNL     1      -9.589   9.171  71.058  1.00  0.00    -0.350 A  
HETATM   13  C   UNL     1      -9.272   8.221  72.063  1.00  0.00    -0.270 A  
HETATM   14 CL   UNL     1     -13.570   9.448  71.385  1.00  0.00    -0.406 Cl 
HETATM   15  C   UNL     1     -10.259   7.894  72.992  1.00  0.00    -0.394 A  
HETATM   16  C   UNL     1     -11.569   8.341  72.788  1.00  0.00    -0.326 A  
HETATM   17  C   UNL     1     -11.894   9.137  71.678  1.00  0.00    -0.372 A  
BRANCH  13  18
HETATM   18  C   UNL     1      -8.010   7.394  71.887  1.00  0.00    -0.090 C  
HETATM   19  C   UNL     1      -8.001   5.554  70.527  1.00  0.00    -0.103 C  
HETATM   20  C   UNL     1      -7.107   5.345  71.729  1.00  0.00    -0.076 C  
HETATM   21  O   UNL     1      -8.145   6.974  70.485  1.00  0.00    -0.111 OA 
HETATM   22  H   UNL     1      -5.521   9.141  70.553  1.00  0.00     0.000 HD 
HETATM   23  O   UNL     1      -7.858   6.157  72.678  1.00  0.00    -0.102 OA 
HETATM   24  C   UNL     1      -5.651   5.918  71.687  1.00  0.00    -0.022 C  
HETATM   25  O   UNL     1      -6.333   8.647  70.549  1.00  0.00    -0.034 OA 
HETATM   26  C   UNL     1      -5.548   7.298  72.384  1.00  0.00    -0.037 C  
HETATM   27  O   UNL     1      -5.158   5.929  70.348  1.00  0.00    -0.008 OA 
HETATM   28  H   UNL     1      -5.531   8.005  74.236  1.00  0.00     0.000 HD 
HETATM   29  H   UNL     1      -4.275   6.276  70.323  1.00  0.00     0.000 HD 
HETATM   30  O   UNL     1      -5.595   7.159  73.809  1.00  0.00    -0.049 OA 
HETATM   31  C   UNL     1      -6.672   8.209  71.892  1.00  0.00    -0.070 C  
BRANCH  20  32
HETATM   32  C   UNL     1      -6.981   3.818  71.928  1.00  0.00    -0.030 C  
HETATM   33  O   UNL     1      -7.906   3.286  72.881  1.00  0.00    -0.058 OA 
HETATM   34  H   UNL     1      -7.829   2.347  73.003  1.00  0.00     0.000 HD 
ENDBRANCH  20  32
ENDBRANCH  13  18
ENDBRANCH  10  11
ENDBRANCH   7  10
ENDBRANCH   3   4
ENDBRANCH   2   3
TORSDOF 6
ENDMDL
MODEL      196
REMARK 921   NORMALIZED FREE ENERGY PREDICTED BY IDOCK:   -4.17 KCAL/MOL
REMARK 922        TOTAL FREE ENERGY PREDICTED BY IDOCK:   -6.76 KCAL/MOL
REMARK 923 INTER-LIGAND FREE ENERGY PREDICTED BY IDOCK:   -5.21 KCAL/MOL
REMARK 924 INTRA-LIGAND FREE ENERGY PREDICTED BY IDOCK:   -1.55 KCAL/MOL
REMARK 927      BINDING AFFINITY PREDICTED BY RF-SCORE:    0.00 PKD
ROOT
HETATM    1  C   UNL     1     -11.729  13.834  68.902  1.00  0.00    -0.374 C  
HETATM    2  C   UNL     1     -11.567  13.745  67.392  1.00  0.00    -0.362 C  
ENDROOT
BRANCH   2   3
HETATM    3  O   UNL     1     -10.424  14.510  66.988  1.00  0.00    -0.265 OA 
BRANCH   3   4
HETATM    4  C   UNL     1      -9.240  13.819  66.969  1.00  0.00    -0.251 A  
HETATM    5  C   UNL     1      -9.303  12.503  66.511  1.00  0.00    -0.233 A  
HETATM    6  C   UNL     1      -8.189  11.659  66.608  1.00  0.00    -0.140 A  
HETATM    7  C   UNL     1      -6.988  12.122  67.172  1.00  0.00    -0.117 A  
HETATM    8  C   UNL     1      -6.899  13.482  67.505  1.00  0.00    -0.156 A  
HETATM    9  C   UNL     1      -8.014  14.326  67.399  1.00  0.00    -0.211 A  
BRANCH   7  10
HETATM   10  C   UNL     1      -5.909  11.143  67.606  1.00  0.00    -0.048 C  
BRANCH  10  11
HETATM   11  C   UNL     1      -6.180  10.178  68.737  1.00  0.00    -0.047 A  
HETATM   12  C   UNL     1      -6.675   8.902  68.433  1.00  0.00    -0.060 A  
HETATM   13  C   UNL     1      -6.970   7.937  69.431  1.00  0.00    -0.059 A  
HETATM   14 CL   UNL     1      -5.500  12.044  70.620  1.00  0.00    -0.151 Cl 
HETATM   15  C   UNL     1      -6.543   8.188  70.734  1.00  0.00    -0.037 A  
HETATM   16  C   UNL     1      -6.034   9.451  71.057  1.00  0.00    -0.069 A  
HETATM   17  C   UNL     1      -5.921  10.455  70.082  1.00  0.00    -0.083 A  
BRANCH  13  18
HETATM   18  C   UNL     1      -7.986   6.859  69.098  1.00  0.00    -0.119 C  
HETATM   19  C   UNL     1      -8.570   6.436  66.926  1.00  0.00    -0.110 C  
HETATM   20  C   UNL     1      -9.753   6.254  67.851  1.00  0.00    -0.122 C  
HETATM   21  O   UNL     1      -7.458   6.362  67.819  1.00  0.00    -0.089 OA 
HETATM   22  H   UNL     1      -6.993   3.837  70.053  1.00  0.00     0.000 HD 
HETATM   23  O   UNL     1      -9.384   7.258  68.843  1.00  0.00    -0.145 OA 
HETATM   24  C   UNL     1      -9.908   4.895  68.611  1.00  0.00    -0.152 C  
HETATM   25  O   UNL     1      -7.019   4.605  69.494  1.00  0.00    -0.048 OA 
HETATM   26  C   UNL     1      -9.335   4.962  70.050  1.00  0.00    -0.144 C  
HETATM   27  O   UNL     1      -9.358   3.828  67.839  1.00  0.00    -0.161 OA 
HETATM   28  H   UNL     1      -9.857   5.739  71.797  1.00  0.00     0.000 HD 
HETATM   29  H   UNL     1      -9.452   3.003  68.300  1.00  0.00     0.000 HD 
HETATM   30  O   UNL     1     -10.208   5.698  70.915  1.00  0.00    -0.201 OA 
HETATM   31  C   UNL     1      -7.944   5.593  70.021  1.00  0.00    -0.091 C  
BRANCH  20  32
HETATM   32  C   UNL     1     -11.023   6.432  66.988  1.00  0.00    -0.389 C  
HETATM   33  O   UNL     1     -11.248   5.357  66.072  1.00  0.00    -0.783 OA 
HETATM   34  H   UNL     1     -12.029   5.467  65.541  1.00  0.00     0.000 HD 
ENDBRANCH  20  32
ENDBRANCH  13  18
ENDBRANCH  10  11
ENDBRANCH   7  10
ENDBRANCH   3   4
ENDBRANCH   2   3
TORSDOF 6
ENDMDL
MODEL      197
REMARK 921   NORMALIZED FREE ENERGY PREDICTED BY IDOCK:   -4.16 KCAL/MOL
REMARK 922        TOTAL FREE ENERGY PREDICTED BY IDOCK:   -6.76 KCAL/MOL
REMARK 923 INTER-LIGAND FREE ENERGY PREDICTED BY IDOCK:   -5.78 KCAL/MOL
REMARK 924 INTRA-LIGAND FREE ENERGY PREDICTED BY IDOCK:   -0.98 KCAL/MOL
REMARK 927      BINDING AFFINITY PREDICTED BY RF-SCORE:    0.00 PKD
ROOT
HETATM    1  C   UNL     1     -10.171  10.539  64.537  1.00  0.00    -0.355 C  
HETATM    2  C   UNL     1     -10.383  11.500  63.378  1.00  0.00    -0.418 C  
ENDROOT
BRANCH   2   3
HETATM    3  O   UNL     1     -11.401  12.449  63.723  1.00  0.00    -0.389 OA 
BRANCH   3   4
HETATM    4  C   UNL     1     -11.435  12.809  65.046  1.00  0.00    -0.321 A  
HETATM    5  C   UNL     1     -10.261  13.354  65.565  1.00  0.00    -0.300 A  
HETATM    6  C   UNL     1     -10.133  13.598  66.939  1.00  0.00    -0.260 A  
HETATM    7  C   UNL     1     -11.185  13.296  67.820  1.00  0.00    -0.308 A  
HETATM    8  C   UNL     1     -12.405  12.874  67.268  1.00  0.00     0.120 A  
HETATM    9  C   UNL     1     -12.531  12.638  65.891  1.00  0.00    -0.064 A  
BRANCH   7  10
HETATM   10  C   UNL     1     -10.943  13.218  69.318  1.00  0.00    -0.140 C  
BRANCH  10  11
HETATM   11  C   UNL     1     -11.456  12.032  70.102  1.00  0.00    -0.102 A  
HETATM   12  C   UNL     1     -10.759  10.818  70.025  1.00  0.00    -0.140 A  
HETATM   13  C   UNL     1     -11.175   9.651  70.717  1.00  0.00    -0.403 A  
HETATM   14 CL   UNL     1     -13.630  13.437  70.989  1.00  0.00     0.087 Cl 
HETATM   15  C   UNL     1     -12.179   9.779  71.675  1.00  0.00    -0.488 A  
HETATM   16  C   UNL     1     -12.880  10.985  71.778  1.00  0.00    -0.496 A  
HETATM   17  C   UNL     1     -12.566  12.075  70.951  1.00  0.00    -0.253 A  
BRANCH  13  18
HETATM   18  C   UNL     1     -10.738   8.305  70.166  1.00  0.00    -0.239 C  
HETATM   19  C   UNL     1      -8.944   7.204  71.063  1.00  0.00    -0.150 C  
HETATM   20  C   UNL     1      -9.028   6.978  69.569  1.00  0.00    -0.143 C  
HETATM   21  O   UNL     1     -10.263   7.643  71.389  1.00  0.00    -0.186 OA 
HETATM   22  H   UNL     1     -13.089   5.980  70.476  1.00  0.00     0.000 HD 
HETATM   23  O   UNL     1      -9.615   8.263  69.209  1.00  0.00    -0.162 OA 
HETATM   24  C   UNL     1      -9.990   5.867  69.033  1.00  0.00    -0.165 C  
HETATM   25  O   UNL     1     -12.384   6.545  70.771  1.00  0.00    -0.284 OA 
HETATM   26  C   UNL     1     -11.360   6.445  68.593  1.00  0.00    -0.119 C  
HETATM   27  O   UNL     1     -10.109   4.809  69.983  1.00  0.00    -0.239 OA 
HETATM   28  H   UNL     1     -12.087   7.491  67.075  1.00  0.00     0.000 HD 
HETATM   29  H   UNL     1     -10.693   4.135  69.657  1.00  0.00     0.000 HD 
HETATM   30  O   UNL     1     -11.248   7.137  67.344  1.00  0.00    -0.194 OA 
HETATM   31  C   UNL     1     -11.900   7.373  69.679  1.00  0.00     0.482 C  
BRANCH  20  32
HETATM   32  C   UNL     1      -7.605   6.604  69.096  1.00  0.00    -0.100 C  
HETATM   33  O   UNL     1      -6.691   6.356  70.168  1.00  0.00    -0.047 OA 
HETATM   34  H   UNL     1      -5.816   6.126  69.877  1.00  0.00     0.000 HD 
ENDBRANCH  20  32
ENDBRANCH  13  18
ENDBRANCH  10  11
ENDBRANCH   7  10
ENDBRANCH   3   4
ENDBRANCH   2   3
TORSDOF 6
ENDMDL
MODEL      198
REMARK 921   NORMALIZED FREE ENERGY PREDICTED BY IDOCK:   -4.15 KCAL/MOL
REMARK 922        TOTAL FREE ENERGY PREDICTED BY IDOCK:   -6.74 KCAL/MOL
REMARK 923 INTER-LIGAND FREE ENERGY PREDICTED BY IDOCK:   -5.85 KCAL/MOL
REMARK 924 INTRA-LIGAND FREE ENERGY PREDICTED BY IDOCK:   -0.89 KCAL/MOL
REMARK 927      BINDING AFFINITY PREDICTED BY RF-SCORE:    0.00 PKD
ROOT
HETATM    1  C   UNL     1      -7.760   6.216  64.426  1.00  0.00    -0.106 C  
HETATM    2  C   UNL     1      -8.220   7.330  65.354  1.00  0.00    -0.137 C  
ENDROOT
BRANCH   2   3
HETATM    3  O   UNL     1      -8.895   8.339  64.593  1.00  0.00     0.028 OA 
BRANCH   3   4
HETATM    4  C   UNL     1      -9.373   9.396  65.324  1.00  0.00    -0.238 A  
HETATM    5  C   UNL     1      -9.012  10.666  64.876  1.00  0.00    -0.218 A  
HETATM    6  C   UNL     1      -9.305  11.803  65.641  1.00  0.00    -0.165 A  
HETATM    7  C   UNL     1      -9.966  11.683  66.876  1.00  0.00    -0.225 A  
HETATM    8  C   UNL     1     -10.440  10.415  67.248  1.00  0.00    -0.304 A  
HETATM    9  C   UNL     1     -10.151   9.281  66.475  1.00  0.00    -0.343 A  
BRANCH   7  10
HETATM   10  C   UNL     1      -9.973  12.836  67.866  1.00  0.00    -0.229 C  
BRANCH  10  11
HETATM   11  C   UNL     1      -8.666  13.432  68.335  1.00  0.00    -0.134 A  
HETATM   12  C   UNL     1      -8.518  14.826  68.332  1.00  0.00    -0.157 A  
HETATM   13  C   UNL     1      -7.323  15.470  68.744  1.00  0.00    -0.141 A  
HETATM   14 CL   UNL     1      -7.561  10.955  68.704  1.00  0.00    -0.105 Cl 
HETATM   15  C   UNL     1      -6.349  14.702  69.380  1.00  0.00    -0.125 A  
HETATM   16  C   UNL     1      -6.481  13.309  69.406  1.00  0.00    -0.097 A  
HETATM   17  C   UNL     1      -7.595  12.680  68.827  1.00  0.00    -0.022 A  
BRANCH  13  18
HETATM   18  C   UNL     1      -7.041  16.859  68.200  1.00  0.00    -0.165 C  
HETATM   19  C   UNL     1      -5.710  18.317  69.357  1.00  0.00    -0.230 C  
HETATM   20  C   UNL     1      -6.825  19.049  68.645  1.00  0.00    -0.281 C  
HETATM   21  O   UNL     1      -5.663  17.068  68.667  1.00  0.00    -0.136 OA 
HETATM   22  H   UNL     1      -5.457  16.786  65.282  1.00  0.00     0.000 HD 
HETATM   23  O   UNL     1      -7.830  17.995  68.715  1.00  0.00    -0.301 OA 
HETATM   24  C   UNL     1      -6.641  19.406  67.133  1.00  0.00    -0.195 C  
HETATM   25  O   UNL     1      -5.536  16.729  66.227  1.00  0.00    -0.314 OA 
HETATM   26  C   UNL     1      -7.307  18.362  66.202  1.00  0.00    -0.255 C  
HETATM   27  O   UNL     1      -5.262  19.621  66.836  1.00  0.00    -0.162 OA 
HETATM   28  H   UNL     1      -9.139  17.869  65.629  1.00  0.00     0.000 HD 
HETATM   29  H   UNL     1      -5.150  19.838  65.919  1.00  0.00     0.000 HD 
HETATM   30  O   UNL     1      -8.732  18.510  66.200  1.00  0.00    -0.462 OA 
HETATM   31  C   UNL     1      -6.910  16.953  66.641  1.00  0.00    -0.236 C  
BRANCH  20  32
HETATM   32  C   UNL     1      -7.033  20.383  69.397  1.00  0.00     0.119 C  
HETATM   33  O   UNL     1      -6.006  20.669  70.352  1.00  0.00    -0.514 OA 
HETATM   34  H   UNL     1      -6.134  21.489  70.815  1.00  0.00     0.000 HD 
ENDBRANCH  20  32
ENDBRANCH  13  18
ENDBRANCH  10  11
ENDBRANCH   7  10
ENDBRANCH   3   4
ENDBRANCH   2   3
TORSDOF 6
ENDMDL
MODEL      199
REMARK 921   NORMALIZED FREE ENERGY PREDICTED BY IDOCK:   -4.10 KCAL/MOL
REMARK 922        TOTAL FREE ENERGY PREDICTED BY IDOCK:   -6.67 KCAL/MOL
REMARK 923 INTER-LIGAND FREE ENERGY PREDICTED BY IDOCK:   -5.22 KCAL/MOL
REMARK 924 INTRA-LIGAND FREE ENERGY PREDICTED BY IDOCK:   -1.46 KCAL/MOL
REMARK 927      BINDING AFFINITY PREDICTED BY RF-SCORE:    0.00 PKD
ROOT
HETATM    1  C   UNL     1     -12.004  14.049  69.232  1.00  0.00    -0.396 C  
HETATM    2  C   UNL     1     -12.106  13.807  67.734  1.00  0.00    -0.290 C  
ENDROOT
BRANCH   2   3
HETATM    3  O   UNL     1     -11.019  14.462  67.069  1.00  0.00    -0.292 OA 
BRANCH   3   4
HETATM    4  C   UNL     1      -9.848  13.749  67.026  1.00  0.00    -0.251 A  
HETATM    5  C   UNL     1      -9.968  12.387  66.749  1.00  0.00    -0.234 A  
HETATM    6  C   UNL     1      -8.859  11.538  66.847  1.00  0.00    -0.182 A  
HETATM    7  C   UNL     1      -7.604  12.043  67.230  1.00  0.00    -0.157 A  
HETATM    8  C   UNL     1      -7.470  13.432  67.375  1.00  0.00    -0.134 A  
HETATM    9  C   UNL     1      -8.582  14.279  67.268  1.00  0.00    -0.229 A  
BRANCH   7  10
HETATM   10  C   UNL     1      -6.496  11.104  67.681  1.00  0.00    -0.065 C  
BRANCH  10  11
HETATM   11  C   UNL     1      -6.445  10.638  69.119  1.00  0.00    -0.056 A  
HETATM   12  C   UNL     1      -7.064   9.428  69.459  1.00  0.00    -0.062 A  
HETATM   13  C   UNL     1      -7.076   8.920  70.785  1.00  0.00    -0.078 A  
HETATM   14 CL   UNL     1      -5.137  12.909  69.906  1.00  0.00    -0.082 Cl 
HETATM   15  C   UNL     1      -6.256   9.535  71.730  1.00  0.00     0.126 A  
HETATM   16  C   UNL     1      -5.618  10.738  71.407  1.00  0.00     0.111 A  
HETATM   17  C   UNL     1      -5.770  11.317  70.137  1.00  0.00    -0.120 A  
BRANCH  13  18
HETATM   18  C   UNL     1      -8.189   7.962  71.169  1.00  0.00    -0.107 C  
HETATM   19  C   UNL     1      -8.367   5.916  70.161  1.00  0.00    -0.118 C  
HETATM   20  C   UNL     1      -9.732   6.489  70.470  1.00  0.00    -0.172 C  
HETATM   21  O   UNL     1      -7.509   6.668  71.019  1.00  0.00    -0.081 OA 
HETATM   22  H   UNL     1      -8.040   7.051  74.359  1.00  0.00     0.000 HD 
HETATM   23  O   UNL     1      -9.393   7.899  70.318  1.00  0.00    -0.159 OA 
HETATM   24  C   UNL     1     -10.311   6.310  71.912  1.00  0.00    -0.204 C  
HETATM   25  O   UNL     1      -7.794   7.039  73.441  1.00  0.00    -0.093 OA 
HETATM   26  C   UNL     1     -10.058   7.554  72.801  1.00  0.00    -0.240 C  
HETATM   27  O   UNL     1      -9.830   5.099  72.495  1.00  0.00    -0.155 OA 
HETATM   28  H   UNL     1     -10.777   9.392  72.985  1.00  0.00     0.000 HD 
HETATM   29  H   UNL     1     -10.182   4.990  73.371  1.00  0.00     0.000 HD 
HETATM   30  O   UNL     1     -10.932   8.629  72.440  1.00  0.00    -0.353 OA 
HETATM   31  C   UNL     1      -8.596   7.983  72.682  1.00  0.00    -0.179 C  
BRANCH  20  32
HETATM   32  C   UNL     1     -10.728   5.811  69.501  1.00  0.00    -0.338 C  
HETATM   33  O   UNL     1     -11.877   6.611  69.208  1.00  0.00    -0.629 OA 
HETATM   34  H   UNL     1     -12.489   6.194  68.612  1.00  0.00     0.000 HD 
ENDBRANCH  20  32
ENDBRANCH  13  18
ENDBRANCH  10  11
ENDBRANCH   7  10
ENDBRANCH   3   4
ENDBRANCH   2   3
TORSDOF 6
ENDMDL
MODEL      200
REMARK 921   NORMALIZED FREE ENERGY PREDICTED BY IDOCK:   -4.05 KCAL/MOL
REMARK 922        TOTAL FREE ENERGY PREDICTED BY IDOCK:   -6.61 KCAL/MOL
REMARK 923 INTER-LIGAND FREE ENERGY PREDICTED BY IDOCK:   -5.96 KCAL/MOL
REMARK 924 INTRA-LIGAND FREE ENERGY PREDICTED BY IDOCK:   -0.65 KCAL/MOL
REMARK 927      BINDING AFFINITY PREDICTED BY RF-SCORE:    0.00 PKD
ROOT
HETATM    1  C   UNL     1      -5.706   5.953  67.752  1.00  0.00    -0.012 C  
HETATM    2  C   UNL     1      -5.261   4.976  66.675  1.00  0.00    -0.008 C  
ENDROOT
BRANCH   2   3
HETATM    3  O   UNL     1      -6.368   4.152  66.290  1.00  0.00    -0.031 OA 
BRANCH   3   4
HETATM    4  C   UNL     1      -7.591   4.569  66.751  1.00  0.00    -0.086 A  
HETATM    5  C   UNL     1      -8.272   5.481  65.945  1.00  0.00    -0.121 A  
HETATM    6  C   UNL     1      -9.446   6.097  66.399  1.00  0.00    -0.172 A  
HETATM    7  C   UNL     1      -9.956   5.809  67.677  1.00  0.00    -0.165 A  
HETATM    8  C   UNL     1      -9.336   4.793  68.419  1.00  0.00    -0.177 A  
HETATM    9  C   UNL     1      -8.166   4.173  67.958  1.00  0.00    -0.094 A  
BRANCH   7  10
HETATM   10  C   UNL     1     -11.000   6.711  68.315  1.00  0.00    -0.321 C  
BRANCH  10  11
HETATM   11  C   UNL     1     -10.631   8.122  68.714  1.00  0.00    -0.149 A  
HETATM   12  C   UNL     1     -11.003   9.181  67.875  1.00  0.00    -0.035 A  
HETATM   13  C   UNL     1     -10.688  10.534  68.164  1.00  0.00    -0.273 A  
HETATM   14 CL   UNL     1      -9.291   7.245  70.933  1.00  0.00    -0.159 Cl 
HETATM   15  C   UNL     1     -10.191  10.836  69.431  1.00  0.00    -0.187 A  
HETATM   16  C   UNL     1      -9.825   9.795  70.290  1.00  0.00    -0.296 A  
HETATM   17  C   UNL     1      -9.980   8.453  69.905  1.00  0.00    -0.190 A  
BRANCH  13  18
HETATM   18  C   UNL     1     -10.612  11.510  67.003  1.00  0.00    -0.242 C  
HETATM   19  C   UNL     1      -8.883  13.000  66.843  1.00  0.00    -0.180 C  
HETATM   20  C   UNL     1     -10.170  13.605  66.328  1.00  0.00    -0.296 C  
HETATM   21  O   UNL     1      -9.158  11.599  66.807  1.00  0.00    -0.174 OA 
HETATM   22  H   UNL     1     -10.361   9.978  64.067  1.00  0.00     0.000 HD 
HETATM   23  O   UNL     1     -11.088  12.892  67.207  1.00  0.00    -0.258 OA 
HETATM   24  C   UNL     1     -10.608  13.295  64.859  1.00  0.00    -0.366 C  
HETATM   25  O   UNL     1     -10.048  10.313  64.900  1.00  0.00    -0.334 OA 
HETATM   26  C   UNL     1     -11.627  12.129  64.788  1.00  0.00    -0.321 C  
HETATM   27  O   UNL     1      -9.464  13.090  64.030  1.00  0.00    -0.385 OA 
HETATM   28  H   UNL     1     -13.547  11.838  65.182  1.00  0.00     0.000 HD 
HETATM   29  H   UNL     1      -9.731  12.902  63.138  1.00  0.00     0.000 HD 
HETATM   30  O   UNL     1     -12.923  12.552  65.226  1.00  0.00    -0.588 OA 
HETATM   31  C   UNL     1     -11.127  10.957  65.630  1.00  0.00     0.139 C  
BRANCH  20  32
HETATM   32  C   UNL     1     -10.012  15.139  66.434  1.00  0.00    -0.272 C  
HETATM   33  O   UNL     1     -11.195  15.807  66.881  1.00  0.00    -0.208 OA 
HETATM   34  H   UNL     1     -11.098  16.750  66.946  1.00  0.00     0.000 HD 
ENDBRANCH  20  32
ENDBRANCH  13  18
ENDBRANCH  10  11
ENDBRANCH   7  10
ENDBRANCH   3   4
ENDBRANCH   2   3
TORSDOF 6
ENDMDL
MODEL      201
REMARK 921   NORMALIZED FREE ENERGY PREDICTED BY IDOCK:   -3.96 KCAL/MOL
REMARK 922        TOTAL FREE ENERGY PREDICTED BY IDOCK:   -6.49 KCAL/MOL
REMARK 923 INTER-LIGAND FREE ENERGY PREDICTED BY IDOCK:   -5.07 KCAL/MOL
REMARK 924 INTRA-LIGAND FREE ENERGY PREDICTED BY IDOCK:   -1.43 KCAL/MOL
REMARK 927      BINDING AFFINITY PREDICTED BY RF-SCORE:    0.00 PKD
ROOT
HETATM    1  C   UNL     1     -11.965  13.668  69.585  1.00  0.00    -0.402 C  
HETATM    2  C   UNL     1     -12.020  13.916  68.086  1.00  0.00    -0.350 C  
ENDROOT
BRANCH   2   3
HETATM    3  O   UNL     1     -10.955  14.797  67.708  1.00  0.00    -0.274 OA 
BRANCH   3   4
HETATM    4  C   UNL     1      -9.744  14.189  67.498  1.00  0.00    -0.234 A  
HETATM    5  C   UNL     1      -9.767  13.022  66.735  1.00  0.00    -0.248 A  
HETATM    6  C   UNL     1      -8.616  12.233  66.601  1.00  0.00    -0.099 A  
HETATM    7  C   UNL     1      -7.419  12.602  67.238  1.00  0.00    -0.111 A  
HETATM    8  C   UNL     1      -7.376  13.844  67.890  1.00  0.00    -0.157 A  
HETATM    9  C   UNL     1      -8.528  14.634  68.015  1.00  0.00    -0.154 A  
BRANCH   7  10
HETATM   10  C   UNL     1      -6.287  11.601  67.399  1.00  0.00    -0.100 C  
BRANCH  10  11
HETATM   11  C   UNL     1      -6.501  10.351  68.223  1.00  0.00    -0.059 A  
HETATM   12  C   UNL     1      -6.924   9.181  67.578  1.00  0.00    -0.078 A  
HETATM   13  C   UNL     1      -7.161   7.966  68.273  1.00  0.00    -0.090 A  
HETATM   14 CL   UNL     1      -5.924  11.672  70.549  1.00  0.00    -0.136 Cl 
HETATM   15  C   UNL     1      -6.746   7.879  69.601  1.00  0.00    -0.042 A  
HETATM   16  C   UNL     1      -6.309   9.032  70.262  1.00  0.00    -0.044 A  
HETATM   17  C   UNL     1      -6.255  10.268  69.596  1.00  0.00    -0.056 A  
BRANCH  13  18
HETATM   18  C   UNL     1      -8.115   6.964  67.648  1.00  0.00    -0.113 C  
HETATM   19  C   UNL     1      -9.808   6.040  68.878  1.00  0.00    -0.140 C  
HETATM   20  C   UNL     1      -9.252   5.043  67.886  1.00  0.00    -0.119 C  
HETATM   21  O   UNL     1      -9.364   7.290  68.351  1.00  0.00    -0.143 OA 
HETATM   22  H   UNL     1      -9.842   8.256  65.122  1.00  0.00     0.000 HD 
HETATM   23  O   UNL     1      -7.876   5.525  67.872  1.00  0.00    -0.095 OA 
HETATM   24  C   UNL     1      -9.768   5.088  66.409  1.00  0.00    -0.182 C  
HETATM   25  O   UNL     1      -9.627   8.096  66.034  1.00  0.00    -0.158 OA 
HETATM   26  C   UNL     1      -8.820   5.894  65.485  1.00  0.00    -0.092 C  
HETATM   27  O   UNL     1     -11.118   5.552  66.368  1.00  0.00    -0.681 OA 
HETATM   28  H   UNL     1      -7.055   5.641  64.621  1.00  0.00     0.000 HD 
HETATM   29  H   UNL     1     -11.431   5.579  65.472  1.00  0.00     0.000 HD 
HETATM   30  O   UNL     1      -7.635   5.147  65.188  1.00  0.00    -0.078 OA 
HETATM   31  C   UNL     1      -8.468   7.227  66.144  1.00  0.00    -0.142 C  
BRANCH  20  32
HETATM   32  C   UNL     1      -9.587   3.637  68.434  1.00  0.00    -0.096 C  
HETATM   33  O   UNL     1      -9.662   2.630  67.421  1.00  0.00    -0.392 OA 
HETATM   34  H   UNL     1      -9.868   1.766  67.758  1.00  0.00     0.000 HD 
ENDBRANCH  20  32
ENDBRANCH  13  18
ENDBRANCH  10  11
ENDBRANCH   7  10
ENDBRANCH   3   4
ENDBRANCH   2   3
TORSDOF 6
ENDMDL
MODEL      202
REMARK 921   NORMALIZED FREE ENERGY PREDICTED BY IDOCK:   -3.95 KCAL/MOL
REMARK 922        TOTAL FREE ENERGY PREDICTED BY IDOCK:   -6.47 KCAL/MOL
REMARK 923 INTER-LIGAND FREE ENERGY PREDICTED BY IDOCK:   -5.73 KCAL/MOL
REMARK 924 INTRA-LIGAND FREE ENERGY PREDICTED BY IDOCK:   -0.74 KCAL/MOL
REMARK 927      BINDING AFFINITY PREDICTED BY RF-SCORE:    0.00 PKD
ROOT
HETATM    1  C   UNL     1     -12.072  14.172  63.472  1.00  0.00     0.113 C  
HETATM    2  C   UNL     1     -12.780  13.524  64.651  1.00  0.00    -0.170 C  
ENDROOT
BRANCH   2   3
HETATM    3  O   UNL     1     -12.037  12.377  65.083  1.00  0.00    -0.424 OA 
BRANCH   3   4
HETATM    4  C   UNL     1     -11.781  12.324  66.429  1.00  0.00    -0.365 A  
HETATM    5  C   UNL     1     -11.173  11.158  66.894  1.00  0.00    -0.258 A  
HETATM    6  C   UNL     1     -11.021  10.930  68.268  1.00  0.00    -0.293 A  
HETATM    7  C   UNL     1     -11.482  11.872  69.204  1.00  0.00    -0.356 A  
HETATM    8  C   UNL     1     -11.969  13.096  68.720  1.00  0.00    -0.316 A  
HETATM    9  C   UNL     1     -12.112  13.323  67.344  1.00  0.00    -0.327 A  
BRANCH   7  10
HETATM   10  C   UNL     1     -11.649  11.494  70.666  1.00  0.00     0.051 C  
BRANCH  10  11
HETATM   11  C   UNL     1     -11.792  10.039  71.054  1.00  0.00    -0.476 A  
HETATM   12  C   UNL     1     -10.829   9.123  70.609  1.00  0.00    -0.321 A  
HETATM   13  C   UNL     1     -10.890   7.739  70.914  1.00  0.00    -0.246 A  
HETATM   14 CL   UNL     1     -14.162  10.517  72.335  1.00  0.00     0.529 Cl 
HETATM   15  C   UNL     1     -11.813   7.318  71.871  1.00  0.00    -0.333 A  
HETATM   16  C   UNL     1     -12.776   8.219  72.338  1.00  0.00    -0.287 A  
HETATM   17  C   UNL     1     -12.806   9.546  71.880  1.00  0.00    -0.420 A  
BRANCH  13  18
HETATM   18  C   UNL     1     -10.186   6.773  69.979  1.00  0.00    -0.191 C  
HETATM   19  C   UNL     1     -10.239   4.519  70.372  1.00  0.00    -0.075 C  
HETATM   20  C   UNL     1      -8.912   4.935  69.777  1.00  0.00    -0.099 C  
HETATM   21  O   UNL     1     -11.091   5.615  70.039  1.00  0.00    -0.310 OA 
HETATM   22  H   UNL     1     -11.408   6.873  66.892  1.00  0.00     0.000 HD 
HETATM   23  O   UNL     1      -8.849   6.273  70.352  1.00  0.00    -0.144 OA 
HETATM   24  C   UNL     1      -8.806   5.098  68.224  1.00  0.00    -0.102 C  
HETATM   25  O   UNL     1     -11.392   6.631  67.811  1.00  0.00    -0.227 OA 
HETATM   26  C   UNL     1      -8.984   6.572  67.779  1.00  0.00    -0.114 C  
HETATM   27  O   UNL     1      -9.703   4.203  67.567  1.00  0.00    -0.179 OA 
HETATM   28  H   UNL     1      -7.923   8.245  67.800  1.00  0.00     0.000 HD 
HETATM   29  H   UNL     1      -9.638   4.302  66.625  1.00  0.00     0.000 HD 
HETATM   30  O   UNL     1      -7.813   7.342  68.073  1.00  0.00    -0.114 OA 
HETATM   31  C   UNL     1     -10.212   7.171  68.463  1.00  0.00    -0.175 C  
BRANCH  20  32
HETATM   32  C   UNL     1      -7.884   3.855  70.185  1.00  0.00    -0.048 C  
HETATM   33  O   UNL     1      -8.457   2.763  70.909  1.00  0.00    -0.056 OA 
HETATM   34  H   UNL     1      -7.825   2.099  71.160  1.00  0.00     0.000 HD 
ENDBRANCH  20  32
ENDBRANCH  13  18
ENDBRANCH  10  11
ENDBRANCH   7  10
ENDBRANCH   3   4
ENDBRANCH   2   3
TORSDOF 6
ENDMDL
MODEL      203
REMARK 921   NORMALIZED FREE ENERGY PREDICTED BY IDOCK:   -3.91 KCAL/MOL
REMARK 922        TOTAL FREE ENERGY PREDICTED BY IDOCK:   -6.42 KCAL/MOL
REMARK 923 INTER-LIGAND FREE ENERGY PREDICTED BY IDOCK:   -5.01 KCAL/MOL
REMARK 924 INTRA-LIGAND FREE ENERGY PREDICTED BY IDOCK:   -1.42 KCAL/MOL
REMARK 927      BINDING AFFINITY PREDICTED BY RF-SCORE:    0.00 PKD
ROOT
HETATM    1  C   UNL     1      -6.705   7.865  63.000  1.00  0.00    -0.080 C  
HETATM    2  C   UNL     1      -7.908   8.676  62.543  1.00  0.00    -0.138 C  
ENDROOT
BRANCH   2   3
HETATM    3  O   UNL     1      -7.805  10.011  63.052  1.00  0.00    -0.133 OA 
BRANCH   3   4
HETATM    4  C   UNL     1      -8.038  10.139  64.398  1.00  0.00    -0.163 A  
HETATM    5  C   UNL     1      -9.353   9.936  64.816  1.00  0.00    -0.339 A  
HETATM    6  C   UNL     1      -9.732  10.206  66.138  1.00  0.00    -0.275 A  
HETATM    7  C   UNL     1      -8.794  10.690  67.065  1.00  0.00    -0.141 A  
HETATM    8  C   UNL     1      -7.451  10.762  66.666  1.00  0.00    -0.135 A  
HETATM    9  C   UNL     1      -7.074  10.483  65.345  1.00  0.00    -0.072 A  
BRANCH   7  10
HETATM   10  C   UNL     1      -9.250  11.316  68.374  1.00  0.00    -0.178 C  
BRANCH  10  11
HETATM   11  C   UNL     1      -9.984  10.475  69.393  1.00  0.00    -0.220 A  
HETATM   12  C   UNL     1      -9.261   9.535  70.140  1.00  0.00    -0.281 A  
HETATM   13  C   UNL     1      -9.870   8.695  71.109  1.00  0.00    -0.285 A  
HETATM   14 CL   UNL     1     -12.393  11.577  68.707  1.00  0.00    -0.053 Cl 
HETATM   15  C   UNL     1     -11.184   8.971  71.484  1.00  0.00    -0.418 A  
HETATM   16  C   UNL     1     -11.921   9.914  70.759  1.00  0.00    -0.410 A  
HETATM   17  C   UNL     1     -11.345  10.606  69.681  1.00  0.00    -0.294 A  
BRANCH  13  18
HETATM   18  C   UNL     1      -9.184   7.383  71.443  1.00  0.00    -0.141 C  
HETATM   19  C   UNL     1      -7.495   7.310  72.985  1.00  0.00    -0.072 C  
HETATM   20  C   UNL     1      -7.251   6.321  71.867  1.00  0.00    -0.087 C  
HETATM   21  O   UNL     1      -8.893   7.575  72.871  1.00  0.00    -0.125 OA 
HETATM   22  H   UNL     1     -11.273   5.146  72.733  1.00  0.00     0.000 HD 
HETATM   23  O   UNL     1      -7.894   7.073  70.796  1.00  0.00    -0.094 OA 
HETATM   24  C   UNL     1      -7.955   4.926  71.934  1.00  0.00    -0.109 C  
HETATM   25  O   UNL     1     -10.709   5.912  72.740  1.00  0.00    -0.212 OA 
HETATM   26  C   UNL     1      -9.264   4.893  71.105  1.00  0.00    -0.145 C  
HETATM   27  O   UNL     1      -8.143   4.527  73.291  1.00  0.00    -0.094 OA 
HETATM   28  H   UNL     1      -9.785   4.811  69.194  1.00  0.00     0.000 HD 
HETATM   29  H   UNL     1      -8.570   3.680  73.332  1.00  0.00     0.000 HD 
HETATM   30  O   UNL     1      -8.982   4.831  69.702  1.00  0.00    -0.087 OA 
HETATM   31  C   UNL     1     -10.112   6.120  71.432  1.00  0.00    -0.194 C  
BRANCH  20  32
HETATM   32  C   UNL     1      -5.729   6.053  71.834  1.00  0.00    -0.031 C  
HETATM   33  O   UNL     1      -5.392   4.664  71.796  1.00  0.00    -0.004 OA 
HETATM   34  H   UNL     1      -4.457   4.499  71.777  1.00  0.00     0.000 HD 
ENDBRANCH  20  32
ENDBRANCH  13  18
ENDBRANCH  10  11
ENDBRANCH   7  10
ENDBRANCH   3   4
ENDBRANCH   2   3
TORSDOF 6
ENDMDL
MODEL      204
REMARK 921   NORMALIZED FREE ENERGY PREDICTED BY IDOCK:   -3.87 KCAL/MOL
REMARK 922        TOTAL FREE ENERGY PREDICTED BY IDOCK:   -6.37 KCAL/MOL
REMARK 923 INTER-LIGAND FREE ENERGY PREDICTED BY IDOCK:   -5.94 KCAL/MOL
REMARK 924 INTRA-LIGAND FREE ENERGY PREDICTED BY IDOCK:   -0.43 KCAL/MOL
REMARK 927      BINDING AFFINITY PREDICTED BY RF-SCORE:    0.00 PKD
ROOT
HETATM    1  C   UNL     1      -7.663   6.320  72.217  1.00  0.00    -0.103 C  
HETATM    2  C   UNL     1      -7.720   4.816  72.434  1.00  0.00    -0.091 C  
ENDROOT
BRANCH   2   3
HETATM    3  O   UNL     1      -8.984   4.464  73.011  1.00  0.00    -0.115 OA 
BRANCH   3   4
HETATM    4  C   UNL     1      -9.912   5.473  73.039  1.00  0.00    -0.176 A  
HETATM    5  C   UNL     1     -10.987   5.343  72.162  1.00  0.00    -0.265 A  
HETATM    6  C   UNL     1     -11.900   6.393  71.990  1.00  0.00    -0.382 A  
HETATM    7  C   UNL     1     -11.744   7.598  72.697  1.00  0.00    -0.323 A  
HETATM    8  C   UNL     1     -10.737   7.663  73.672  1.00  0.00    -0.010 A  
HETATM    9  C   UNL     1      -9.831   6.607  73.846  1.00  0.00    -0.292 A  
BRANCH   7  10
HETATM   10  C   UNL     1     -12.493   8.849  72.268  1.00  0.00    -0.440 C  
BRANCH  10  11
HETATM   11  C   UNL     1     -11.977   9.676  71.112  1.00  0.00    -0.452 A  
HETATM   12  C   UNL     1     -11.282   9.033  70.079  1.00  0.00    -0.141 A  
HETATM   13  C   UNL     1     -10.752   9.730  68.963  1.00  0.00    -0.238 A  
HETATM   14 CL   UNL     1     -12.855  12.000  72.259  1.00  0.00    -0.126 Cl 
HETATM   15  C   UNL     1     -11.130  11.060  68.780  1.00  0.00    -0.293 A  
HETATM   16  C   UNL     1     -11.835  11.718  69.793  1.00  0.00    -0.420 A  
HETATM   17  C   UNL     1     -12.192  11.050  70.975  1.00  0.00    -0.351 A  
BRANCH  13  18
HETATM   18  C   UNL     1      -9.584   9.104  68.223  1.00  0.00    -0.148 C  
HETATM   19  C   UNL     1      -8.739  10.083  66.335  1.00  0.00    -0.129 C  
HETATM   20  C   UNL     1      -8.675   8.575  66.239  1.00  0.00    -0.142 C  
HETATM   21  O   UNL     1      -8.885  10.303  67.738  1.00  0.00    -0.125 OA 
HETATM   22  H   UNL     1      -6.842   8.930  70.089  1.00  0.00     0.000 HD 
HETATM   23  O   UNL     1      -9.861   8.276  67.033  1.00  0.00    -0.187 OA 
HETATM   24  C   UNL     1      -7.474   7.832  66.913  1.00  0.00    -0.094 C  
HETATM   25  O   UNL     1      -7.491   9.353  69.538  1.00  0.00    -0.073 OA 
HETATM   26  C   UNL     1      -7.834   7.301  68.324  1.00  0.00    -0.122 C  
HETATM   27  O   UNL     1      -6.310   8.658  66.905  1.00  0.00    -0.058 OA 
HETATM   28  H   UNL     1      -8.894   5.820  69.104  1.00  0.00     0.000 HD 
HETATM   29  H   UNL     1      -5.581   8.206  67.314  1.00  0.00     0.000 HD 
HETATM   30  O   UNL     1      -8.674   6.145  68.239  1.00  0.00    -0.115 OA 
HETATM   31  C   UNL     1      -8.514   8.406  69.131  1.00  0.00    -0.123 C  
BRANCH  20  32
HETATM   32  C   UNL     1      -8.629   8.227  64.734  1.00  0.00    -0.020 C  
HETATM   33  O   UNL     1      -9.013   9.311  63.883  1.00  0.00    -0.384 OA 
HETATM   34  H   UNL     1      -8.985   9.097  62.958  1.00  0.00     0.000 HD 
ENDBRANCH  20  32
ENDBRANCH  13  18
ENDBRANCH  10  11
ENDBRANCH   7  10
ENDBRANCH   3   4
ENDBRANCH   2   3
TORSDOF 6
ENDMDL
MODEL      205
REMARK 921   NORMALIZED FREE ENERGY PREDICTED BY IDOCK:   -3.86 KCAL/MOL
REMARK 922        TOTAL FREE ENERGY PREDICTED BY IDOCK:   -6.36 KCAL/MOL
REMARK 923 INTER-LIGAND FREE ENERGY PREDICTED BY IDOCK:   -5.41 KCAL/MOL
REMARK 924 INTRA-LIGAND FREE ENERGY PREDICTED BY IDOCK:   -0.94 KCAL/MOL
REMARK 927      BINDING AFFINITY PREDICTED BY RF-SCORE:    0.00 PKD
ROOT
HETATM    1  C   UNL     1      -8.079  20.014  67.124  1.00  0.00    -0.357 C  
HETATM    2  C   UNL     1      -8.742  18.672  66.860  1.00  0.00    -0.286 C  
ENDROOT
BRANCH   2   3
HETATM    3  O   UNL     1      -9.137  18.081  68.105  1.00  0.00    -0.262 OA 
BRANCH   3   4
HETATM    4  C   UNL     1      -9.561  16.779  68.022  1.00  0.00    -0.234 A  
HETATM    5  C   UNL     1      -8.760  15.830  68.657  1.00  0.00    -0.195 A  
HETATM    6  C   UNL     1      -9.008  14.461  68.493  1.00  0.00    -0.187 A  
HETATM    7  C   UNL     1     -10.067  14.019  67.681  1.00  0.00    -0.241 A  
HETATM    8  C   UNL     1     -10.942  14.983  67.158  1.00  0.00    -0.329 A  
HETATM    9  C   UNL     1     -10.695  16.353  67.332  1.00  0.00    -0.278 A  
BRANCH   7  10
HETATM   10  C   UNL     1     -10.132  12.575  67.212  1.00  0.00    -0.216 C  
BRANCH  10  11
HETATM   11  C   UNL     1     -10.092  11.453  68.224  1.00  0.00    -0.204 A  
HETATM   12  C   UNL     1      -9.120  10.452  68.086  1.00  0.00    -0.142 A  
HETATM   13  C   UNL     1      -9.016   9.356  68.981  1.00  0.00    -0.141 A  
HETATM   14 CL   UNL     1     -12.301  12.416  69.520  1.00  0.00    -0.098 Cl 
HETATM   15  C   UNL     1      -9.761   9.398  70.159  1.00  0.00    -0.274 A  
HETATM   16  C   UNL     1     -10.728  10.396  70.324  1.00  0.00    -0.249 A  
HETATM   17  C   UNL     1     -10.937  11.369  69.334  1.00  0.00    -0.205 A  
BRANCH  13  18
HETATM   18  C   UNL     1      -8.362   8.084  68.474  1.00  0.00    -0.127 C  
HETATM   19  C   UNL     1      -7.981   7.778  66.239  1.00  0.00    -0.100 C  
HETATM   20  C   UNL     1      -8.336   6.471  66.912  1.00  0.00    -0.113 C  
HETATM   21  O   UNL     1      -7.588   8.601  67.337  1.00  0.00    -0.092 OA 
HETATM   22  H   UNL     1      -5.291   7.668  69.669  1.00  0.00     0.000 HD 
HETATM   23  O   UNL     1      -9.221   7.011  67.937  1.00  0.00    -0.127 OA 
HETATM   24  C   UNL     1      -7.208   5.680  67.652  1.00  0.00    -0.076 C  
HETATM   25  O   UNL     1      -5.958   8.036  69.100  1.00  0.00    -0.036 OA 
HETATM   26  C   UNL     1      -7.194   5.970  69.175  1.00  0.00    -0.082 C  
HETATM   27  O   UNL     1      -5.945   5.911  67.028  1.00  0.00    -0.017 OA 
HETATM   28  H   UNL     1      -8.269   5.481  70.767  1.00  0.00     0.000 HD 
HETATM   29  H   UNL     1      -5.260   5.430  67.477  1.00  0.00     0.000 HD 
HETATM   30  O   UNL     1      -8.277   5.303  69.834  1.00  0.00    -0.091 OA 
HETATM   31  C   UNL     1      -7.262   7.478  69.412  1.00  0.00    -0.082 C  
BRANCH  20  32
HETATM   32  C   UNL     1      -8.887   5.538  65.809  1.00  0.00    -0.153 C  
HETATM   33  O   UNL     1     -10.315   5.473  65.774  1.00  0.00    -0.418 OA 
HETATM   34  H   UNL     1     -10.654   4.900  65.097  1.00  0.00     0.000 HD 
ENDBRANCH  20  32
ENDBRANCH  13  18
ENDBRANCH  10  11
ENDBRANCH   7  10
ENDBRANCH   3   4
ENDBRANCH   2   3
TORSDOF 6
ENDMDL
MODEL      206
REMARK 921   NORMALIZED FREE ENERGY PREDICTED BY IDOCK:   -3.80 KCAL/MOL
REMARK 922        TOTAL FREE ENERGY PREDICTED BY IDOCK:   -6.27 KCAL/MOL
REMARK 923 INTER-LIGAND FREE ENERGY PREDICTED BY IDOCK:   -4.72 KCAL/MOL
REMARK 924 INTRA-LIGAND FREE ENERGY PREDICTED BY IDOCK:   -1.55 KCAL/MOL
REMARK 927      BINDING AFFINITY PREDICTED BY RF-SCORE:    0.00 PKD
ROOT
HETATM    1  C   UNL     1     -11.728  14.649  71.382  1.00  0.00    -0.298 C  
HETATM    2  C   UNL     1     -11.701  14.213  69.925  1.00  0.00    -0.309 C  
ENDROOT
BRANCH   2   3
HETATM    3  O   UNL     1     -10.395  14.445  69.382  1.00  0.00    -0.158 OA 
BRANCH   3   4
HETATM    4  C   UNL     1     -10.010  13.568  68.400  1.00  0.00    -0.232 A  
HETATM    5  C   UNL     1     -11.035  13.015  67.633  1.00  0.00    -0.277 A  
HETATM    6  C   UNL     1     -10.770  11.986  66.720  1.00  0.00    -0.280 A  
HETATM    7  C   UNL     1      -9.464  11.490  66.563  1.00  0.00    -0.220 A  
HETATM    8  C   UNL     1      -8.425  12.144  67.242  1.00  0.00    -0.178 A  
HETATM    9  C   UNL     1      -8.695  13.179  68.149  1.00  0.00    -0.193 A  
BRANCH   7  10
HETATM   10  C   UNL     1      -9.219  10.164  65.861  1.00  0.00    -0.203 C  
BRANCH  10  11
HETATM   11  C   UNL     1      -8.507   9.047  66.590  1.00  0.00    -0.126 A  
HETATM   12  C   UNL     1      -8.944   8.693  67.874  1.00  0.00    -0.142 A  
HETATM   13  C   UNL     1      -8.328   7.667  68.636  1.00  0.00    -0.129 A  
HETATM   14 CL   UNL     1      -6.695   8.750  64.562  1.00  0.00    -0.070 Cl 
HETATM   15  C   UNL     1      -7.406   6.838  67.998  1.00  0.00    -0.097 A  
HETATM   16  C   UNL     1      -6.965   7.166  66.711  1.00  0.00    -0.073 A  
HETATM   17  C   UNL     1      -7.461   8.298  66.045  1.00  0.00    -0.077 A  
BRANCH  13  18
HETATM   18  C   UNL     1      -8.464   7.724  70.147  1.00  0.00    -0.134 C  
HETATM   19  C   UNL     1      -6.636   7.449  71.495  1.00  0.00    -0.049 C  
HETATM   20  C   UNL     1      -7.872   6.848  72.128  1.00  0.00    -0.094 C  
HETATM   21  O   UNL     1      -7.182   8.338  70.521  1.00  0.00    -0.043 OA 
HETATM   22  H   UNL     1      -9.560  10.672  71.215  1.00  0.00     0.000 HD 
HETATM   23  O   UNL     1      -8.552   6.457  70.899  1.00  0.00    -0.133 OA 
HETATM   24  C   UNL     1      -8.845   7.789  72.911  1.00  0.00    -0.178 C  
HETATM   25  O   UNL     1      -8.918  10.051  70.890  1.00  0.00     0.175 OA 
HETATM   26  C   UNL     1     -10.038   8.253  72.036  1.00  0.00    -0.261 C  
HETATM   27  O   UNL     1      -8.126   8.874  73.496  1.00  0.00    -0.347 OA 
HETATM   28  H   UNL     1     -11.719   7.480  71.325  1.00  0.00     0.000 HD 
HETATM   29  H   UNL     1      -8.717   9.445  73.972  1.00  0.00     0.000 HD 
HETATM   30  O   UNL     1     -10.988   7.196  71.861  1.00  0.00    -0.225 OA 
HETATM   31  C   UNL     1      -9.523   8.747  70.685  1.00  0.00    -0.197 C  
BRANCH  20  32
HETATM   32  C   UNL     1      -7.382   5.777  73.130  1.00  0.00    -0.095 C  
HETATM   33  O   UNL     1      -6.786   6.325  74.309  1.00  0.00    -0.077 OA 
HETATM   34  H   UNL     1      -6.485   5.667  74.924  1.00  0.00     0.000 HD 
ENDBRANCH  20  32
ENDBRANCH  13  18
ENDBRANCH  10  11
ENDBRANCH   7  10
ENDBRANCH   3   4
ENDBRANCH   2   3
TORSDOF 6
ENDMDL
MODEL      207
REMARK 921   NORMALIZED FREE ENERGY PREDICTED BY IDOCK:   -3.80 KCAL/MOL
REMARK 922        TOTAL FREE ENERGY PREDICTED BY IDOCK:   -6.27 KCAL/MOL
REMARK 923 INTER-LIGAND FREE ENERGY PREDICTED BY IDOCK:   -5.85 KCAL/MOL
REMARK 924 INTRA-LIGAND FREE ENERGY PREDICTED BY IDOCK:   -0.42 KCAL/MOL
REMARK 927      BINDING AFFINITY PREDICTED BY RF-SCORE:    0.00 PKD
ROOT
HETATM    1  C   UNL     1      -7.075  19.612  69.844  1.00  0.00    -0.037 C  
HETATM    2  C   UNL     1      -5.633  19.131  69.874  1.00  0.00    -0.225 C  
ENDROOT
BRANCH   2   3
HETATM    3  O   UNL     1      -5.596  17.752  70.262  1.00  0.00    -0.242 OA 
BRANCH   3   4
HETATM    4  C   UNL     1      -6.207  16.887  69.390  1.00  0.00    -0.226 A  
HETATM    5  C   UNL     1      -6.435  17.370  68.102  1.00  0.00    -0.168 A  
HETATM    6  C   UNL     1      -7.199  16.634  67.187  1.00  0.00    -0.219 A  
HETATM    7  C   UNL     1      -7.753  15.395  67.553  1.00  0.00    -0.205 A  
HETATM    8  C   UNL     1      -7.406  14.862  68.803  1.00  0.00    -0.127 A  
HETATM    9  C   UNL     1      -6.634  15.599  69.713  1.00  0.00    -0.160 A  
BRANCH   7  10
HETATM   10  C   UNL     1      -8.857  14.764  66.719  1.00  0.00    -0.281 C  
BRANCH  10  11
HETATM   11  C   UNL     1      -9.642  13.597  67.272  1.00  0.00    -0.238 A  
HETATM   12  C   UNL     1      -9.053  12.325  67.270  1.00  0.00    -0.184 A  
HETATM   13  C   UNL     1      -9.721  11.171  67.757  1.00  0.00    -0.183 A  
HETATM   14 CL   UNL     1     -11.836  15.167  67.729  1.00  0.00    -0.261 Cl 
HETATM   15  C   UNL     1     -10.910  11.350  68.462  1.00  0.00    -0.251 A  
HETATM   16  C   UNL     1     -11.509  12.614  68.487  1.00  0.00    -0.349 A  
HETATM   17  C   UNL     1     -10.915  13.708  67.839  1.00  0.00    -0.259 A  
BRANCH  13  18
HETATM   18  C   UNL     1      -9.283   9.818  67.224  1.00  0.00    -0.134 C  
HETATM   19  C   UNL     1      -7.458   9.639  65.855  1.00  0.00    -0.099 C  
HETATM   20  C   UNL     1      -8.526   8.639  65.470  1.00  0.00    -0.165 C  
HETATM   21  O   UNL     1      -7.823   9.991  67.190  1.00  0.00    -0.098 OA 
HETATM   22  H   UNL     1      -8.426   7.714  69.647  1.00  0.00     0.000 HD 
HETATM   23  O   UNL     1      -9.686   9.430  65.859  1.00  0.00    -0.253 OA 
HETATM   24  C   UNL     1      -8.606   7.290  66.258  1.00  0.00    -0.142 C  
HETATM   25  O   UNL     1      -8.306   8.443  69.049  1.00  0.00    -0.117 OA 
HETATM   26  C   UNL     1      -9.662   7.339  67.392  1.00  0.00    -0.150 C  
HETATM   27  O   UNL     1      -7.311   6.902  66.716  1.00  0.00    -0.074 OA 
HETATM   28  H   UNL     1     -11.636   7.291  67.557  1.00  0.00     0.000 HD 
HETATM   29  H   UNL     1      -7.360   6.083  67.194  1.00  0.00     0.000 HD 
HETATM   30  O   UNL     1     -10.990   7.261  66.861  1.00  0.00    -0.343 OA 
HETATM   31  C   UNL     1      -9.480   8.616  68.210  1.00  0.00    -0.141 C  
BRANCH  20  32
HETATM   32  C   UNL     1      -8.282   8.277  63.988  1.00  0.00    -0.096 C  
HETATM   33  O   UNL     1      -9.145   8.968  63.080  1.00  0.00    -0.421 OA 
HETATM   34  H   UNL     1      -8.995   8.745  62.168  1.00  0.00     0.000 HD 
ENDBRANCH  20  32
ENDBRANCH  13  18
ENDBRANCH  10  11
ENDBRANCH   7  10
ENDBRANCH   3   4
ENDBRANCH   2   3
TORSDOF 6
ENDMDL
MODEL      208
REMARK 921   NORMALIZED FREE ENERGY PREDICTED BY IDOCK:   -3.78 KCAL/MOL
REMARK 922        TOTAL FREE ENERGY PREDICTED BY IDOCK:   -6.24 KCAL/MOL
REMARK 923 INTER-LIGAND FREE ENERGY PREDICTED BY IDOCK:   -5.11 KCAL/MOL
REMARK 924 INTRA-LIGAND FREE ENERGY PREDICTED BY IDOCK:   -1.13 KCAL/MOL
REMARK 927      BINDING AFFINITY PREDICTED BY RF-SCORE:    0.00 PKD
ROOT
HETATM    1  C   UNL     1      -7.036  10.178  62.398  1.00  0.00    -0.131 C  
HETATM    2  C   UNL     1      -5.908  10.375  63.399  1.00  0.00    -0.139 C  
ENDROOT
BRANCH   2   3
HETATM    3  O   UNL     1      -6.457  10.518  64.715  1.00  0.00    -0.091 OA 
BRANCH   3   4
HETATM    4  C   UNL     1      -7.107   9.410  65.197  1.00  0.00    -0.100 A  
HETATM    5  C   UNL     1      -6.338   8.254  65.323  1.00  0.00    -0.048 A  
HETATM    6  C   UNL     1      -6.937   7.029  65.645  1.00  0.00    -0.056 A  
HETATM    7  C   UNL     1      -8.326   6.943  65.843  1.00  0.00    -0.137 A  
HETATM    8  C   UNL     1      -9.065   8.136  65.845  1.00  0.00    -0.183 A  
HETATM    9  C   UNL     1      -8.460   9.361  65.530  1.00  0.00    -0.153 A  
BRANCH   7  10
HETATM   10  C   UNL     1      -9.028   5.594  65.838  1.00  0.00    -0.160 C  
BRANCH  10  11
HETATM   11  C   UNL     1      -9.167   4.815  67.126  1.00  0.00    -0.136 A  
HETATM   12  C   UNL     1      -9.833   5.410  68.206  1.00  0.00    -0.196 A  
HETATM   13  C   UNL     1     -10.000   4.757  69.456  1.00  0.00    -0.287 A  
HETATM   14 CL   UNL     1      -7.710   2.725  66.129  1.00  0.00    -0.076 Cl 
HETATM   15  C   UNL     1      -9.688   3.401  69.535  1.00  0.00    -0.033 A  
HETATM   16  C   UNL     1      -9.034   2.784  68.463  1.00  0.00    -0.193 A  
HETATM   17  C   UNL     1      -8.716   3.504  67.300  1.00  0.00    -0.118 A  
BRANCH  13  18
HETATM   18  C   UNL     1     -10.202   5.622  70.687  1.00  0.00    -0.227 C  
HETATM   19  C   UNL     1      -8.789   5.449  72.478  1.00  0.00    -0.130 C  
HETATM   20  C   UNL     1     -10.204   5.737  72.930  1.00  0.00    -0.190 C  
HETATM   21  O   UNL     1      -8.810   5.842  71.106  1.00  0.00    -0.134 OA 
HETATM   22  H   UNL     1      -9.938   8.865  70.023  1.00  0.00     0.000 HD 
HETATM   23  O   UNL     1     -10.899   5.042  71.852  1.00  0.00    -0.161 OA 
HETATM   24  C   UNL     1     -10.707   7.218  72.920  1.00  0.00    -0.322 C  
HETATM   25  O   UNL     1      -9.620   7.986  70.193  1.00  0.00    -0.173 OA 
HETATM   26  C   UNL     1     -11.502   7.555  71.633  1.00  0.00    -0.261 C  
HETATM   27  O   UNL     1      -9.622   8.114  73.158  1.00  0.00    -0.271 OA 
HETATM   28  H   UNL     1     -13.296   7.179  70.881  1.00  0.00     0.000 HD 
HETATM   29  H   UNL     1      -9.927   9.013  73.152  1.00  0.00     0.000 HD 
HETATM   30  O   UNL     1     -12.809   6.972  71.669  1.00  0.00    -0.366 OA 
HETATM   31  C   UNL     1     -10.728   7.071  70.408  1.00  0.00    -0.234 C  
BRANCH  20  32
HETATM   32  C   UNL     1     -10.315   5.236  74.388  1.00  0.00    -0.272 C  
HETATM   33  O   UNL     1     -10.009   3.847  74.542  1.00  0.00    -0.133 OA 
HETATM   34  H   UNL     1     -10.078   3.539  75.438  1.00  0.00     0.000 HD 
ENDBRANCH  20  32
ENDBRANCH  13  18
ENDBRANCH  10  11
ENDBRANCH   7  10
ENDBRANCH   3   4
ENDBRANCH   2   3
TORSDOF 6
ENDMDL
MODEL      209
REMARK 921   NORMALIZED FREE ENERGY PREDICTED BY IDOCK:   -3.75 KCAL/MOL
REMARK 922        TOTAL FREE ENERGY PREDICTED BY IDOCK:   -6.20 KCAL/MOL
REMARK 923 INTER-LIGAND FREE ENERGY PREDICTED BY IDOCK:   -5.33 KCAL/MOL
REMARK 924 INTRA-LIGAND FREE ENERGY PREDICTED BY IDOCK:   -0.87 KCAL/MOL
REMARK 927      BINDING AFFINITY PREDICTED BY RF-SCORE:    0.00 PKD
ROOT
HETATM    1  C   UNL     1     -12.373  14.708  71.843  1.00  0.00    -0.410 C  
HETATM    2  C   UNL     1     -13.540  13.868  71.348  1.00  0.00    -0.215 C  
ENDROOT
BRANCH   2   3
HETATM    3  O   UNL     1     -13.266  12.481  71.589  1.00  0.00    -0.399 OA 
BRANCH   3   4
HETATM    4  C   UNL     1     -12.354  11.912  70.737  1.00  0.00    -0.320 A  
HETATM    5  C   UNL     1     -11.864  10.661  71.108  1.00  0.00    -0.339 A  
HETATM    6  C   UNL     1     -10.809  10.069  70.401  1.00  0.00    -0.380 A  
HETATM    7  C   UNL     1     -10.224  10.728  69.306  1.00  0.00    -0.217 A  
HETATM    8  C   UNL     1     -10.815  11.921  68.864  1.00  0.00    -0.261 A  
HETATM    9  C   UNL     1     -11.875  12.506  69.570  1.00  0.00    -0.375 A  
BRANCH   7  10
HETATM   10  C   UNL     1      -8.877  10.279  68.762  1.00  0.00    -0.148 C  
BRANCH  10  11
HETATM   11  C   UNL     1      -8.814   9.186  67.720  1.00  0.00    -0.125 A  
HETATM   12  C   UNL     1      -8.936   7.852  68.132  1.00  0.00    -0.131 A  
HETATM   13  C   UNL     1      -8.877   6.761  67.225  1.00  0.00    -0.118 A  
HETATM   14 CL   UNL     1      -8.333  10.989  65.719  1.00  0.00    -0.135 Cl 
HETATM   15  C   UNL     1      -8.922   7.040  65.860  1.00  0.00    -0.092 A  
HETATM   16  C   UNL     1      -8.813   8.366  65.426  1.00  0.00    -0.146 A  
HETATM   17  C   UNL     1      -8.690   9.419  66.347  1.00  0.00    -0.135 A  
BRANCH  13  18
HETATM   18  C   UNL     1      -8.458   5.407  67.769  1.00  0.00    -0.105 C  
HETATM   19  C   UNL     1      -7.351   3.908  66.441  1.00  0.00    -0.076 C  
HETATM   20  C   UNL     1      -8.283   3.200  67.398  1.00  0.00    -0.082 C  
HETATM   21  O   UNL     1      -7.197   5.193  67.045  1.00  0.00    -0.078 OA 
HETATM   22  H   UNL     1      -6.323   5.657  70.301  1.00  0.00     0.000 HD 
HETATM   23  O   UNL     1      -9.306   4.235  67.480  1.00  0.00    -0.140 OA 
HETATM   24  C   UNL     1      -7.791   2.926  68.858  1.00  0.00    -0.046 C  
HETATM   25  O   UNL     1      -6.592   5.662  69.390  1.00  0.00    -0.049 OA 
HETATM   26  C   UNL     1      -8.282   4.009  69.852  1.00  0.00    -0.057 C  
HETATM   27  O   UNL     1      -6.375   2.746  68.881  1.00  0.00    -0.028 OA 
HETATM   28  H   UNL     1      -9.974   4.506  70.757  1.00  0.00     0.000 HD 
HETATM   29  H   UNL     1      -6.077   2.580  69.767  1.00  0.00     0.000 HD 
HETATM   30  O   UNL     1      -9.673   3.842  70.148  1.00  0.00    -0.196 OA 
HETATM   31  C   UNL     1      -8.015   5.398  69.272  1.00  0.00    -0.093 C  
BRANCH  20  32
HETATM   32  C   UNL     1      -8.605   1.825  66.769  1.00  0.00    -0.106 C  
HETATM   33  O   UNL     1      -9.468   1.902  65.632  1.00  0.00    -0.329 OA 
HETATM   34  H   UNL     1      -9.666   1.057  65.246  1.00  0.00     0.000 HD 
ENDBRANCH  20  32
ENDBRANCH  13  18
ENDBRANCH  10  11
ENDBRANCH   7  10
ENDBRANCH   3   4
ENDBRANCH   2   3
TORSDOF 6
ENDMDL
MODEL      210
REMARK 921   NORMALIZED FREE ENERGY PREDICTED BY IDOCK:   -3.73 KCAL/MOL
REMARK 922        TOTAL FREE ENERGY PREDICTED BY IDOCK:   -6.18 KCAL/MOL
REMARK 923 INTER-LIGAND FREE ENERGY PREDICTED BY IDOCK:   -5.37 KCAL/MOL
REMARK 924 INTRA-LIGAND FREE ENERGY PREDICTED BY IDOCK:   -0.81 KCAL/MOL
REMARK 927      BINDING AFFINITY PREDICTED BY RF-SCORE:    0.00 PKD
ROOT
HETATM    1  C   UNL     1     -10.729  19.530  65.918  1.00  0.00    -0.518 C  
HETATM    2  C   UNL     1      -9.740  18.896  66.885  1.00  0.00    -0.318 C  
ENDROOT
BRANCH   2   3
HETATM    3  O   UNL     1     -10.427  17.963  67.728  1.00  0.00    -0.371 OA 
BRANCH   3   4
HETATM    4  C   UNL     1      -9.830  16.734  67.843  1.00  0.00    -0.257 A  
HETATM    5  C   UNL     1      -8.793  16.469  66.949  1.00  0.00    -0.233 A  
HETATM    6  C   UNL     1      -8.229  15.189  66.868  1.00  0.00    -0.234 A  
HETATM    7  C   UNL     1      -8.702  14.147  67.684  1.00  0.00    -0.187 A  
HETATM    8  C   UNL     1      -9.652  14.461  68.668  1.00  0.00    -0.208 A  
HETATM    9  C   UNL     1     -10.207  15.746  68.751  1.00  0.00    -0.217 A  
BRANCH   7  10
HETATM   10  C   UNL     1      -8.361  12.700  67.368  1.00  0.00    -0.184 C  
BRANCH  10  11
HETATM   11  C   UNL     1      -7.664  11.848  68.405  1.00  0.00    -0.131 A  
HETATM   12  C   UNL     1      -8.083  10.522  68.582  1.00  0.00    -0.127 A  
HETATM   13  C   UNL     1      -7.495   9.655  69.540  1.00  0.00    -0.096 A  
HETATM   14 CL   UNL     1      -6.093  13.940  69.205  1.00  0.00    -0.091 Cl 
HETATM   15  C   UNL     1      -6.319  10.068  70.165  1.00  0.00    -0.093 A  
HETATM   16  C   UNL     1      -5.876  11.384  69.992  1.00  0.00    -0.126 A  
HETATM   17  C   UNL     1      -6.582  12.282  69.176  1.00  0.00    -0.105 A  
BRANCH  13  18
HETATM   18  C   UNL     1      -8.328   8.494  70.052  1.00  0.00    -0.123 C  
HETATM   19  C   UNL     1      -7.330   6.699  71.061  1.00  0.00    -0.079 C  
HETATM   20  C   UNL     1      -8.534   6.267  70.253  1.00  0.00    -0.134 C  
HETATM   21  O   UNL     1      -7.555   8.097  71.238  1.00  0.00    -0.071 OA 
HETATM   22  H   UNL     1     -10.463   9.408  72.426  1.00  0.00     0.000 HD 
HETATM   23  O   UNL     1      -8.449   7.285  69.214  1.00  0.00    -0.131 OA 
HETATM   24  C   UNL     1      -9.953   6.390  70.900  1.00  0.00    -0.185 C  
HETATM   25  O   UNL     1      -9.616   9.171  72.066  1.00  0.00    -0.300 OA 
HETATM   26  C   UNL     1     -10.673   7.696  70.482  1.00  0.00    -0.236 C  
HETATM   27  O   UNL     1      -9.871   6.225  72.316  1.00  0.00    -0.163 OA 
HETATM   28  H   UNL     1     -11.591   8.412  68.877  1.00  0.00     0.000 HD 
HETATM   29  H   UNL     1     -10.732   6.300  72.708  1.00  0.00     0.000 HD 
HETATM   30  O   UNL     1     -11.149   7.611  69.133  1.00  0.00    -0.047 OA 
HETATM   31  C   UNL     1      -9.725   8.883  70.646  1.00  0.00    -0.212 C  
BRANCH  20  32
HETATM   32  C   UNL     1      -8.326   4.774  69.910  1.00  0.00    -0.068 C  
HETATM   33  O   UNL     1      -9.174   4.304  68.859  1.00  0.00    -0.121 OA 
HETATM   34  H   UNL     1      -9.046   3.386  68.649  1.00  0.00     0.000 HD 
ENDBRANCH  20  32
ENDBRANCH  13  18
ENDBRANCH  10  11
ENDBRANCH   7  10
ENDBRANCH   3   4
ENDBRANCH   2   3
TORSDOF 6
ENDMDL
MODEL      211
REMARK 921   NORMALIZED FREE ENERGY PREDICTED BY IDOCK:   -3.72 KCAL/MOL
REMARK 922        TOTAL FREE ENERGY PREDICTED BY IDOCK:   -6.16 KCAL/MOL
REMARK 923 INTER-LIGAND FREE ENERGY PREDICTED BY IDOCK:   -5.62 KCAL/MOL
REMARK 924 INTRA-LIGAND FREE ENERGY PREDICTED BY IDOCK:   -0.54 KCAL/MOL
REMARK 927      BINDING AFFINITY PREDICTED BY RF-SCORE:    0.00 PKD
ROOT
HETATM    1  C   UNL     1      -7.639   6.332  72.225  1.00  0.00    -0.095 C  
HETATM    2  C   UNL     1      -7.832   4.884  72.647  1.00  0.00    -0.094 C  
ENDROOT
BRANCH   2   3
HETATM    3  O   UNL     1      -9.152   4.713  73.178  1.00  0.00    -0.116 OA 
BRANCH   3   4
HETATM    4  C   UNL     1     -10.004   5.767  72.967  1.00  0.00    -0.174 A  
HETATM    5  C   UNL     1     -10.995   5.573  72.005  1.00  0.00    -0.276 A  
HETATM    6  C   UNL     1     -11.809   6.637  71.594  1.00  0.00    -0.383 A  
HETATM    7  C   UNL     1     -11.638   7.920  72.141  1.00  0.00    -0.380 A  
HETATM    8  C   UNL     1     -10.731   8.068  73.201  1.00  0.00    -0.205 A  
HETATM    9  C   UNL     1      -9.924   6.998  73.615  1.00  0.00    -0.348 A  
BRANCH   7  10
HETATM   10  C   UNL     1     -12.251   9.137  71.468  1.00  0.00    -0.422 C  
BRANCH  10  11
HETATM   11  C   UNL     1     -11.530   9.803  70.318  1.00  0.00    -0.317 A  
HETATM   12  C   UNL     1     -10.666   9.033  69.526  1.00  0.00    -0.215 A  
HETATM   13  C   UNL     1      -9.939   9.577  68.435  1.00  0.00    -0.184 A  
HETATM   14 CL   UNL     1     -12.579  12.249  70.951  1.00  0.00    -0.393 Cl 
HETATM   15  C   UNL     1     -10.267  10.861  68.003  1.00  0.00    -0.202 A  
HETATM   16  C   UNL     1     -11.136  11.643  68.772  1.00  0.00    -0.283 A  
HETATM   17  C   UNL     1     -11.705  11.140  69.953  1.00  0.00    -0.355 A  
BRANCH  13  18
HETATM   18  C   UNL     1      -8.662   8.874  68.011  1.00  0.00    -0.133 C  
HETATM   19  C   UNL     1      -8.735   7.073  66.601  1.00  0.00    -0.128 C  
HETATM   20  C   UNL     1      -7.628   6.920  67.620  1.00  0.00    -0.110 C  
HETATM   21  O   UNL     1      -9.006   8.474  66.639  1.00  0.00    -0.134 OA 
HETATM   22  H   UNL     1      -6.608  10.870  66.331  1.00  0.00     0.000 HD 
HETATM   23  O   UNL     1      -8.267   7.639  68.716  1.00  0.00    -0.125 OA 
HETATM   24  C   UNL     1      -6.257   7.624  67.348  1.00  0.00    -0.053 C  
HETATM   25  O   UNL     1      -7.362  10.304  66.450  1.00  0.00    -0.103 OA 
HETATM   26  C   UNL     1      -6.152   8.992  68.068  1.00  0.00    -0.050 C  
HETATM   27  O   UNL     1      -6.012   7.709  65.945  1.00  0.00    -0.037 OA 
HETATM   28  H   UNL     1      -5.869   9.657  69.914  1.00  0.00     0.000 HD 
HETATM   29  H   UNL     1      -5.180   8.137  65.780  1.00  0.00     0.000 HD 
HETATM   30  O   UNL     1      -5.934   8.818  69.473  1.00  0.00    -0.036 OA 
HETATM   31  C   UNL     1      -7.419   9.807  67.814  1.00  0.00    -0.090 C  
BRANCH  20  32
HETATM   32  C   UNL     1      -7.338   5.406  67.737  1.00  0.00    -0.073 C  
HETATM   33  O   UNL     1      -8.360   4.581  67.171  1.00  0.00    -0.105 OA 
HETATM   34  H   UNL     1      -8.182   3.651  67.243  1.00  0.00     0.000 HD 
ENDBRANCH  20  32
ENDBRANCH  13  18
ENDBRANCH  10  11
ENDBRANCH   7  10
ENDBRANCH   3   4
ENDBRANCH   2   3
TORSDOF 6
ENDMDL
MODEL      212
REMARK 921   NORMALIZED FREE ENERGY PREDICTED BY IDOCK:   -3.69 KCAL/MOL
REMARK 922        TOTAL FREE ENERGY PREDICTED BY IDOCK:   -6.12 KCAL/MOL
REMARK 923 INTER-LIGAND FREE ENERGY PREDICTED BY IDOCK:   -4.60 KCAL/MOL
REMARK 924 INTRA-LIGAND FREE ENERGY PREDICTED BY IDOCK:   -1.53 KCAL/MOL
REMARK 927      BINDING AFFINITY PREDICTED BY RF-SCORE:    0.00 PKD
ROOT
HETATM    1  C   UNL     1      -6.638  12.012  67.826  1.00  0.00    -0.093 C  
HETATM    2  C   UNL     1      -7.702  10.989  68.192  1.00  0.00    -0.105 C  
ENDROOT
BRANCH   2   3
HETATM    3  O   UNL     1      -7.742  10.830  69.616  1.00  0.00    -0.120 OA 
BRANCH   3   4
HETATM    4  C   UNL     1      -8.566   9.830  70.066  1.00  0.00    -0.204 A  
HETATM    5  C   UNL     1      -8.040   8.998  71.053  1.00  0.00    -0.199 A  
HETATM    6  C   UNL     1      -8.730   7.849  71.461  1.00  0.00    -0.150 A  
HETATM    7  C   UNL     1      -9.965   7.513  70.880  1.00  0.00    -0.181 A  
HETATM    8  C   UNL     1     -10.542   8.428  69.988  1.00  0.00    -0.235 A  
HETATM    9  C   UNL     1      -9.852   9.581  69.588  1.00  0.00    -0.220 A  
BRANCH   7  10
HETATM   10  C   UNL     1     -10.544   6.117  71.045  1.00  0.00    -0.301 C  
BRANCH  10  11
HETATM   11  C   UNL     1      -9.926   4.955  70.300  1.00  0.00    -0.321 A  
HETATM   12  C   UNL     1      -9.421   5.170  69.011  1.00  0.00    -0.186 A  
HETATM   13  C   UNL     1      -8.836   4.135  68.235  1.00  0.00    -0.133 A  
HETATM   14 CL   UNL     1     -10.527   3.216  72.326  1.00  0.00    -0.107 Cl 
HETATM   15  C   UNL     1      -8.556   2.923  68.863  1.00  0.00    -0.114 A  
HETATM   16  C   UNL     1      -9.040   2.691  70.155  1.00  0.00    -0.186 A  
HETATM   17  C   UNL     1      -9.777   3.673  70.836  1.00  0.00    -0.159 A  
BRANCH  13  18
HETATM   18  C   UNL     1      -8.839   4.292  66.725  1.00  0.00    -0.116 C  
HETATM   19  C   UNL     1      -7.122   5.364  65.660  1.00  0.00    -0.067 C  
HETATM   20  C   UNL     1      -8.440   5.632  64.968  1.00  0.00    -0.135 C  
HETATM   21  O   UNL     1      -7.402   4.196  66.431  1.00  0.00    -0.077 OA 
HETATM   22  H   UNL     1      -8.797   1.372  65.143  1.00  0.00     0.000 HD 
HETATM   23  O   UNL     1      -9.296   5.570  66.146  1.00  0.00    -0.155 OA 
HETATM   24  C   UNL     1      -8.981   4.572  63.952  1.00  0.00    -0.136 C  
HETATM   25  O   UNL     1      -8.427   2.102  65.626  1.00  0.00    -0.090 OA 
HETATM   26  C   UNL     1     -10.005   3.608  64.604  1.00  0.00    -0.180 C  
HETATM   27  O   UNL     1      -7.898   3.892  63.318  1.00  0.00    -0.072 OA 
HETATM   28  H   UNL     1     -11.894   3.666  65.203  1.00  0.00     0.000 HD 
HETATM   29  H   UNL     1      -8.227   3.249  62.701  1.00  0.00     0.000 HD 
HETATM   30  O   UNL     1     -11.266   4.257  64.803  1.00  0.00    -0.310 OA 
HETATM   31  C   UNL     1      -9.450   3.088  65.929  1.00  0.00    -0.007 C  
BRANCH  20  32
HETATM   32  C   UNL     1      -8.272   6.955  64.187  1.00  0.00     0.059 C  
HETATM   33  O   UNL     1      -8.341   6.796  62.767  1.00  0.00    -0.297 OA 
HETATM   34  H   UNL     1      -8.237   7.609  62.288  1.00  0.00     0.000 HD 
ENDBRANCH  20  32
ENDBRANCH  13  18
ENDBRANCH  10  11
ENDBRANCH   7  10
ENDBRANCH   3   4
ENDBRANCH   2   3
TORSDOF 6
ENDMDL
MODEL      213
REMARK 921   NORMALIZED FREE ENERGY PREDICTED BY IDOCK:   -3.61 KCAL/MOL
REMARK 922        TOTAL FREE ENERGY PREDICTED BY IDOCK:   -6.01 KCAL/MOL
REMARK 923 INTER-LIGAND FREE ENERGY PREDICTED BY IDOCK:   -4.77 KCAL/MOL
REMARK 924 INTRA-LIGAND FREE ENERGY PREDICTED BY IDOCK:   -1.24 KCAL/MOL
REMARK 927      BINDING AFFINITY PREDICTED BY RF-SCORE:    0.00 PKD
ROOT
HETATM    1  C   UNL     1     -12.383  15.382  63.730  1.00  0.00     0.441 C  
HETATM    2  C   UNL     1     -12.705  14.294  64.743  1.00  0.00    -0.170 C  
ENDROOT
BRANCH   2   3
HETATM    3  O   UNL     1     -11.725  13.252  64.653  1.00  0.00    -0.335 OA 
BRANCH   3   4
HETATM    4  C   UNL     1     -11.093  12.946  65.831  1.00  0.00    -0.283 A  
HETATM    5  C   UNL     1      -9.861  12.301  65.718  1.00  0.00    -0.260 A  
HETATM    6  C   UNL     1      -9.213  11.795  66.853  1.00  0.00    -0.189 A  
HETATM    7  C   UNL     1      -9.794  11.925  68.126  1.00  0.00    -0.192 A  
HETATM    8  C   UNL     1     -10.965  12.691  68.239  1.00  0.00    -0.275 A  
HETATM    9  C   UNL     1     -11.606  13.203  67.102  1.00  0.00    -0.410 A  
BRANCH   7  10
HETATM   10  C   UNL     1      -9.296  11.090  69.294  1.00  0.00     0.044 C  
BRANCH  10  11
HETATM   11  C   UNL     1      -9.781   9.667  69.460  1.00  0.00    -0.216 A  
HETATM   12  C   UNL     1      -8.968   8.619  69.006  1.00  0.00    -0.142 A  
HETATM   13  C   UNL     1      -9.347   7.256  69.110  1.00  0.00    -0.146 A  
HETATM   14 CL   UNL     1     -12.163  10.501  70.517  1.00  0.00    -0.404 Cl 
HETATM   15  C   UNL     1     -10.460   6.941  69.888  1.00  0.00    -0.239 A  
HETATM   16  C   UNL     1     -11.279   7.972  70.362  1.00  0.00    -0.230 A  
HETATM   17  C   UNL     1     -10.978   9.316  70.090  1.00  0.00    -0.246 A  
BRANCH  13  18
HETATM   18  C   UNL     1      -8.727   6.269  68.136  1.00  0.00    -0.115 C  
HETATM   19  C   UNL     1      -9.305   6.295  65.922  1.00  0.00     0.027 C  
HETATM   20  C   UNL     1      -9.045   4.883  66.399  1.00  0.00    -0.127 C  
HETATM   21  O   UNL     1      -8.656   7.087  66.917  1.00  0.00    -0.116 OA 
HETATM   22  H   UNL     1      -5.432   6.613  67.901  1.00  0.00     0.000 HD 
HETATM   23  O   UNL     1      -9.487   5.056  67.777  1.00  0.00    -0.122 OA 
HETATM   24  C   UNL     1      -7.568   4.371  66.452  1.00  0.00    -0.086 C  
HETATM   25  O   UNL     1      -6.341   6.833  67.732  1.00  0.00    -0.043 OA 
HETATM   26  C   UNL     1      -6.954   4.507  67.868  1.00  0.00    -0.056 C  
HETATM   27  O   UNL     1      -6.785   5.002  65.439  1.00  0.00    -0.049 OA 
HETATM   28  H   UNL     1      -7.096   3.591  69.619  1.00  0.00     0.000 HD 
HETATM   29  H   UNL     1      -5.889   4.691  65.471  1.00  0.00     0.000 HD 
HETATM   30  O   UNL     1      -7.472   3.507  68.751  1.00  0.00    -0.053 OA 
HETATM   31  C   UNL     1      -7.228   5.907  68.415  1.00  0.00    -0.083 C  
BRANCH  20  32
HETATM   32  C   UNL     1      -9.811   3.943  65.440  1.00  0.00    -0.167 C  
HETATM   33  O   UNL     1     -10.886   4.583  64.747  1.00  0.00    -0.527 OA 
HETATM   34  H   UNL     1     -11.357   4.005  64.158  1.00  0.00     0.000 HD 
ENDBRANCH  20  32
ENDBRANCH  13  18
ENDBRANCH  10  11
ENDBRANCH   7  10
ENDBRANCH   3   4
ENDBRANCH   2   3
TORSDOF 6
ENDMDL
MODEL      214
REMARK 921   NORMALIZED FREE ENERGY PREDICTED BY IDOCK:   -3.55 KCAL/MOL
REMARK 922        TOTAL FREE ENERGY PREDICTED BY IDOCK:   -5.94 KCAL/MOL
REMARK 923 INTER-LIGAND FREE ENERGY PREDICTED BY IDOCK:   -4.95 KCAL/MOL
REMARK 924 INTRA-LIGAND FREE ENERGY PREDICTED BY IDOCK:   -0.98 KCAL/MOL
REMARK 927      BINDING AFFINITY PREDICTED BY RF-SCORE:    0.00 PKD
ROOT
HETATM    1  C   UNL     1      -8.945  13.680  67.819  1.00  0.00    -0.196 C  
HETATM    2  C   UNL     1      -7.562  13.392  67.257  1.00  0.00    -0.062 C  
ENDROOT
BRANCH   2   3
HETATM    3  O   UNL     1      -6.934  12.365  68.035  1.00  0.00    -0.079 OA 
BRANCH   3   4
HETATM    4  C   UNL     1      -7.136  11.086  67.581  1.00  0.00    -0.088 A  
HETATM    5  C   UNL     1      -7.524  10.962  66.247  1.00  0.00    -0.129 A  
HETATM    6  C   UNL     1      -7.918   9.721  65.730  1.00  0.00    -0.116 A  
HETATM    7  C   UNL     1      -7.932   8.578  66.548  1.00  0.00    -0.099 A  
HETATM    8  C   UNL     1      -7.414   8.693  67.847  1.00  0.00    -0.097 A  
HETATM    9  C   UNL     1      -7.013   9.936  68.358  1.00  0.00    -0.068 A  
BRANCH   7  10
HETATM   10  C   UNL     1      -8.679   7.326  66.118  1.00  0.00    -0.170 C  
BRANCH  10  11
HETATM   11  C   UNL     1      -8.961   6.235  67.126  1.00  0.00    -0.111 A  
HETATM   12  C   UNL     1      -9.650   6.563  68.302  1.00  0.00    -0.131 A  
HETATM   13  C   UNL     1      -9.947   5.607  69.307  1.00  0.00    -0.251 A  
HETATM   14 CL   UNL     1      -7.603   4.382  65.640  1.00  0.00    -0.085 Cl 
HETATM   15  C   UNL     1      -9.743   4.260  69.012  1.00  0.00    -0.209 A  
HETATM   16  C   UNL     1      -9.069   3.909  67.838  1.00  0.00    -0.187 A  
HETATM   17  C   UNL     1      -8.622   4.892  66.940  1.00  0.00    -0.104 A  
BRANCH  13  18
HETATM   18  C   UNL     1     -10.163   6.109  70.724  1.00  0.00    -0.198 C  
HETATM   19  C   UNL     1      -9.128   8.013  71.458  1.00  0.00    -0.143 C  
HETATM   20  C   UNL     1      -9.244   6.995  72.570  1.00  0.00    -0.138 C  
HETATM   21  O   UNL     1     -10.104   7.563  70.517  1.00  0.00    -0.188 OA 
HETATM   22  H   UNL     1     -13.337   6.877  71.330  1.00  0.00     0.000 HD 
HETATM   23  O   UNL     1      -9.150   5.794  71.749  1.00  0.00    -0.142 OA 
HETATM   24  C   UNL     1     -10.588   6.903  73.365  1.00  0.00    -0.344 C  
HETATM   25  O   UNL     1     -12.463   7.013  70.981  1.00  0.00    -0.376 OA 
HETATM   26  C   UNL     1     -11.511   5.783  72.821  1.00  0.00    -0.255 C  
HETATM   27  O   UNL     1     -11.226   8.179  73.414  1.00  0.00    -0.189 OA 
HETATM   28  H   UNL     1     -11.603   3.804  72.880  1.00  0.00     0.000 HD 
HETATM   29  H   UNL     1     -12.042   8.123  73.896  1.00  0.00     0.000 HD 
HETATM   30  O   UNL     1     -11.037   4.490  73.214  1.00  0.00    -0.263 OA 
HETATM   31  C   UNL     1     -11.604   5.885  71.299  1.00  0.00    -0.010 C  
BRANCH  20  32
HETATM   32  C   UNL     1      -8.139   7.333  73.598  1.00  0.00    -0.118 C  
HETATM   33  O   UNL     1      -7.784   8.718  73.623  1.00  0.00    -0.409 OA 
HETATM   34  H   UNL     1      -7.105   8.926  74.254  1.00  0.00     0.000 HD 
ENDBRANCH  20  32
ENDBRANCH  13  18
ENDBRANCH  10  11
ENDBRANCH   7  10
ENDBRANCH   3   4
ENDBRANCH   2   3
TORSDOF 6
ENDMDL
MODEL      215
REMARK 921   NORMALIZED FREE ENERGY PREDICTED BY IDOCK:   -3.54 KCAL/MOL
REMARK 922        TOTAL FREE ENERGY PREDICTED BY IDOCK:   -5.93 KCAL/MOL
REMARK 923 INTER-LIGAND FREE ENERGY PREDICTED BY IDOCK:   -5.09 KCAL/MOL
REMARK 924 INTRA-LIGAND FREE ENERGY PREDICTED BY IDOCK:   -0.84 KCAL/MOL
REMARK 927      BINDING AFFINITY PREDICTED BY RF-SCORE:    0.00 PKD
ROOT
HETATM    1  C   UNL     1      -6.875  20.462  68.002  1.00  0.00    -0.331 C  
HETATM    2  C   UNL     1      -7.761  19.234  67.860  1.00  0.00    -0.283 C  
ENDROOT
BRANCH   2   3
HETATM    3  O   UNL     1      -7.226  18.165  68.650  1.00  0.00    -0.264 OA 
BRANCH   3   4
HETATM    4  C   UNL     1      -7.668  16.912  68.308  1.00  0.00    -0.205 A  
HETATM    5  C   UNL     1      -7.386  15.892  69.216  1.00  0.00    -0.221 A  
HETATM    6  C   UNL     1      -7.643  14.554  68.889  1.00  0.00    -0.138 A  
HETATM    7  C   UNL     1      -8.185  14.216  67.637  1.00  0.00    -0.193 A  
HETATM    8  C   UNL     1      -8.586  15.260  66.790  1.00  0.00    -0.300 A  
HETATM    9  C   UNL     1      -8.335  16.598  67.125  1.00  0.00    -0.202 A  
BRANCH   7  10
HETATM   10  C   UNL     1      -8.138  12.782  67.134  1.00  0.00    -0.131 C  
BRANCH  10  11
HETATM   11  C   UNL     1      -9.013  11.730  67.778  1.00  0.00    -0.173 A  
HETATM   12  C   UNL     1      -8.459  10.477  68.071  1.00  0.00    -0.120 A  
HETATM   13  C   UNL     1      -9.208   9.427  68.662  1.00  0.00    -0.131 A  
HETATM   14 CL   UNL     1     -11.209  13.360  67.675  1.00  0.00    -0.288 Cl 
HETATM   15  C   UNL     1     -10.471   9.728  69.170  1.00  0.00    -0.232 A  
HETATM   16  C   UNL     1     -11.039  10.978  68.900  1.00  0.00    -0.295 A  
HETATM   17  C   UNL     1     -10.343  11.941  68.152  1.00  0.00    -0.199 A  
BRANCH  13  18
HETATM   18  C   UNL     1      -8.739   8.002  68.432  1.00  0.00    -0.130 C  
HETATM   19  C   UNL     1      -8.713   6.491  70.151  1.00  0.00    -0.140 C  
HETATM   20  C   UNL     1      -7.553   6.260  69.207  1.00  0.00    -0.099 C  
HETATM   21  O   UNL     1      -9.612   7.267  69.359  1.00  0.00    -0.154 OA 
HETATM   22  H   UNL     1     -10.628   6.379  66.234  1.00  0.00     0.000 HD 
HETATM   23  O   UNL     1      -7.355   7.644  68.797  1.00  0.00    -0.086 OA 
HETATM   24  C   UNL     1      -7.801   5.427  67.906  1.00  0.00    -0.092 C  
HETATM   25  O   UNL     1     -10.406   6.748  67.082  1.00  0.00    -0.199 OA 
HETATM   26  C   UNL     1      -8.068   6.332  66.677  1.00  0.00    -0.110 C  
HETATM   27  O   UNL     1      -8.828   4.459  68.122  1.00  0.00    -0.102 OA 
HETATM   28  H   UNL     1      -7.021   7.496  65.461  1.00  0.00     0.000 HD 
HETATM   29  H   UNL     1      -8.978   3.954  67.332  1.00  0.00     0.000 HD 
HETATM   30  O   UNL     1      -6.857   6.941  66.215  1.00  0.00    -0.060 OA 
HETATM   31  C   UNL     1      -9.106   7.394  67.035  1.00  0.00    -0.135 C  
BRANCH  20  32
HETATM   32  C   UNL     1      -6.465   5.516  70.015  1.00  0.00    -0.034 C  
HETATM   33  O   UNL     1      -6.348   5.964  71.368  1.00  0.00    -0.041 OA 
HETATM   34  H   UNL     1      -5.679   5.507  71.863  1.00  0.00     0.000 HD 
ENDBRANCH  20  32
ENDBRANCH  13  18
ENDBRANCH  10  11
ENDBRANCH   7  10
ENDBRANCH   3   4
ENDBRANCH   2   3
TORSDOF 6
ENDMDL
MODEL      216
REMARK 921   NORMALIZED FREE ENERGY PREDICTED BY IDOCK:   -3.53 KCAL/MOL
REMARK 922        TOTAL FREE ENERGY PREDICTED BY IDOCK:   -5.90 KCAL/MOL
REMARK 923 INTER-LIGAND FREE ENERGY PREDICTED BY IDOCK:   -4.98 KCAL/MOL
REMARK 924 INTRA-LIGAND FREE ENERGY PREDICTED BY IDOCK:   -0.92 KCAL/MOL
REMARK 927      BINDING AFFINITY PREDICTED BY RF-SCORE:    0.00 PKD
ROOT
HETATM    1  C   UNL     1      -7.726  19.105  68.138  1.00  0.00    -0.328 C  
HETATM    2  C   UNL     1      -6.553  18.177  67.864  1.00  0.00    -0.195 C  
ENDROOT
BRANCH   2   3
HETATM    3  O   UNL     1      -6.340  17.328  68.998  1.00  0.00    -0.187 OA 
BRANCH   3   4
HETATM    4  C   UNL     1      -6.915  16.086  68.911  1.00  0.00    -0.148 A  
HETATM    5  C   UNL     1      -6.174  15.027  69.435  1.00  0.00    -0.115 A  
HETATM    6  C   UNL     1      -6.590  13.702  69.248  1.00  0.00    -0.110 A  
HETATM    7  C   UNL     1      -7.761  13.416  68.525  1.00  0.00    -0.124 A  
HETATM    8  C   UNL     1      -8.564  14.493  68.120  1.00  0.00    -0.169 A  
HETATM    9  C   UNL     1      -8.147  15.818  68.316  1.00  0.00    -0.142 A  
BRANCH   7  10
HETATM   10  C   UNL     1      -8.032  12.010  68.014  1.00  0.00    -0.149 C  
BRANCH  10  11
HETATM   11  C   UNL     1      -9.364  11.353  68.294  1.00  0.00    -0.187 A  
HETATM   12  C   UNL     1      -9.494  10.549  69.435  1.00  0.00    -0.158 A  
HETATM   13  C   UNL     1     -10.702   9.884  69.770  1.00  0.00    -0.298 A  
HETATM   14 CL   UNL     1     -10.441  12.330  65.976  1.00  0.00    -0.274 Cl 
HETATM   15  C   UNL     1     -11.855  10.221  69.062  1.00  0.00     0.005 A  
HETATM   16  C   UNL     1     -11.750  11.032  67.926  1.00  0.00    -0.216 A  
HETATM   17  C   UNL     1     -10.506  11.533  67.510  1.00  0.00    -0.199 A  
BRANCH  13  18
HETATM   18  C   UNL     1     -10.613   8.644  70.642  1.00  0.00    -0.211 C  
HETATM   19  C   UNL     1     -11.005   8.771  72.893  1.00  0.00     0.672 C  
HETATM   20  C   UNL     1      -9.929   7.753  72.586  1.00  0.00    -0.238 C  
HETATM   21  O   UNL     1     -11.661   8.924  71.634  1.00  0.00    -0.294 OA 
HETATM   22  H   UNL     1     -12.819   6.318  69.777  1.00  0.00     0.000 HD 
HETATM   23  O   UNL     1      -9.373   8.404  71.406  1.00  0.00    -0.157 OA 
HETATM   24  C   UNL     1     -10.361   6.313  72.154  1.00  0.00    -0.191 C  
HETATM   25  O   UNL     1     -12.524   7.123  70.186  1.00  0.00     0.090 OA 
HETATM   26  C   UNL     1     -10.366   6.142  70.614  1.00  0.00    -0.214 C  
HETATM   27  O   UNL     1     -11.606   5.964  72.759  1.00  0.00    -0.431 OA 
HETATM   28  H   UNL     1      -9.034   5.933  69.161  1.00  0.00     0.000 HD 
HETATM   29  H   UNL     1     -11.868   5.090  72.497  1.00  0.00     0.000 HD 
HETATM   30  O   UNL     1      -9.031   6.037  70.105  1.00  0.00    -0.143 OA 
HETATM   31  C   UNL     1     -11.100   7.316  69.968  1.00  0.00    -0.240 C  
BRANCH  20  32
HETATM   32  C   UNL     1      -9.083   7.600  73.871  1.00  0.00    -0.261 C  
HETATM   33  O   UNL     1      -8.016   8.547  73.970  1.00  0.00    -0.369 OA 
HETATM   34  H   UNL     1      -7.496   8.453  74.760  1.00  0.00     0.000 HD 
ENDBRANCH  20  32
ENDBRANCH  13  18
ENDBRANCH  10  11
ENDBRANCH   7  10
ENDBRANCH   3   4
ENDBRANCH   2   3
TORSDOF 6
ENDMDL
MODEL      217
REMARK 921   NORMALIZED FREE ENERGY PREDICTED BY IDOCK:   -3.53 KCAL/MOL
REMARK 922        TOTAL FREE ENERGY PREDICTED BY IDOCK:   -5.90 KCAL/MOL
REMARK 923 INTER-LIGAND FREE ENERGY PREDICTED BY IDOCK:   -4.87 KCAL/MOL
REMARK 924 INTRA-LIGAND FREE ENERGY PREDICTED BY IDOCK:   -1.03 KCAL/MOL
REMARK 927      BINDING AFFINITY PREDICTED BY RF-SCORE:    0.00 PKD
ROOT
HETATM    1  C   UNL     1      -7.867  18.607  68.347  1.00  0.00    -0.344 C  
HETATM    2  C   UNL     1      -8.419  17.246  67.952  1.00  0.00    -0.218 C  
ENDROOT
BRANCH   2   3
HETATM    3  O   UNL     1      -8.211  16.317  69.023  1.00  0.00    -0.228 OA 
BRANCH   3   4
HETATM    4  C   UNL     1      -8.699  15.055  68.799  1.00  0.00    -0.186 A  
HETATM    5  C   UNL     1      -7.748  14.046  68.647  1.00  0.00    -0.135 A  
HETATM    6  C   UNL     1      -8.130  12.758  68.250  1.00  0.00    -0.154 A  
HETATM    7  C   UNL     1      -9.480  12.460  67.995  1.00  0.00    -0.208 A  
HETATM    8  C   UNL     1     -10.437  13.445  68.282  1.00  0.00    -0.256 A  
HETATM    9  C   UNL     1     -10.050  14.731  68.687  1.00  0.00    -0.238 A  
BRANCH   7  10
HETATM   10  C   UNL     1      -9.865  11.201  67.236  1.00  0.00    -0.198 C  
BRANCH  10  11
HETATM   11  C   UNL     1      -9.805   9.858  67.927  1.00  0.00    -0.170 A  
HETATM   12  C   UNL     1      -8.871   8.911  67.484  1.00  0.00    -0.135 A  
HETATM   13  C   UNL     1      -8.753   7.622  68.066  1.00  0.00    -0.125 A  
HETATM   14 CL   UNL     1     -11.914  10.493  69.551  1.00  0.00    -0.295 Cl 
HETATM   15  C   UNL     1      -9.434   7.374  69.257  1.00  0.00    -0.154 A  
HETATM   16  C   UNL     1     -10.362   8.311  69.725  1.00  0.00    -0.216 A  
HETATM   17  C   UNL     1     -10.593   9.508  69.027  1.00  0.00    -0.219 A  
BRANCH  13  18
HETATM   18  C   UNL     1      -8.164   6.510  67.217  1.00  0.00    -0.113 C  
HETATM   19  C   UNL     1      -9.501   5.247  65.856  1.00  0.00    -0.142 C  
HETATM   20  C   UNL     1      -8.381   4.415  66.440  1.00  0.00    -0.105 C  
HETATM   21  O   UNL     1      -9.023   6.581  66.026  1.00  0.00    -0.157 OA 
HETATM   22  H   UNL     1      -5.950   7.632  65.010  1.00  0.00     0.000 HD 
HETATM   23  O   UNL     1      -8.251   5.121  67.708  1.00  0.00    -0.099 OA 
HETATM   24  C   UNL     1      -6.978   4.455  65.747  1.00  0.00    -0.059 C  
HETATM   25  O   UNL     1      -6.818   7.460  65.357  1.00  0.00    -0.047 OA 
HETATM   26  C   UNL     1      -6.018   5.460  66.433  1.00  0.00    -0.022 C  
HETATM   27  O   UNL     1      -7.122   4.687  64.346  1.00  0.00    -0.049 OA 
HETATM   28  H   UNL     1      -4.946   5.555  68.098  1.00  0.00     0.000 HD 
HETATM   29  H   UNL     1      -6.271   4.711  63.925  1.00  0.00     0.000 HD 
HETATM   30  O   UNL     1      -5.535   4.940  67.678  1.00  0.00    -0.011 OA 
HETATM   31  C   UNL     1      -6.732   6.793  66.645  1.00  0.00    -0.053 C  
BRANCH  20  32
HETATM   32  C   UNL     1      -8.855   2.944  66.404  1.00  0.00    -0.145 C  
HETATM   33  O   UNL     1      -9.713   2.592  67.493  1.00  0.00    -0.391 OA 
HETATM   34  H   UNL     1     -10.004   1.688  67.471  1.00  0.00     0.000 HD 
ENDBRANCH  20  32
ENDBRANCH  13  18
ENDBRANCH  10  11
ENDBRANCH   7  10
ENDBRANCH   3   4
ENDBRANCH   2   3
TORSDOF 6
ENDMDL
MODEL      218
REMARK 921   NORMALIZED FREE ENERGY PREDICTED BY IDOCK:   -3.51 KCAL/MOL
REMARK 922        TOTAL FREE ENERGY PREDICTED BY IDOCK:   -5.87 KCAL/MOL
REMARK 923 INTER-LIGAND FREE ENERGY PREDICTED BY IDOCK:   -4.47 KCAL/MOL
REMARK 924 INTRA-LIGAND FREE ENERGY PREDICTED BY IDOCK:   -1.41 KCAL/MOL
REMARK 927      BINDING AFFINITY PREDICTED BY RF-SCORE:    0.00 PKD
ROOT
HETATM    1  C   UNL     1      -6.496  14.420  70.329  1.00  0.00    -0.130 C  
HETATM    2  C   UNL     1      -5.553  13.730  69.355  1.00  0.00    -0.087 C  
ENDROOT
BRANCH   2   3
HETATM    3  O   UNL     1      -6.291  12.796  68.557  1.00  0.00    -0.066 OA 
BRANCH   3   4
HETATM    4  C   UNL     1      -6.652  11.639  69.199  1.00  0.00    -0.101 A  
HETATM    5  C   UNL     1      -7.904  11.121  68.874  1.00  0.00    -0.131 A  
HETATM    6  C   UNL     1      -8.439  10.042  69.591  1.00  0.00    -0.193 A  
HETATM    7  C   UNL     1      -7.723   9.466  70.655  1.00  0.00    -0.172 A  
HETATM    8  C   UNL     1      -6.412   9.911  70.883  1.00  0.00    -0.040 A  
HETATM    9  C   UNL     1      -5.878  10.985  70.157  1.00  0.00    -0.117 A  
BRANCH   7  10
HETATM   10  C   UNL     1      -8.419   8.555  71.653  1.00  0.00    -0.235 C  
BRANCH  10  11
HETATM   11  C   UNL     1      -9.301   7.431  71.157  1.00  0.00    -0.156 A  
HETATM   12  C   UNL     1      -8.749   6.465  70.304  1.00  0.00    -0.143 A  
HETATM   13  C   UNL     1      -9.506   5.385  69.781  1.00  0.00    -0.202 A  
HETATM   14 CL   UNL     1     -11.496   8.473  72.415  1.00  0.00    -0.440 Cl 
HETATM   15  C   UNL     1     -10.774   5.154  70.311  1.00  0.00    -0.121 A  
HETATM   16  C   UNL     1     -11.340   6.099  71.173  1.00  0.00    -0.340 A  
HETATM   17  C   UNL     1     -10.635   7.259  71.535  1.00  0.00    -0.203 A  
BRANCH  13  18
HETATM   18  C   UNL     1      -9.033   4.748  68.486  1.00  0.00    -0.111 C  
HETATM   19  C   UNL     1      -9.323   5.821  66.485  1.00  0.00    -0.152 C  
HETATM   20  C   UNL     1      -9.472   4.324  66.325  1.00  0.00    -0.180 C  
HETATM   21  O   UNL     1      -8.622   5.936  67.724  1.00  0.00    -0.107 OA 
HETATM   22  H   UNL     1      -5.750   4.254  68.434  1.00  0.00     0.000 HD 
HETATM   23  O   UNL     1     -10.017   4.038  67.646  1.00  0.00    -0.098 OA 
HETATM   24  C   UNL     1      -8.180   3.456  66.165  1.00  0.00    -0.097 C  
HETATM   25  O   UNL     1      -6.552   4.760  68.368  1.00  0.00    -0.043 OA 
HETATM   26  C   UNL     1      -7.722   2.838  67.510  1.00  0.00    -0.065 C  
HETATM   27  O   UNL     1      -7.154   4.206  65.515  1.00  0.00    -0.061 OA 
HETATM   28  H   UNL     1      -8.288   1.367  68.713  1.00  0.00     0.000 HD 
HETATM   29  H   UNL     1      -6.370   3.678  65.418  1.00  0.00     0.000 HD 
HETATM   30  O   UNL     1      -8.569   1.746  67.888  1.00  0.00    -0.066 OA 
HETATM   31  C   UNL     1      -7.711   3.914  68.594  1.00  0.00    -0.060 C  
BRANCH  20  32
HETATM   32  C   UNL     1     -10.325   4.096  65.056  1.00  0.00    -0.192 C  
HETATM   33  O   UNL     1      -9.820   4.766  63.898  1.00  0.00    -0.359 OA 
HETATM   34  H   UNL     1     -10.344   4.626  63.118  1.00  0.00     0.000 HD 
ENDBRANCH  20  32
ENDBRANCH  13  18
ENDBRANCH  10  11
ENDBRANCH   7  10
ENDBRANCH   3   4
ENDBRANCH   2   3
TORSDOF 6
ENDMDL
MODEL      219
REMARK 921   NORMALIZED FREE ENERGY PREDICTED BY IDOCK:   -3.37 KCAL/MOL
REMARK 922        TOTAL FREE ENERGY PREDICTED BY IDOCK:   -5.69 KCAL/MOL
REMARK 923 INTER-LIGAND FREE ENERGY PREDICTED BY IDOCK:   -4.78 KCAL/MOL
REMARK 924 INTRA-LIGAND FREE ENERGY PREDICTED BY IDOCK:   -0.91 KCAL/MOL
REMARK 927      BINDING AFFINITY PREDICTED BY RF-SCORE:    0.00 PKD
ROOT
HETATM    1  C   UNL     1      -6.166   6.403  71.663  1.00  0.00    -0.042 C  
HETATM    2  C   UNL     1      -6.530   7.687  70.934  1.00  0.00    -0.038 C  
ENDROOT
BRANCH   2   3
HETATM    3  O   UNL     1      -7.467   7.395  69.890  1.00  0.00    -0.081 OA 
BRANCH   3   4
HETATM    4  C   UNL     1      -7.329   8.154  68.756  1.00  0.00    -0.088 A  
HETATM    5  C   UNL     1      -7.953   9.401  68.772  1.00  0.00    -0.092 A  
HETATM    6  C   UNL     1      -8.017  10.183  67.611  1.00  0.00    -0.102 A  
HETATM    7  C   UNL     1      -7.456   9.722  66.408  1.00  0.00    -0.099 A  
HETATM    8  C   UNL     1      -6.717   8.530  66.440  1.00  0.00    -0.070 A  
HETATM    9  C   UNL     1      -6.649   7.754  67.607  1.00  0.00    -0.063 A  
BRANCH   7  10
HETATM   10  C   UNL     1      -7.819  10.375  65.084  1.00  0.00    -0.122 C  
BRANCH  10  11
HETATM   11  C   UNL     1      -8.917  11.413  65.034  1.00  0.00     0.060 A  
HETATM   12  C   UNL     1      -8.929  12.431  65.998  1.00  0.00     0.106 A  
HETATM   13  C   UNL     1      -9.927  13.439  66.035  1.00  0.00    -0.300 A  
HETATM   14 CL   UNL     1     -10.131  10.165  62.924  1.00  0.00     0.235 Cl 
HETATM   15  C   UNL     1     -10.791  13.547  64.947  1.00  0.00    -0.371 A  
HETATM   16  C   UNL     1     -10.788  12.549  63.966  1.00  0.00    -0.446 A  
HETATM   17  C   UNL     1      -9.907  11.459  64.049  1.00  0.00    -0.278 A  
BRANCH  13  18
HETATM   18  C   UNL     1     -10.197  14.123  67.363  1.00  0.00    -0.244 C  
HETATM   19  C   UNL     1     -10.800  12.903  69.203  1.00  0.00    -0.079 C  
HETATM   20  C   UNL     1     -11.497  14.246  69.190  1.00  0.00    -0.291 C  
HETATM   21  O   UNL     1      -9.708  13.107  68.306  1.00  0.00    -0.222 OA 
HETATM   22  H   UNL     1      -7.529  15.711  68.543  1.00  0.00     0.000 HD 
HETATM   23  O   UNL     1     -11.595  14.403  67.744  1.00  0.00    -0.319 OA 
HETATM   24  C   UNL     1     -10.727  15.494  69.735  1.00  0.00    -0.295 C  
HETATM   25  O   UNL     1      -8.078  14.957  68.356  1.00  0.00    -0.126 OA 
HETATM   26  C   UNL     1     -10.057  16.308  68.599  1.00  0.00    -0.233 C  
HETATM   27  O   UNL     1      -9.812  15.106  70.760  1.00  0.00    -0.200 OA 
HETATM   28  H   UNL     1     -10.618  17.561  67.170  1.00  0.00     0.000 HD 
HETATM   29  H   UNL     1      -9.345  15.864  71.091  1.00  0.00     0.000 HD 
HETATM   30  O   UNL     1     -11.029  17.062  67.866  1.00  0.00    -0.337 OA 
HETATM   31  C   UNL     1      -9.292  15.365  67.671  1.00  0.00    -0.203 C  
BRANCH  20  32
HETATM   32  C   UNL     1     -12.770  14.094  70.052  1.00  0.00    -0.103 C  
HETATM   33  O   UNL     1     -12.522  14.169  71.459  1.00  0.00    -0.336 OA 
HETATM   34  H   UNL     1     -13.305  14.075  71.989  1.00  0.00     0.000 HD 
ENDBRANCH  20  32
ENDBRANCH  13  18
ENDBRANCH  10  11
ENDBRANCH   7  10
ENDBRANCH   3   4
ENDBRANCH   2   3
TORSDOF 6
ENDMDL
MODEL      220
REMARK 921   NORMALIZED FREE ENERGY PREDICTED BY IDOCK:   -3.35 KCAL/MOL
REMARK 922        TOTAL FREE ENERGY PREDICTED BY IDOCK:   -5.66 KCAL/MOL
REMARK 923 INTER-LIGAND FREE ENERGY PREDICTED BY IDOCK:   -4.68 KCAL/MOL
REMARK 924 INTRA-LIGAND FREE ENERGY PREDICTED BY IDOCK:   -0.98 KCAL/MOL
REMARK 927      BINDING AFFINITY PREDICTED BY RF-SCORE:    0.00 PKD
ROOT
HETATM    1  C   UNL     1     -13.350   7.090  71.242  1.00  0.00    -0.282 C  
HETATM    2  C   UNL     1     -12.148   7.011  72.170  1.00  0.00    -0.244 C  
ENDROOT
BRANCH   2   3
HETATM    3  O   UNL     1     -11.005   6.556  71.434  1.00  0.00    -0.241 OA 
BRANCH   3   4
HETATM    4  C   UNL     1      -9.954   7.436  71.390  1.00  0.00    -0.186 A  
HETATM    5  C   UNL     1     -10.162   8.606  70.663  1.00  0.00    -0.237 A  
HETATM    6  C   UNL     1      -9.104   9.491  70.414  1.00  0.00    -0.296 A  
HETATM    7  C   UNL     1      -7.812   9.211  70.892  1.00  0.00    -0.163 A  
HETATM    8  C   UNL     1      -7.648   8.101  71.733  1.00  0.00    -0.105 A  
HETATM    9  C   UNL     1      -8.711   7.222  71.986  1.00  0.00    -0.129 A  
BRANCH   7  10
HETATM   10  C   UNL     1      -6.605   9.955  70.342  1.00  0.00    -0.125 C  
BRANCH  10  11
HETATM   11  C   UNL     1      -6.731  10.749  69.062  1.00  0.00    -0.070 A  
HETATM   12  C   UNL     1      -7.448  11.953  69.081  1.00  0.00     0.066 A  
HETATM   13  C   UNL     1      -7.628  12.755  67.924  1.00  0.00    -0.138 A  
HETATM   14 CL   UNL     1      -5.389   8.838  67.634  1.00  0.00    -0.034 Cl 
HETATM   15  C   UNL     1      -6.879  12.448  66.789  1.00  0.00     0.297 A  
HETATM   16  C   UNL     1      -6.145  11.257  66.753  1.00  0.00    -0.131 A  
HETATM   17  C   UNL     1      -6.130  10.385  67.853  1.00  0.00    -0.048 A  
BRANCH  13  18
HETATM   18  C   UNL     1      -8.827  13.686  67.884  1.00  0.00    -0.188 C  
HETATM   19  C   UNL     1      -8.577  15.928  68.266  1.00  0.00    -0.176 C  
HETATM   20  C   UNL     1      -9.894  15.427  68.818  1.00  0.00    -0.211 C  
HETATM   21  O   UNL     1      -8.216  14.906  67.337  1.00  0.00    -0.168 OA 
HETATM   22  H   UNL     1     -10.294  13.743  64.905  1.00  0.00     0.000 HD 
HETATM   23  O   UNL     1      -9.463  14.076  69.157  1.00  0.00     0.035 OA 
HETATM   24  C   UNL     1     -11.110  15.289  67.844  1.00  0.00    -0.321 C  
HETATM   25  O   UNL     1      -9.631  13.964  65.550  1.00  0.00    -0.138 OA 
HETATM   26  C   UNL     1     -11.270  13.843  67.311  1.00  0.00    -0.312 C  
HETATM   27  O   UNL     1     -11.027  16.263  66.803  1.00  0.00    -0.194 OA 
HETATM   28  H   UNL     1     -11.908  12.095  67.992  1.00  0.00     0.000 HD 
HETATM   29  H   UNL     1     -11.766  16.180  66.212  1.00  0.00     0.000 HD 
HETATM   30  O   UNL     1     -11.810  12.981  68.319  1.00  0.00    -0.334 OA 
HETATM   31  C   UNL     1      -9.920  13.323  66.821  1.00  0.00    -0.263 C  
BRANCH  20  32
HETATM   32  C   UNL     1     -10.317  16.418  69.926  1.00  0.00    -0.129 C  
HETATM   33  O   UNL     1     -10.803  15.781  71.111  1.00  0.00    -0.218 OA 
HETATM   34  H   UNL     1     -11.063  16.390  71.791  1.00  0.00     0.000 HD 
ENDBRANCH  20  32
ENDBRANCH  13  18
ENDBRANCH  10  11
ENDBRANCH   7  10
ENDBRANCH   3   4
ENDBRANCH   2   3
TORSDOF 6
ENDMDL
MODEL      221
REMARK 921   NORMALIZED FREE ENERGY PREDICTED BY IDOCK:   -3.34 KCAL/MOL
REMARK 922        TOTAL FREE ENERGY PREDICTED BY IDOCK:   -5.65 KCAL/MOL
REMARK 923 INTER-LIGAND FREE ENERGY PREDICTED BY IDOCK:   -4.16 KCAL/MOL
REMARK 924 INTRA-LIGAND FREE ENERGY PREDICTED BY IDOCK:   -1.49 KCAL/MOL
REMARK 927      BINDING AFFINITY PREDICTED BY RF-SCORE:    0.00 PKD
ROOT
HETATM    1  C   UNL     1      -6.700  12.775  67.146  1.00  0.00     0.027 C  
HETATM    2  C   UNL     1      -7.407  11.462  67.443  1.00  0.00    -0.119 C  
ENDROOT
BRANCH   2   3
HETATM    3  O   UNL     1      -7.735  11.400  68.836  1.00  0.00    -0.134 OA 
BRANCH   3   4
HETATM    4  C   UNL     1      -8.684  10.466  69.169  1.00  0.00    -0.166 A  
HETATM    5  C   UNL     1      -8.477   9.779  70.364  1.00  0.00    -0.102 A  
HETATM    6  C   UNL     1      -9.290   8.693  70.714  1.00  0.00    -0.231 A  
HETATM    7  C   UNL     1     -10.328   8.275  69.863  1.00  0.00    -0.218 A  
HETATM    8  C   UNL     1     -10.608   9.057  68.732  1.00  0.00    -0.196 A  
HETATM    9  C   UNL     1      -9.796  10.148  68.390  1.00  0.00    -0.164 A  
BRANCH   7  10
HETATM   10  C   UNL     1     -10.976   6.911  70.044  1.00  0.00    -0.320 C  
BRANCH  10  11
HETATM   11  C   UNL     1     -10.167   5.657  69.803  1.00  0.00    -0.321 A  
HETATM   12  C   UNL     1      -9.600   5.451  68.538  1.00  0.00    -0.169 A  
HETATM   13  C   UNL     1      -8.837   4.298  68.219  1.00  0.00    -0.132 A  
HETATM   14 CL   UNL     1     -10.694   4.721  72.319  1.00  0.00    -0.228 Cl 
HETATM   15  C   UNL     1      -8.455   3.455  69.262  1.00  0.00    -0.095 A  
HETATM   16  C   UNL     1      -9.000   3.649  70.536  1.00  0.00    -0.161 A  
HETATM   17  C   UNL     1      -9.900   4.698  70.784  1.00  0.00    -0.214 A  
BRANCH  13  18
HETATM   18  C   UNL     1      -8.749   3.885  66.761  1.00  0.00    -0.115 C  
HETATM   19  C   UNL     1      -8.699   1.673  66.176  1.00  0.00    -0.116 C  
HETATM   20  C   UNL     1      -7.838   2.500  65.246  1.00  0.00    -0.078 C  
HETATM   21  O   UNL     1      -9.550   2.652  66.771  1.00  0.00     0.010 OA 
HETATM   22  H   UNL     1     -11.360   4.917  64.986  1.00  0.00     0.000 HD 
HETATM   23  O   UNL     1      -7.431   3.518  66.207  1.00  0.00    -0.075 OA 
HETATM   24  C   UNL     1      -8.526   3.244  64.054  1.00  0.00    -0.090 C  
HETATM   25  O   UNL     1     -10.892   4.357  65.595  1.00  0.00    -0.208 OA 
HETATM   26  C   UNL     1      -8.837   4.724  64.393  1.00  0.00    -0.142 C  
HETATM   27  O   UNL     1      -9.672   2.519  63.609  1.00  0.00    -0.115 OA 
HETATM   28  H   UNL     1      -7.836   6.424  64.581  1.00  0.00     0.000 HD 
HETATM   29  H   UNL     1     -10.089   2.971  62.885  1.00  0.00     0.000 HD 
HETATM   30  O   UNL     1      -7.644   5.517  64.373  1.00  0.00    -0.065 OA 
HETATM   31  C   UNL     1      -9.520   4.808  65.757  1.00  0.00    -0.167 C  
BRANCH  20  32
HETATM   32  C   UNL     1      -6.797   1.537  64.632  1.00  0.00    -0.034 C  
HETATM   33  O   UNL     1      -6.821   1.503  63.202  1.00  0.00    -0.020 OA 
HETATM   34  H   UNL     1      -6.181   0.911  62.825  1.00  0.00     0.000 HD 
ENDBRANCH  20  32
ENDBRANCH  13  18
ENDBRANCH  10  11
ENDBRANCH   7  10
ENDBRANCH   3   4
ENDBRANCH   2   3
TORSDOF 6
ENDMDL
MODEL      222
REMARK 921   NORMALIZED FREE ENERGY PREDICTED BY IDOCK:   -3.30 KCAL/MOL
REMARK 922        TOTAL FREE ENERGY PREDICTED BY IDOCK:   -5.59 KCAL/MOL
REMARK 923 INTER-LIGAND FREE ENERGY PREDICTED BY IDOCK:   -4.12 KCAL/MOL
REMARK 924 INTRA-LIGAND FREE ENERGY PREDICTED BY IDOCK:   -1.47 KCAL/MOL
REMARK 927      BINDING AFFINITY PREDICTED BY RF-SCORE:    0.00 PKD
ROOT
HETATM    1  C   UNL     1     -11.843  12.735  69.516  1.00  0.00    -0.379 C  
HETATM    2  C   UNL     1     -11.112  12.516  68.201  1.00  0.00    -0.243 C  
ENDROOT
BRANCH   2   3
HETATM    3  O   UNL     1      -9.921  13.314  68.178  1.00  0.00    -0.223 OA 
BRANCH   3   4
HETATM    4  C   UNL     1      -8.757  12.614  67.988  1.00  0.00    -0.190 A  
HETATM    5  C   UNL     1      -8.844  11.486  67.173  1.00  0.00    -0.168 A  
HETATM    6  C   UNL     1      -7.758  10.609  67.049  1.00  0.00    -0.117 A  
HETATM    7  C   UNL     1      -6.562  10.850  67.747  1.00  0.00    -0.064 A  
HETATM    8  C   UNL     1      -6.444  12.055  68.454  1.00  0.00    -0.055 A  
HETATM    9  C   UNL     1      -7.531  12.934  68.569  1.00  0.00    -0.123 A  
BRANCH   7  10
HETATM   10  C   UNL     1      -5.524   9.750  67.906  1.00  0.00    -0.039 C  
BRANCH  10  11
HETATM   11  C   UNL     1      -5.888   8.473  68.629  1.00  0.00    -0.044 A  
HETATM   12  C   UNL     1      -6.278   7.358  67.875  1.00  0.00    -0.043 A  
HETATM   13  C   UNL     1      -6.648   6.123  68.469  1.00  0.00    -0.059 A  
HETATM   14 CL   UNL     1      -5.541   9.647  71.076  1.00  0.00    -0.058 Cl 
HETATM   15  C   UNL     1      -6.400   5.949  69.830  1.00  0.00    -0.037 A  
HETATM   16  C   UNL     1      -5.998   7.046  70.600  1.00  0.00    -0.027 A  
HETATM   17  C   UNL     1      -5.813   8.309  70.015  1.00  0.00    -0.022 A  
BRANCH  13  18
HETATM   18  C   UNL     1      -7.561   5.200  67.681  1.00  0.00    -0.087 C  
HETATM   19  C   UNL     1      -8.550   5.913  65.745  1.00  0.00    -0.154 C  
HETATM   20  C   UNL     1      -9.464   4.981  66.510  1.00  0.00    -0.149 C  
HETATM   21  O   UNL     1      -7.269   5.627  66.305  1.00  0.00    -0.074 OA 
HETATM   22  H   UNL     1      -5.990   2.485  66.590  1.00  0.00     0.000 HD 
HETATM   23  O   UNL     1      -9.020   5.331  67.854  1.00  0.00    -0.109 OA 
HETATM   24  C   UNL     1      -9.265   3.438  66.349  1.00  0.00    -0.163 C  
HETATM   25  O   UNL     1      -6.240   3.402  66.587  1.00  0.00    -0.027 OA 
HETATM   26  C   UNL     1      -8.402   2.839  67.488  1.00  0.00    -0.084 C  
HETATM   27  O   UNL     1      -8.763   3.134  65.048  1.00  0.00    -0.106 OA 
HETATM   28  H   UNL     1      -8.621   2.382  69.404  1.00  0.00     0.000 HD 
HETATM   29  H   UNL     1      -8.643   2.197  64.950  1.00  0.00     0.000 HD 
HETATM   30  O   UNL     1      -9.150   2.749  68.706  1.00  0.00    -0.119 OA 
HETATM   31  C   UNL     1      -7.148   3.689  67.685  1.00  0.00    -0.055 C  
BRANCH  20  32
HETATM   32  C   UNL     1     -10.906   5.297  66.051  1.00  0.00    -0.011 C  
HETATM   33  O   UNL     1     -11.412   4.379  65.078  1.00  0.00    -1.090 OA 
HETATM   34  H   UNL     1     -12.298   4.574  64.796  1.00  0.00     0.000 HD 
ENDBRANCH  20  32
ENDBRANCH  13  18
ENDBRANCH  10  11
ENDBRANCH   7  10
ENDBRANCH   3   4
ENDBRANCH   2   3
TORSDOF 6
ENDMDL
MODEL      223
REMARK 921   NORMALIZED FREE ENERGY PREDICTED BY IDOCK:   -3.29 KCAL/MOL
REMARK 922        TOTAL FREE ENERGY PREDICTED BY IDOCK:   -5.57 KCAL/MOL
REMARK 923 INTER-LIGAND FREE ENERGY PREDICTED BY IDOCK:   -4.13 KCAL/MOL
REMARK 924 INTRA-LIGAND FREE ENERGY PREDICTED BY IDOCK:   -1.44 KCAL/MOL
REMARK 927      BINDING AFFINITY PREDICTED BY RF-SCORE:    0.00 PKD
ROOT
HETATM    1  C   UNL     1      -9.858   3.274  62.347  1.00  0.00    -0.096 C  
HETATM    2  C   UNL     1      -8.976   3.673  63.520  1.00  0.00    -0.099 C  
ENDROOT
BRANCH   2   3
HETATM    3  O   UNL     1      -8.137   4.770  63.135  1.00  0.00    -0.079 OA 
BRANCH   3   4
HETATM    4  C   UNL     1      -7.925   5.709  64.112  1.00  0.00    -0.121 A  
HETATM    5  C   UNL     1      -6.663   6.301  64.131  1.00  0.00    -0.038 A  
HETATM    6  C   UNL     1      -6.285   7.145  65.184  1.00  0.00    -0.037 A  
HETATM    7  C   UNL     1      -7.173   7.408  66.242  1.00  0.00    -0.078 A  
HETATM    8  C   UNL     1      -8.482   6.914  66.141  1.00  0.00    -0.136 A  
HETATM    9  C   UNL     1      -8.858   6.076  65.081  1.00  0.00     0.046 A  
BRANCH   7  10
HETATM   10  C   UNL     1      -6.670   8.016  67.541  1.00  0.00    -0.069 C  
BRANCH  10  11
HETATM   11  C   UNL     1      -7.659   8.468  68.592  1.00  0.00    -0.098 A  
HETATM   12  C   UNL     1      -7.893   7.642  69.699  1.00  0.00    -0.108 A  
HETATM   13  C   UNL     1      -8.812   7.980  70.726  1.00  0.00    -0.142 A  
HETATM   14 CL   UNL     1      -8.288  10.717  67.166  1.00  0.00    -0.125 Cl 
HETATM   15  C   UNL     1      -9.329   9.274  70.744  1.00  0.00    -0.322 A  
HETATM   16  C   UNL     1      -9.098  10.121  69.654  1.00  0.00    -0.195 A  
HETATM   17  C   UNL     1      -8.329   9.694  68.560  1.00  0.00    -0.117 A  
BRANCH  13  18
HETATM   18  C   UNL     1      -9.412   6.850  71.543  1.00  0.00    -0.155 C  
HETATM   19  C   UNL     1      -8.211   4.948  71.962  1.00  0.00    -0.115 C  
HETATM   20  C   UNL     1      -9.680   4.633  71.783  1.00  0.00    -0.169 C  
HETATM   21  O   UNL     1      -8.221   6.347  72.243  1.00  0.00    -0.108 OA 
HETATM   22  H   UNL     1     -10.166   7.780  74.641  1.00  0.00     0.000 HD 
HETATM   23  O   UNL     1      -9.994   5.694  70.833  1.00  0.00    -0.178 OA 
HETATM   24  C   UNL     1     -10.639   4.814  73.005  1.00  0.00    -0.218 C  
HETATM   25  O   UNL     1      -9.594   7.508  73.932  1.00  0.00    -0.279 OA 
HETATM   26  C   UNL     1     -11.366   6.183  72.979  1.00  0.00    -0.112 C  
HETATM   27  O   UNL     1      -9.940   4.575  74.227  1.00  0.00    -0.148 OA 
HETATM   28  H   UNL     1     -12.850   7.034  71.978  1.00  0.00     0.000 HD 
HETATM   29  H   UNL     1     -10.523   4.685  74.969  1.00  0.00     0.000 HD 
HETATM   30  O   UNL     1     -12.405   6.195  71.994  1.00  0.00    -0.290 OA 
HETATM   31  C   UNL     1     -10.355   7.297  72.713  1.00  0.00    -0.240 C  
BRANCH  20  32
HETATM   32  C   UNL     1      -9.769   3.149  71.361  1.00  0.00    -0.149 C  
HETATM   33  O   UNL     1     -10.408   2.314  72.330  1.00  0.00    -0.159 OA 
HETATM   34  H   UNL     1     -10.462   1.402  72.070  1.00  0.00     0.000 HD 
ENDBRANCH  20  32
ENDBRANCH  13  18
ENDBRANCH  10  11
ENDBRANCH   7  10
ENDBRANCH   3   4
ENDBRANCH   2   3
TORSDOF 6
ENDMDL
MODEL      224
REMARK 921   NORMALIZED FREE ENERGY PREDICTED BY IDOCK:   -3.28 KCAL/MOL
REMARK 922        TOTAL FREE ENERGY PREDICTED BY IDOCK:   -5.57 KCAL/MOL
REMARK 923 INTER-LIGAND FREE ENERGY PREDICTED BY IDOCK:   -5.11 KCAL/MOL
REMARK 924 INTRA-LIGAND FREE ENERGY PREDICTED BY IDOCK:   -0.46 KCAL/MOL
REMARK 927      BINDING AFFINITY PREDICTED BY RF-SCORE:    0.00 PKD
ROOT
HETATM    1  C   UNL     1     -12.317  13.012  64.749  1.00  0.00    -0.490 C  
HETATM    2  C   UNL     1     -12.642  12.954  66.233  1.00  0.00     0.297 C  
ENDROOT
BRANCH   2   3
HETATM    3  O   UNL     1     -11.428  13.019  66.991  1.00  0.00    -0.299 OA 
BRANCH   3   4
HETATM    4  C   UNL     1     -11.312  12.081  67.985  1.00  0.00    -0.296 A  
HETATM    5  C   UNL     1     -10.993  10.787  67.575  1.00  0.00    -0.372 A  
HETATM    6  C   UNL     1     -11.016   9.723  68.486  1.00  0.00    -0.195 A  
HETATM    7  C   UNL     1     -11.365   9.940  69.830  1.00  0.00    -0.273 A  
HETATM    8  C   UNL     1     -11.553  11.264  70.255  1.00  0.00    -0.366 A  
HETATM    9  C   UNL     1     -11.521  12.327  69.341  1.00  0.00    -0.341 A  
BRANCH   7  10
HETATM   10  C   UNL     1     -11.738   8.774  70.732  1.00  0.00    -0.253 C  
BRANCH  10  11
HETATM   11  C   UNL     1     -11.035   7.445  70.570  1.00  0.00    -0.270 A  
HETATM   12  C   UNL     1     -10.180   7.261  69.475  1.00  0.00    -0.200 A  
HETATM   13  C   UNL     1      -9.490   6.044  69.238  1.00  0.00    -0.152 A  
HETATM   14 CL   UNL     1     -12.305   6.401  72.758  1.00  0.00     0.266 Cl 
HETATM   15  C   UNL     1      -9.490   5.082  70.247  1.00  0.00    -0.237 A  
HETATM   16  C   UNL     1     -10.327   5.251  71.356  1.00  0.00    -0.290 A  
HETATM   17  C   UNL     1     -11.142   6.388  71.478  1.00  0.00    -0.273 A  
BRANCH  13  18
HETATM   18  C   UNL     1      -9.066   5.733  67.814  1.00  0.00    -0.106 C  
HETATM   19  C   UNL     1      -9.588   3.723  66.854  1.00  0.00    -0.179 C  
HETATM   20  C   UNL     1      -8.237   4.214  66.383  1.00  0.00    -0.101 C  
HETATM   21  O   UNL     1     -10.197   4.911  67.359  1.00  0.00    -0.172 OA 
HETATM   22  H   UNL     1     -10.404   7.820  65.603  1.00  0.00     0.000 HD 
HETATM   23  O   UNL     1      -7.851   4.924  67.597  1.00  0.00    -0.093 OA 
HETATM   24  C   UNL     1      -8.183   5.249  65.211  1.00  0.00    -0.130 C  
HETATM   25  O   UNL     1     -10.391   7.081  66.201  1.00  0.00     0.179 OA 
HETATM   26  C   UNL     1      -8.060   6.706  65.725  1.00  0.00    -0.122 C  
HETATM   27  O   UNL     1      -9.288   5.059  64.328  1.00  0.00    -0.354 OA 
HETATM   28  H   UNL     1      -6.659   7.867  66.513  1.00  0.00     0.000 HD 
HETATM   29  H   UNL     1      -9.256   5.687  63.617  1.00  0.00     0.000 HD 
HETATM   30  O   UNL     1      -6.735   6.974  66.198  1.00  0.00    -0.050 OA 
HETATM   31  C   UNL     1      -9.088   6.952  66.829  1.00  0.00    -0.145 C  
BRANCH  20  32
HETATM   32  C   UNL     1      -7.449   2.969  65.917  1.00  0.00    -0.073 C  
HETATM   33  O   UNL     1      -6.075   2.978  66.315  1.00  0.00    -0.023 OA 
HETATM   34  H   UNL     1      -5.591   2.213  66.028  1.00  0.00     0.000 HD 
ENDBRANCH  20  32
ENDBRANCH  13  18
ENDBRANCH  10  11
ENDBRANCH   7  10
ENDBRANCH   3   4
ENDBRANCH   2   3
TORSDOF 6
ENDMDL
MODEL      225
REMARK 921   NORMALIZED FREE ENERGY PREDICTED BY IDOCK:   -3.18 KCAL/MOL
REMARK 922        TOTAL FREE ENERGY PREDICTED BY IDOCK:   -5.43 KCAL/MOL
REMARK 923 INTER-LIGAND FREE ENERGY PREDICTED BY IDOCK:   -5.15 KCAL/MOL
REMARK 924 INTRA-LIGAND FREE ENERGY PREDICTED BY IDOCK:   -0.28 KCAL/MOL
REMARK 927      BINDING AFFINITY PREDICTED BY RF-SCORE:    0.00 PKD
ROOT
HETATM    1  C   UNL     1      -9.982  11.582  64.557  1.00  0.00    -0.306 C  
HETATM    2  C   UNL     1     -10.233  12.588  65.670  1.00  0.00    -0.267 C  
ENDROOT
BRANCH   2   3
HETATM    3  O   UNL     1     -11.402  12.206  66.405  1.00  0.00    -0.321 OA 
BRANCH   3   4
HETATM    4  C   UNL     1     -11.237  11.132  67.242  1.00  0.00    -0.277 A  
HETATM    5  C   UNL     1     -11.484  11.363  68.594  1.00  0.00    -0.359 A  
HETATM    6  C   UNL     1     -11.185  10.386  69.553  1.00  0.00    -0.325 A  
HETATM    7  C   UNL     1     -10.627   9.155  69.167  1.00  0.00    -0.224 A  
HETATM    8  C   UNL     1     -10.510   8.887  67.795  1.00  0.00    -0.300 A  
HETATM    9  C   UNL     1     -10.818   9.865  66.839  1.00  0.00    -0.137 A  
BRANCH   7  10
HETATM   10  C   UNL     1      -9.977   8.243  70.195  1.00  0.00    -0.187 C  
BRANCH  10  11
HETATM   11  C   UNL     1      -8.773   7.415  69.811  1.00  0.00    -0.141 A  
HETATM   12  C   UNL     1      -8.823   6.655  68.634  1.00  0.00    -0.122 A  
HETATM   13  C   UNL     1      -7.745   5.839  68.202  1.00  0.00    -0.096 A  
HETATM   14 CL   UNL     1      -7.441   8.117  72.095  1.00  0.00    -0.110 Cl 
HETATM   15  C   UNL     1      -6.519   5.974  68.852  1.00  0.00    -0.049 A  
HETATM   16  C   UNL     1      -6.443   6.738  70.022  1.00  0.00    -0.040 A  
HETATM   17  C   UNL     1      -7.576   7.392  70.531  1.00  0.00    -0.087 A  
BRANCH  13  18
HETATM   18  C   UNL     1      -8.061   4.668  67.290  1.00  0.00    -0.102 C  
HETATM   19  C   UNL     1      -8.261   4.969  65.030  1.00  0.00    -0.133 C  
HETATM   20  C   UNL     1      -9.227   3.915  65.525  1.00  0.00    -0.151 C  
HETATM   21  O   UNL     1      -7.303   5.038  66.086  1.00  0.00    -0.075 OA 
HETATM   22  H   UNL     1      -5.716   2.318  67.377  1.00  0.00     0.000 HD 
HETATM   23  O   UNL     1      -9.457   4.466  66.854  1.00  0.00    -0.151 OA 
HETATM   24  C   UNL     1      -8.704   2.453  65.719  1.00  0.00    -0.121 C  
HETATM   25  O   UNL     1      -6.104   3.147  67.121  1.00  0.00    -0.023 OA 
HETATM   26  C   UNL     1      -8.303   2.167  67.188  1.00  0.00    -0.083 C  
HETATM   27  O   UNL     1      -7.658   2.171  64.789  1.00  0.00    -0.065 OA 
HETATM   28  H   UNL     1      -9.216   1.828  68.914  1.00  0.00     0.000 HD 
HETATM   29  H   UNL     1      -7.341   1.283  64.907  1.00  0.00     0.000 HD 
HETATM   30  O   UNL     1      -9.462   2.004  68.014  1.00  0.00    -0.199 OA 
HETATM   31  C   UNL     1      -7.422   3.300  67.712  1.00  0.00    -0.058 C  
BRANCH  20  32
HETATM   32  C   UNL     1     -10.375   3.846  64.493  1.00  0.00    -0.220 C  
HETATM   33  O   UNL     1     -10.707   2.513  64.093  1.00  0.00    -0.416 OA 
HETATM   34  H   UNL     1     -11.413   2.471  63.458  1.00  0.00     0.000 HD 
ENDBRANCH  20  32
ENDBRANCH  13  18
ENDBRANCH  10  11
ENDBRANCH   7  10
ENDBRANCH   3   4
ENDBRANCH   2   3
TORSDOF 6
ENDMDL
MODEL      226
REMARK 921   NORMALIZED FREE ENERGY PREDICTED BY IDOCK:   -3.16 KCAL/MOL
REMARK 922        TOTAL FREE ENERGY PREDICTED BY IDOCK:   -5.40 KCAL/MOL
REMARK 923 INTER-LIGAND FREE ENERGY PREDICTED BY IDOCK:   -4.15 KCAL/MOL
REMARK 924 INTRA-LIGAND FREE ENERGY PREDICTED BY IDOCK:   -1.25 KCAL/MOL
REMARK 927      BINDING AFFINITY PREDICTED BY RF-SCORE:    0.00 PKD
ROOT
HETATM    1  C   UNL     1      -6.079  14.144  71.178  1.00  0.00    -0.094 C  
HETATM    2  C   UNL     1      -5.137  13.636  70.099  1.00  0.00    -0.093 C  
ENDROOT
BRANCH   2   3
HETATM    3  O   UNL     1      -5.859  12.796  69.190  1.00  0.00    -0.072 OA 
BRANCH   3   4
HETATM    4  C   UNL     1      -6.198  11.562  69.683  1.00  0.00    -0.124 A  
HETATM    5  C   UNL     1      -7.492  11.124  69.407  1.00  0.00    -0.029 A  
HETATM    6  C   UNL     1      -7.994   9.959  70.003  1.00  0.00    -0.194 A  
HETATM    7  C   UNL     1      -7.202   9.212  70.891  1.00  0.00    -0.118 A  
HETATM    8  C   UNL     1      -5.860   9.590  71.053  1.00  0.00    -0.069 A  
HETATM    9  C   UNL     1      -5.360  10.753  70.449  1.00  0.00    -0.074 A  
BRANCH   7  10
HETATM   10  C   UNL     1      -7.831   8.172  71.803  1.00  0.00    -0.135 C  
BRANCH  10  11
HETATM   11  C   UNL     1      -8.766   7.133  71.226  1.00  0.00    -0.128 A  
HETATM   12  C   UNL     1      -8.401   6.480  70.041  1.00  0.00    -0.134 A  
HETATM   13  C   UNL     1      -9.221   5.501  69.422  1.00  0.00    -0.145 A  
HETATM   14 CL   UNL     1     -10.631   7.591  73.175  1.00  0.00    -0.415 Cl 
HETATM   15  C   UNL     1     -10.317   5.017  70.135  1.00  0.00    -0.306 A  
HETATM   16  C   UNL     1     -10.692   5.646  71.327  1.00  0.00    -0.312 A  
HETATM   17  C   UNL     1      -9.963   6.737  71.828  1.00  0.00    -0.174 A  
BRANCH  13  18
HETATM   18  C   UNL     1      -9.051   5.271  67.931  1.00  0.00    -0.110 C  
HETATM   19  C   UNL     1      -8.929   3.148  67.085  1.00  0.00    -0.159 C  
HETATM   20  C   UNL     1      -8.038   4.093  66.309  1.00  0.00    -0.098 C  
HETATM   21  O   UNL     1      -9.828   4.037  67.748  1.00  0.00    -0.137 OA 
HETATM   22  H   UNL     1     -11.586   6.480  66.159  1.00  0.00     0.000 HD 
HETATM   23  O   UNL     1      -7.700   4.991  67.408  1.00  0.00    -0.090 OA 
HETATM   24  C   UNL     1      -8.677   4.970  65.182  1.00  0.00    -0.150 C  
HETATM   25  O   UNL     1     -11.139   5.856  66.719  1.00  0.00    -0.262 OA 
HETATM   26  C   UNL     1      -9.033   6.393  65.681  1.00  0.00    -0.004 C  
HETATM   27  O   UNL     1      -9.785   4.291  64.591  1.00  0.00    -0.163 OA 
HETATM   28  H   UNL     1      -8.074   8.070  66.128  1.00  0.00     0.000 HD 
HETATM   29  H   UNL     1     -10.173   4.823  63.907  1.00  0.00     0.000 HD 
HETATM   30  O   UNL     1      -7.856   7.197  65.822  1.00  0.00    -0.097 OA 
HETATM   31  C   UNL     1      -9.787   6.301  67.007  1.00  0.00    -0.149 C  
BRANCH  20  32
HETATM   32  C   UNL     1      -6.948   3.227  65.639  1.00  0.00    -0.057 C  
HETATM   33  O   UNL     1      -7.349   1.871  65.418  1.00  0.00    -0.055 OA 
HETATM   34  H   UNL     1      -6.679   1.339  65.006  1.00  0.00     0.000 HD 
ENDBRANCH  20  32
ENDBRANCH  13  18
ENDBRANCH  10  11
ENDBRANCH   7  10
ENDBRANCH   3   4
ENDBRANCH   2   3
TORSDOF 6
ENDMDL
MODEL      227
REMARK 921   NORMALIZED FREE ENERGY PREDICTED BY IDOCK:   -3.08 KCAL/MOL
REMARK 922        TOTAL FREE ENERGY PREDICTED BY IDOCK:   -5.30 KCAL/MOL
REMARK 923 INTER-LIGAND FREE ENERGY PREDICTED BY IDOCK:   -4.06 KCAL/MOL
REMARK 924 INTRA-LIGAND FREE ENERGY PREDICTED BY IDOCK:   -1.24 KCAL/MOL
REMARK 927      BINDING AFFINITY PREDICTED BY RF-SCORE:    0.00 PKD
ROOT
HETATM    1  C   UNL     1      -6.399  14.696  70.260  1.00  0.00    -0.171 C  
HETATM    2  C   UNL     1      -5.449  14.108  69.229  1.00  0.00    -0.081 C  
ENDROOT
BRANCH   2   3
HETATM    3  O   UNL     1      -6.181  13.266  68.330  1.00  0.00    -0.080 OA 
BRANCH   3   4
HETATM    4  C   UNL     1      -6.657  12.103  68.880  1.00  0.00    -0.090 A  
HETATM    5  C   UNL     1      -7.984  11.787  68.593  1.00  0.00    -0.116 A  
HETATM    6  C   UNL     1      -8.619  10.716  69.236  1.00  0.00    -0.096 A  
HETATM    7  C   UNL     1      -7.928   9.943  70.186  1.00  0.00    -0.181 A  
HETATM    8  C   UNL     1      -6.558  10.189  70.365  1.00  0.00    -0.132 A  
HETATM    9  C   UNL     1      -5.926  11.258  69.712  1.00  0.00    -0.103 A  
BRANCH   7  10
HETATM   10  C   UNL     1      -8.683   9.027  71.136  1.00  0.00    -0.266 C  
BRANCH  10  11
HETATM   11  C   UNL     1      -9.524   7.899  70.583  1.00  0.00    -0.162 A  
HETATM   12  C   UNL     1      -8.896   6.696  70.234  1.00  0.00    -0.152 A  
HETATM   13  C   UNL     1      -9.604   5.590  69.696  1.00  0.00    -0.210 A  
HETATM   14 CL   UNL     1     -11.789   9.434  70.641  1.00  0.00    -0.295 Cl 
HETATM   15  C   UNL     1     -10.998   5.626  69.726  1.00  0.00    -0.301 A  
HETATM   16  C   UNL     1     -11.646   6.813  70.084  1.00  0.00    -0.397 A  
HETATM   17  C   UNL     1     -10.913   7.957  70.440  1.00  0.00    -0.249 A  
BRANCH  13  18
HETATM   18  C   UNL     1      -8.831   4.594  68.850  1.00  0.00    -0.099 C  
HETATM   19  C   UNL     1      -6.562   4.396  69.064  1.00  0.00    -0.045 C  
HETATM   20  C   UNL     1      -6.992   4.186  67.629  1.00  0.00    -0.056 C  
HETATM   21  O   UNL     1      -7.775   4.191  69.789  1.00  0.00    -0.053 OA 
HETATM   22  H   UNL     1      -9.765   1.456  69.408  1.00  0.00     0.000 HD 
HETATM   23  O   UNL     1      -8.145   5.078  67.637  1.00  0.00    -0.098 OA 
HETATM   24  C   UNL     1      -7.509   2.773  67.201  1.00  0.00    -0.065 C  
HETATM   25  O   UNL     1      -9.311   2.271  69.590  1.00  0.00    -0.118 OA 
HETATM   26  C   UNL     1      -9.056   2.684  67.231  1.00  0.00    -0.164 C  
HETATM   27  O   UNL     1      -6.875   1.755  67.976  1.00  0.00    -0.035 OA 
HETATM   28  H   UNL     1     -10.579   3.323  66.136  1.00  0.00     0.000 HD 
HETATM   29  H   UNL     1      -7.189   0.897  67.716  1.00  0.00     0.000 HD 
HETATM   30  O   UNL     1      -9.631   3.378  66.118  1.00  0.00    -0.147 OA 
HETATM   31  C   UNL     1      -9.579   3.250  68.550  1.00  0.00    -0.055 C  
BRANCH  20  32
HETATM   32  C   UNL     1      -5.762   4.499  66.747  1.00  0.00    -0.018 C  
HETATM   33  O   UNL     1      -6.033   5.429  65.695  1.00  0.00    -0.024 OA 
HETATM   34  H   UNL     1      -5.277   5.621  65.153  1.00  0.00     0.000 HD 
ENDBRANCH  20  32
ENDBRANCH  13  18
ENDBRANCH  10  11
ENDBRANCH   7  10
ENDBRANCH   3   4
ENDBRANCH   2   3
TORSDOF 6
ENDMDL
MODEL      228
REMARK 921   NORMALIZED FREE ENERGY PREDICTED BY IDOCK:   -3.07 KCAL/MOL
REMARK 922        TOTAL FREE ENERGY PREDICTED BY IDOCK:   -5.28 KCAL/MOL
REMARK 923 INTER-LIGAND FREE ENERGY PREDICTED BY IDOCK:   -4.28 KCAL/MOL
REMARK 924 INTRA-LIGAND FREE ENERGY PREDICTED BY IDOCK:   -1.00 KCAL/MOL
REMARK 927      BINDING AFFINITY PREDICTED BY RF-SCORE:    0.00 PKD
ROOT
HETATM    1  C   UNL     1      -9.488  19.336  66.945  1.00  0.00    -0.386 C  
HETATM    2  C   UNL     1      -8.322  18.390  66.703  1.00  0.00    -0.265 C  
ENDROOT
BRANCH   2   3
HETATM    3  O   UNL     1      -7.632  18.157  67.937  1.00  0.00    -0.224 OA 
BRANCH   3   4
HETATM    4  C   UNL     1      -7.183  16.873  68.118  1.00  0.00    -0.170 A  
HETATM    5  C   UNL     1      -5.841  16.735  68.468  1.00  0.00    -0.130 A  
HETATM    6  C   UNL     1      -5.241  15.470  68.513  1.00  0.00    -0.095 A  
HETATM    7  C   UNL     1      -5.982  14.316  68.201  1.00  0.00    -0.135 A  
HETATM    8  C   UNL     1      -7.360  14.459  67.982  1.00  0.00    -0.148 A  
HETATM    9  C   UNL     1      -7.958  15.727  67.947  1.00  0.00    -0.147 A  
BRANCH   7  10
HETATM   10  C   UNL     1      -5.279  13.002  67.900  1.00  0.00    -0.109 C  
BRANCH  10  11
HETATM   11  C   UNL     1      -5.725  11.735  68.593  1.00  0.00    -0.045 A  
HETATM   12  C   UNL     1      -5.949  10.586  67.822  1.00  0.00    -0.044 A  
HETATM   13  C   UNL     1      -6.381   9.358  68.385  1.00  0.00    -0.053 A  
HETATM   14 CL   UNL     1      -5.839  12.990  71.022  1.00  0.00    -0.085 Cl 
HETATM   15  C   UNL     1      -6.366   9.231  69.773  1.00  0.00    -0.039 A  
HETATM   16  C   UNL     1      -6.134  10.363  70.563  1.00  0.00    -0.116 A  
HETATM   17  C   UNL     1      -5.886  11.614  69.976  1.00  0.00    -0.141 A  
BRANCH  13  18
HETATM   18  C   UNL     1      -7.117   8.382  67.484  1.00  0.00    -0.083 C  
HETATM   19  C   UNL     1      -9.057   8.998  66.438  1.00  0.00    -0.170 C  
HETATM   20  C   UNL     1      -9.095   7.539  66.838  1.00  0.00    -0.141 C  
HETATM   21  O   UNL     1      -7.661   9.296  66.469  1.00  0.00    -0.092 OA 
HETATM   22  H   UNL     1      -5.297   7.440  64.871  1.00  0.00     0.000 HD 
HETATM   23  O   UNL     1      -8.269   7.642  68.034  1.00  0.00    -0.121 OA 
HETATM   24  C   UNL     1      -8.416   6.487  65.900  1.00  0.00    -0.147 C  
HETATM   25  O   UNL     1      -5.852   8.023  65.376  1.00  0.00    -0.037 OA 
HETATM   26  C   UNL     1      -6.979   6.137  66.362  1.00  0.00    -0.067 C  
HETATM   27  O   UNL     1      -8.477   6.919  64.541  1.00  0.00    -0.337 OA 
HETATM   28  H   UNL     1      -6.122   5.074  67.799  1.00  0.00     0.000 HD 
HETATM   29  H   UNL     1      -8.064   6.280  63.972  1.00  0.00     0.000 HD 
HETATM   30  O   UNL     1      -7.003   5.289  67.516  1.00  0.00    -0.062 OA 
HETATM   31  C   UNL     1      -6.203   7.421  66.651  1.00  0.00    -0.044 C  
BRANCH  20  32
HETATM   32  C   UNL     1     -10.587   7.147  66.944  1.00  0.00    -0.301 C  
HETATM   33  O   UNL     1     -10.798   5.748  67.153  1.00  0.00    -0.348 OA 
HETATM   34  H   UNL     1     -11.715   5.507  67.217  1.00  0.00     0.000 HD 
ENDBRANCH  20  32
ENDBRANCH  13  18
ENDBRANCH  10  11
ENDBRANCH   7  10
ENDBRANCH   3   4
ENDBRANCH   2   3
TORSDOF 6
ENDMDL
MODEL      229
REMARK 921   NORMALIZED FREE ENERGY PREDICTED BY IDOCK:   -2.99 KCAL/MOL
REMARK 922        TOTAL FREE ENERGY PREDICTED BY IDOCK:   -5.17 KCAL/MOL
REMARK 923 INTER-LIGAND FREE ENERGY PREDICTED BY IDOCK:   -4.36 KCAL/MOL
REMARK 924 INTRA-LIGAND FREE ENERGY PREDICTED BY IDOCK:   -0.81 KCAL/MOL
REMARK 927      BINDING AFFINITY PREDICTED BY RF-SCORE:    0.00 PKD
ROOT
HETATM    1  C   UNL     1      -8.748  19.116  66.411  1.00  0.00    -0.336 C  
HETATM    2  C   UNL     1      -7.624  18.103  66.264  1.00  0.00    -0.264 C  
ENDROOT
BRANCH   2   3
HETATM    3  O   UNL     1      -7.139  17.734  67.561  1.00  0.00    -0.181 OA 
BRANCH   3   4
HETATM    4  C   UNL     1      -6.930  16.391  67.744  1.00  0.00    -0.138 A  
HETATM    5  C   UNL     1      -5.677  16.025  68.233  1.00  0.00    -0.110 A  
HETATM    6  C   UNL     1      -5.301  14.676  68.296  1.00  0.00    -0.113 A  
HETATM    7  C   UNL     1      -6.180  13.668  67.865  1.00  0.00    -0.158 A  
HETATM    8  C   UNL     1      -7.482  14.042  67.502  1.00  0.00    -0.186 A  
HETATM    9  C   UNL     1      -7.857  15.392  67.447  1.00  0.00    -0.215 A  
BRANCH   7  10
HETATM   10  C   UNL     1      -5.671  12.261  67.594  1.00  0.00    -0.113 C  
BRANCH  10  11
HETATM   11  C   UNL     1      -6.095  11.123  68.495  1.00  0.00    -0.042 A  
HETATM   12  C   UNL     1      -6.688   9.991  67.920  1.00  0.00    -0.067 A  
HETATM   13  C   UNL     1      -7.127   8.882  68.689  1.00  0.00    -0.071 A  
HETATM   14 CL   UNL     1      -5.352  12.499  70.740  1.00  0.00    -0.154 Cl 
HETATM   15  C   UNL     1      -6.752   8.825  70.031  1.00  0.00    -0.039 A  
HETATM   16  C   UNL     1      -6.148   9.939  70.622  1.00  0.00    -0.095 A  
HETATM   17  C   UNL     1      -5.887  11.100  69.877  1.00  0.00    -0.099 A  
BRANCH  13  18
HETATM   18  C   UNL     1      -8.218   8.001  68.107  1.00  0.00    -0.126 C  
HETATM   19  C   UNL     1      -7.753   5.866  67.426  1.00  0.00    -0.097 C  
HETATM   20  C   UNL     1      -8.794   6.506  66.534  1.00  0.00    -0.138 C  
HETATM   21  O   UNL     1      -7.801   6.679  68.599  1.00  0.00    -0.110 OA 
HETATM   22  H   UNL     1     -10.674   7.423  70.267  1.00  0.00     0.000 HD 
HETATM   23  O   UNL     1      -8.325   7.882  66.640  1.00  0.00    -0.118 OA 
HETATM   24  C   UNL     1     -10.288   6.494  66.998  1.00  0.00    -0.253 C  
HETATM   25  O   UNL     1      -9.812   7.308  69.882  1.00  0.00    -0.176 OA 
HETATM   26  C   UNL     1     -10.692   7.817  67.699  1.00  0.00    -0.157 C  
HETATM   27  O   UNL     1     -10.554   5.338  67.791  1.00  0.00    -0.143 OA 
HETATM   28  H   UNL     1     -11.105   9.683  67.175  1.00  0.00     0.000 HD 
HETATM   29  H   UNL     1     -11.461   5.331  68.072  1.00  0.00     0.000 HD 
HETATM   30  O   UNL     1     -10.858   8.873  66.745  1.00  0.00    -0.126 OA 
HETATM   31  C   UNL     1      -9.638   8.190  68.741  1.00  0.00    -0.149 C  
BRANCH  20  32
HETATM   32  C   UNL     1      -8.739   5.759  65.182  1.00  0.00    -0.066 C  
HETATM   33  O   UNL     1      -8.367   6.593  64.081  1.00  0.00    -0.319 OA 
HETATM   34  H   UNL     1      -8.334   6.134  63.250  1.00  0.00     0.000 HD 
ENDBRANCH  20  32
ENDBRANCH  13  18
ENDBRANCH  10  11
ENDBRANCH   7  10
ENDBRANCH   3   4
ENDBRANCH   2   3
TORSDOF 6
ENDMDL
MODEL      230
REMARK 921   NORMALIZED FREE ENERGY PREDICTED BY IDOCK:   -2.98 KCAL/MOL
REMARK 922        TOTAL FREE ENERGY PREDICTED BY IDOCK:   -5.16 KCAL/MOL
REMARK 923 INTER-LIGAND FREE ENERGY PREDICTED BY IDOCK:   -4.07 KCAL/MOL
REMARK 924 INTRA-LIGAND FREE ENERGY PREDICTED BY IDOCK:   -1.09 KCAL/MOL
REMARK 927      BINDING AFFINITY PREDICTED BY RF-SCORE:    0.00 PKD
ROOT
HETATM    1  C   UNL     1      -6.891  10.307  62.986  1.00  0.00    -0.125 C  
HETATM    2  C   UNL     1      -6.093   9.212  63.676  1.00  0.00    -0.088 C  
ENDROOT
BRANCH   2   3
HETATM    3  O   UNL     1      -6.313   9.279  65.091  1.00  0.00    -0.067 OA 
BRANCH   3   4
HETATM    4  C   UNL     1      -6.655   8.090  65.683  1.00  0.00    -0.042 A  
HETATM    5  C   UNL     1      -6.238   7.918  67.002  1.00  0.00    -0.054 A  
HETATM    6  C   UNL     1      -6.387   6.681  67.643  1.00  0.00    -0.044 A  
HETATM    7  C   UNL     1      -6.957   5.589  66.965  1.00  0.00    -0.065 A  
HETATM    8  C   UNL     1      -7.492   5.814  65.688  1.00  0.00    -0.077 A  
HETATM    9  C   UNL     1      -7.348   7.057  65.053  1.00  0.00    -0.083 A  
BRANCH   7  10
HETATM   10  C   UNL     1      -6.803   4.176  67.505  1.00  0.00    -0.051 C  
BRANCH  10  11
HETATM   11  C   UNL     1      -7.361   3.827  68.866  1.00  0.00    -0.054 A  
HETATM   12  C   UNL     1      -8.398   4.609  69.392  1.00  0.00    -0.080 A  
HETATM   13  C   UNL     1      -8.973   4.362  70.666  1.00  0.00    -0.158 A  
HETATM   14 CL   UNL     1      -5.545   1.807  69.196  1.00  0.00    -0.013 Cl 
HETATM   15  C   UNL     1      -8.647   3.171  71.313  1.00  0.00    -0.106 A  
HETATM   16  C   UNL     1      -7.622   2.369  70.799  1.00  0.00    -0.036 A  
HETATM   17  C   UNL     1      -6.941   2.732  69.626  1.00  0.00    -0.034 A  
BRANCH  13  18
HETATM   18  C   UNL     1      -9.646   5.521  71.379  1.00  0.00    -0.154 C  
HETATM   19  C   UNL     1     -10.718   7.157  70.191  1.00  0.00    -0.240 C  
HETATM   20  C   UNL     1     -10.049   7.730  71.421  1.00  0.00    -0.182 C  
HETATM   21  O   UNL     1     -10.795   5.764  70.495  1.00  0.00    -0.283 OA 
HETATM   22  H   UNL     1     -12.099   4.530  73.386  1.00  0.00     0.000 HD 
HETATM   23  O   UNL     1      -8.924   6.804  71.482  1.00  0.00    -0.138 OA 
HETATM   24  C   UNL     1     -10.795   7.635  72.793  1.00  0.00    -0.360 C  
HETATM   25  O   UNL     1     -11.693   4.746  72.555  1.00  0.00     0.098 OA 
HETATM   26  C   UNL     1     -10.328   6.416  73.627  1.00  0.00    -0.286 C  
HETATM   27  O   UNL     1     -12.208   7.669  72.594  1.00  0.00    -0.549 OA 
HETATM   28  H   UNL     1      -8.748   5.901  74.708  1.00  0.00     0.000 HD 
HETATM   29  H   UNL     1     -12.661   7.611  73.427  1.00  0.00     0.000 HD 
HETATM   30  O   UNL     1      -9.034   6.648  74.197  1.00  0.00    -0.150 OA 
HETATM   31  C   UNL     1     -10.315   5.165  72.750  1.00  0.00    -0.197 C  
BRANCH  20  32
HETATM   32  C   UNL     1      -9.816   9.232  71.141  1.00  0.00    -0.272 C  
HETATM   33  O   UNL     1      -9.425   9.510  69.793  1.00  0.00    -0.181 OA 
HETATM   34  H   UNL     1      -9.282  10.434  69.622  1.00  0.00     0.000 HD 
ENDBRANCH  20  32
ENDBRANCH  13  18
ENDBRANCH  10  11
ENDBRANCH   7  10
ENDBRANCH   3   4
ENDBRANCH   2   3
TORSDOF 6
ENDMDL
MODEL      231
REMARK 921   NORMALIZED FREE ENERGY PREDICTED BY IDOCK:   -2.73 KCAL/MOL
REMARK 922        TOTAL FREE ENERGY PREDICTED BY IDOCK:   -4.82 KCAL/MOL
REMARK 923 INTER-LIGAND FREE ENERGY PREDICTED BY IDOCK:   -3.51 KCAL/MOL
REMARK 924 INTRA-LIGAND FREE ENERGY PREDICTED BY IDOCK:   -1.32 KCAL/MOL
REMARK 927      BINDING AFFINITY PREDICTED BY RF-SCORE:    0.00 PKD
ROOT
HETATM    1  C   UNL     1     -13.232  10.037  70.882  1.00  0.00    -0.336 C  
HETATM    2  C   UNL     1     -12.360   9.347  69.846  1.00  0.00     0.723 C  
ENDROOT
BRANCH   2   3
HETATM    3  O   UNL     1     -11.352   8.572  70.509  1.00  0.00    -0.262 OA 
BRANCH   3   4
HETATM    4  C   UNL     1     -11.047   7.378  69.907  1.00  0.00    -0.190 A  
HETATM    5  C   UNL     1     -10.298   6.481  70.667  1.00  0.00    -0.239 A  
HETATM    6  C   UNL     1      -9.792   5.307  70.092  1.00  0.00    -0.290 A  
HETATM    7  C   UNL     1     -10.027   5.016  68.738  1.00  0.00    -0.225 A  
HETATM    8  C   UNL     1     -10.892   5.859  68.024  1.00  0.00    -0.321 A  
HETATM    9  C   UNL     1     -11.403   7.028  68.605  1.00  0.00     0.110 A  
BRANCH   7  10
HETATM   10  C   UNL     1      -9.206   3.957  68.019  1.00  0.00    -0.212 C  
BRANCH  10  11
HETATM   11  C   UNL     1      -8.347   4.346  66.838  1.00  0.00    -0.101 A  
HETATM   12  C   UNL     1      -7.928   5.678  66.716  1.00  0.00    -0.102 A  
HETATM   13  C   UNL     1      -7.130   6.134  65.635  1.00  0.00    -0.072 A  
HETATM   14 CL   UNL     1      -8.489   1.825  65.784  1.00  0.00    -0.098 Cl 
HETATM   15  C   UNL     1      -6.563   5.181  64.790  1.00  0.00    -0.043 A  
HETATM   16  C   UNL     1      -6.958   3.844  64.901  1.00  0.00    -0.054 A  
HETATM   17  C   UNL     1      -7.892   3.445  65.870  1.00  0.00    -0.085 A  
BRANCH  13  18
HETATM   18  C   UNL     1      -7.195   7.608  65.276  1.00  0.00    -0.065 C  
HETATM   19  C   UNL     1      -6.583   9.206  66.795  1.00  0.00    -0.068 C  
HETATM   20  C   UNL     1      -7.732   9.686  65.936  1.00  0.00    -0.102 C  
HETATM   21  O   UNL     1      -6.045   8.130  66.027  1.00  0.00    -0.041 OA 
HETATM   22  H   UNL     1      -5.198   8.391  62.741  1.00  0.00     0.000 HD 
HETATM   23  O   UNL     1      -8.366   8.392  65.714  1.00  0.00    -0.128 OA 
HETATM   24  C   UNL     1      -7.413  10.287  64.527  1.00  0.00    -0.088 C  
HETATM   25  O   UNL     1      -5.413   8.183  63.643  1.00  0.00    -0.052 OA 
HETATM   26  C   UNL     1      -7.565   9.237  63.397  1.00  0.00    -0.110 C  
HETATM   27  O   UNL     1      -6.134  10.921  64.533  1.00  0.00    -0.376 OA 
HETATM   28  H   UNL     1      -9.039   8.333  62.428  1.00  0.00     0.000 HD 
HETATM   29  H   UNL     1      -5.941  11.286  63.678  1.00  0.00     0.000 HD 
HETATM   30  O   UNL     1      -8.946   8.977  63.120  1.00  0.00    -0.114 OA 
HETATM   31  C   UNL     1      -6.840   7.951  63.789  1.00  0.00    -0.063 C  
BRANCH  20  32
HETATM   32  C   UNL     1      -8.457  10.790  66.739  1.00  0.00    -0.134 C  
HETATM   33  O   UNL     1      -8.954  11.857  65.928  1.00  0.00    -0.370 OA 
HETATM   34  H   UNL     1      -9.399  12.536  66.422  1.00  0.00     0.000 HD 
ENDBRANCH  20  32
ENDBRANCH  13  18
ENDBRANCH  10  11
ENDBRANCH   7  10
ENDBRANCH   3   4
ENDBRANCH   2   3
TORSDOF 6
ENDMDL
MODEL      232
REMARK 921   NORMALIZED FREE ENERGY PREDICTED BY IDOCK:   -2.73 KCAL/MOL
REMARK 922        TOTAL FREE ENERGY PREDICTED BY IDOCK:   -4.82 KCAL/MOL
REMARK 923 INTER-LIGAND FREE ENERGY PREDICTED BY IDOCK:   -4.23 KCAL/MOL
REMARK 924 INTRA-LIGAND FREE ENERGY PREDICTED BY IDOCK:   -0.59 KCAL/MOL
REMARK 927      BINDING AFFINITY PREDICTED BY RF-SCORE:    0.00 PKD
ROOT
HETATM    1  C   UNL     1      -6.745  16.736  68.662  1.00  0.00    -0.174 C  
HETATM    2  C   UNL     1      -7.445  15.689  67.811  1.00  0.00    -0.145 C  
ENDROOT
BRANCH   2   3
HETATM    3  O   UNL     1      -8.092  14.735  68.663  1.00  0.00    -0.139 OA 
BRANCH   3   4
HETATM    4  C   UNL     1      -8.424  13.549  68.060  1.00  0.00    -0.176 A  
HETATM    5  C   UNL     1      -7.788  12.410  68.552  1.00  0.00    -0.112 A  
HETATM    6  C   UNL     1      -7.927  11.177  67.902  1.00  0.00    -0.114 A  
HETATM    7  C   UNL     1      -8.708  11.066  66.738  1.00  0.00    -0.152 A  
HETATM    8  C   UNL     1      -9.447  12.188  66.333  1.00  0.00    -0.238 A  
HETATM    9  C   UNL     1      -9.311  13.418  66.992  1.00  0.00    -0.243 A  
BRANCH   7  10
HETATM   10  C   UNL     1      -8.584   9.849  65.835  1.00  0.00    -0.149 C  
BRANCH  10  11
HETATM   11  C   UNL     1      -9.108   8.510  66.303  1.00  0.00    -0.232 A  
HETATM   12  C   UNL     1      -8.430   7.347  65.915  1.00  0.00    -0.155 A  
HETATM   13  C   UNL     1      -8.857   6.048  66.296  1.00  0.00    -0.144 A  
HETATM   14 CL   UNL     1     -11.250   9.675  67.544  1.00  0.00    -0.038 Cl 
HETATM   15  C   UNL     1      -9.849   5.944  67.270  1.00  0.00    -0.155 A  
HETATM   16  C   UNL     1     -10.531   7.094  67.682  1.00  0.00    -0.306 A  
HETATM   17  C   UNL     1     -10.208   8.353  67.150  1.00  0.00    -0.292 A  
BRANCH  13  18
HETATM   18  C   UNL     1      -8.448   4.879  65.419  1.00  0.00    -0.133 C  
HETATM   19  C   UNL     1      -9.836   4.116  63.768  1.00  0.00    -0.099 C  
HETATM   20  C   UNL     1      -9.071   2.976  64.403  1.00  0.00    -0.121 C  
HETATM   21  O   UNL     1      -9.065   5.259  64.140  1.00  0.00     0.039 OA 
HETATM   22  H   UNL     1      -5.705   5.510  63.656  1.00  0.00     0.000 HD 
HETATM   23  O   UNL     1      -8.963   3.535  65.745  1.00  0.00    -0.128 OA 
HETATM   24  C   UNL     1      -7.615   2.685  63.909  1.00  0.00    -0.067 C  
HETATM   25  O   UNL     1      -6.631   5.555  63.865  1.00  0.00    -0.032 OA 
HETATM   26  C   UNL     1      -6.548   3.345  64.819  1.00  0.00    -0.039 C  
HETATM   27  O   UNL     1      -7.475   3.040  62.534  1.00  0.00    -0.049 OA 
HETATM   28  H   UNL     1      -5.760   3.037  66.611  1.00  0.00     0.000 HD 
HETATM   29  H   UNL     1      -6.591   2.863  62.235  1.00  0.00     0.000 HD 
HETATM   30  O   UNL     1      -6.414   2.632  66.054  1.00  0.00    -0.027 OA 
HETATM   31  C   UNL     1      -6.921   4.805  65.074  1.00  0.00    -0.061 C  
BRANCH  20  32
HETATM   32  C   UNL     1      -9.894   1.693  64.149  1.00  0.00    -0.081 C  
HETATM   33  O   UNL     1     -11.185   1.942  63.585  1.00  0.00    -0.466 OA 
HETATM   34  H   UNL     1     -11.691   1.154  63.430  1.00  0.00     0.000 HD 
ENDBRANCH  20  32
ENDBRANCH  13  18
ENDBRANCH  10  11
ENDBRANCH   7  10
ENDBRANCH   3   4
ENDBRANCH   2   3
TORSDOF 6
ENDMDL
MODEL      233
REMARK 921   NORMALIZED FREE ENERGY PREDICTED BY IDOCK:   -2.71 KCAL/MOL
REMARK 922        TOTAL FREE ENERGY PREDICTED BY IDOCK:   -4.79 KCAL/MOL
REMARK 923 INTER-LIGAND FREE ENERGY PREDICTED BY IDOCK:   -4.03 KCAL/MOL
REMARK 924 INTRA-LIGAND FREE ENERGY PREDICTED BY IDOCK:   -0.76 KCAL/MOL
REMARK 927      BINDING AFFINITY PREDICTED BY RF-SCORE:    0.00 PKD
ROOT
HETATM    1  C   UNL     1      -7.186   4.836  62.706  1.00  0.00    -0.039 C  
HETATM    2  C   UNL     1      -7.938   3.562  63.059  1.00  0.00    -0.072 C  
ENDROOT
BRANCH   2   3
HETATM    3  O   UNL     1      -7.213   2.842  64.064  1.00  0.00    -0.053 OA 
BRANCH   3   4
HETATM    4  C   UNL     1      -7.801   2.823  65.303  1.00  0.00    -0.081 A  
HETATM    5  C   UNL     1      -7.707   3.999  66.046  1.00  0.00    -0.090 A  
HETATM    6  C   UNL     1      -8.123   4.034  67.383  1.00  0.00    -0.091 A  
HETATM    7  C   UNL     1      -8.641   2.882  68.001  1.00  0.00    -0.115 A  
HETATM    8  C   UNL     1      -8.853   1.748  67.204  1.00  0.00    -0.143 A  
HETATM    9  C   UNL     1      -8.442   1.719  65.864  1.00  0.00    -0.105 A  
BRANCH   7  10
HETATM   10  C   UNL     1      -8.760   2.803  69.514  1.00  0.00    -0.131 C  
BRANCH  10  11
HETATM   11  C   UNL     1      -9.349   3.963  70.284  1.00  0.00    -0.238 A  
HETATM   12  C   UNL     1      -9.586   5.170  69.611  1.00  0.00    -0.234 A  
HETATM   13  C   UNL     1     -10.124   6.314  70.256  1.00  0.00    -0.226 A  
HETATM   14 CL   UNL     1      -9.311   2.551  72.627  1.00  0.00    -0.122 Cl 
HETATM   15  C   UNL     1     -10.638   6.160  71.543  1.00  0.00    -0.288 A  
HETATM   16  C   UNL     1     -10.424   4.960  72.229  1.00  0.00    -0.267 A  
HETATM   17  C   UNL     1      -9.725   3.900  71.628  1.00  0.00    -0.170 A  
BRANCH  13  18
HETATM   18  C   UNL     1      -9.829   7.675  69.651  1.00  0.00    -0.181 C  
HETATM   19  C   UNL     1     -11.524   8.983  68.843  1.00  0.00     0.647 C  
HETATM   20  C   UNL     1     -10.271   9.143  68.011  1.00  0.00    -0.211 C  
HETATM   21  O   UNL     1     -11.025   8.427  70.059  1.00  0.00    -0.244 OA 
HETATM   22  H   UNL     1      -8.443   9.763  71.830  1.00  0.00     0.000 HD 
HETATM   23  O   UNL     1      -9.747   7.794  68.182  1.00  0.00    -0.149 OA 
HETATM   24  C   UNL     1      -9.164  10.131  68.507  1.00  0.00    -0.144 C  
HETATM   25  O   UNL     1      -9.154   9.283  71.421  1.00  0.00    -0.299 OA 
HETATM   26  C   UNL     1      -8.040   9.404  69.288  1.00  0.00    -0.105 C  
HETATM   27  O   UNL     1      -9.749  11.207  69.240  1.00  0.00    -0.409 OA 
HETATM   28  H   UNL     1      -6.494   8.234  68.878  1.00  0.00     0.000 HD 
HETATM   29  H   UNL     1      -9.076  11.806  69.541  1.00  0.00     0.000 HD 
HETATM   30  O   UNL     1      -7.182   8.679  68.399  1.00  0.00    -0.082 OA 
HETATM   31  C   UNL     1      -8.658   8.467  70.326  1.00  0.00    -0.137 C  
BRANCH  20  32
HETATM   32  C   UNL     1     -10.723   9.640  66.619  1.00  0.00    -0.032 C  
HETATM   33  O   UNL     1     -10.148  10.895  66.243  1.00  0.00    -0.218 OA 
HETATM   34  H   UNL     1     -10.426  11.200  65.388  1.00  0.00     0.000 HD 
ENDBRANCH  20  32
ENDBRANCH  13  18
ENDBRANCH  10  11
ENDBRANCH   7  10
ENDBRANCH   3   4
ENDBRANCH   2   3
TORSDOF 6
ENDMDL
MODEL      234
REMARK 921   NORMALIZED FREE ENERGY PREDICTED BY IDOCK:   -2.70 KCAL/MOL
REMARK 922        TOTAL FREE ENERGY PREDICTED BY IDOCK:   -4.78 KCAL/MOL
REMARK 923 INTER-LIGAND FREE ENERGY PREDICTED BY IDOCK:   -4.49 KCAL/MOL
REMARK 924 INTRA-LIGAND FREE ENERGY PREDICTED BY IDOCK:   -0.29 KCAL/MOL
REMARK 927      BINDING AFFINITY PREDICTED BY RF-SCORE:    0.00 PKD
ROOT
HETATM    1  C   UNL     1     -11.154  12.792  66.533  1.00  0.00    -0.321 C  
HETATM    2  C   UNL     1     -11.344  13.414  67.908  1.00  0.00    -0.289 C  
ENDROOT
BRANCH   2   3
HETATM    3  O   UNL     1     -12.361  12.699  68.620  1.00  0.00    -0.039 OA 
BRANCH   3   4
HETATM    4  C   UNL     1     -11.963  11.501  69.155  1.00  0.00    -0.320 A  
HETATM    5  C   UNL     1     -12.088  11.373  70.538  1.00  0.00    -0.487 A  
HETATM    6  C   UNL     1     -11.558  10.260  71.204  1.00  0.00    -0.385 A  
HETATM    7  C   UNL     1     -10.886   9.253  70.489  1.00  0.00    -0.318 A  
HETATM    8  C   UNL     1     -10.885   9.330  69.088  1.00  0.00    -0.154 A  
HETATM    9  C   UNL     1     -11.424  10.442  68.425  1.00  0.00    -0.227 A  
BRANCH   7  10
HETATM   10  C   UNL     1     -10.010   8.243  71.212  1.00  0.00    -0.243 C  
BRANCH  10  11
HETATM   11  C   UNL     1      -8.694   7.817  70.603  1.00  0.00    -0.139 A  
HETATM   12  C   UNL     1      -8.686   7.313  69.296  1.00  0.00    -0.137 A  
HETATM   13  C   UNL     1      -7.500   6.878  68.650  1.00  0.00    -0.099 A  
HETATM   14 CL   UNL     1      -7.340   8.354  72.920  1.00  0.00    -0.140 Cl 
HETATM   15  C   UNL     1      -6.278   7.170  69.254  1.00  0.00    -0.035 A  
HETATM   16  C   UNL     1      -6.262   7.685  70.555  1.00  0.00    -0.037 A  
HETATM   17  C   UNL     1      -7.459   7.939  71.245  1.00  0.00    -0.073 A  
BRANCH  13  18
HETATM   18  C   UNL     1      -7.633   5.867  67.525  1.00  0.00    -0.093 C  
HETATM   19  C   UNL     1      -5.812   5.265  66.275  1.00  0.00    -0.018 C  
HETATM   20  C   UNL     1      -7.066   5.293  65.429  1.00  0.00    -0.066 C  
HETATM   21  O   UNL     1      -6.331   5.188  67.603  1.00  0.00    -0.037 OA 
HETATM   22  H   UNL     1      -8.633   2.889  68.602  1.00  0.00     0.000 HD 
HETATM   23  O   UNL     1      -7.759   6.361  66.140  1.00  0.00    -0.088 OA 
HETATM   24  C   UNL     1      -8.008   4.045  65.445  1.00  0.00    -0.093 C  
HETATM   25  O   UNL     1      -8.011   3.590  68.445  1.00  0.00    -0.069 OA 
HETATM   26  C   UNL     1      -9.186   4.215  66.438  1.00  0.00    -0.157 C  
HETATM   27  O   UNL     1      -7.254   2.854  65.671  1.00  0.00    -0.067 OA 
HETATM   28  H   UNL     1     -10.892   5.221  66.525  1.00  0.00     0.000 HD 
HETATM   29  H   UNL     1      -7.826   2.097  65.681  1.00  0.00     0.000 HD 
HETATM   30  O   UNL     1     -10.170   5.117  65.917  1.00  0.00    -0.174 OA 
HETATM   31  C   UNL     1      -8.658   4.710  67.783  1.00  0.00    -0.103 C  
BRANCH  20  32
HETATM   32  C   UNL     1      -6.609   5.491  63.966  1.00  0.00    -0.033 C  
HETATM   33  O   UNL     1      -7.519   4.950  63.003  1.00  0.00    -0.050 OA 
HETATM   34  H   UNL     1      -7.238   5.072  62.104  1.00  0.00     0.000 HD 
ENDBRANCH  20  32
ENDBRANCH  13  18
ENDBRANCH  10  11
ENDBRANCH   7  10
ENDBRANCH   3   4
ENDBRANCH   2   3
TORSDOF 6
ENDMDL
MODEL      235
REMARK 921   NORMALIZED FREE ENERGY PREDICTED BY IDOCK:   -2.65 KCAL/MOL
REMARK 922        TOTAL FREE ENERGY PREDICTED BY IDOCK:   -4.72 KCAL/MOL
REMARK 923 INTER-LIGAND FREE ENERGY PREDICTED BY IDOCK:   -3.39 KCAL/MOL
REMARK 924 INTRA-LIGAND FREE ENERGY PREDICTED BY IDOCK:   -1.33 KCAL/MOL
REMARK 927      BINDING AFFINITY PREDICTED BY RF-SCORE:    0.00 PKD
ROOT
HETATM    1  C   UNL     1     -12.795   1.553  73.372  1.00  0.00    -0.089 C  
HETATM    2  C   UNL     1     -11.428   2.156  73.656  1.00  0.00    -0.204 C  
ENDROOT
BRANCH   2   3
HETATM    3  O   UNL     1     -10.475   1.643  72.717  1.00  0.00    -0.126 OA 
BRANCH   3   4
HETATM    4  C   UNL     1      -9.673   2.587  72.128  1.00  0.00    -0.136 A  
HETATM    5  C   UNL     1      -8.625   2.102  71.347  1.00  0.00    -0.096 A  
HETATM    6  C   UNL     1      -7.650   2.971  70.840  1.00  0.00    -0.036 A  
HETATM    7  C   UNL     1      -7.710   4.349  71.114  1.00  0.00    -0.068 A  
HETATM    8  C   UNL     1      -8.840   4.838  71.786  1.00  0.00    -0.139 A  
HETATM    9  C   UNL     1      -9.817   3.965  72.285  1.00  0.00    -0.228 A  
BRANCH   7  10
HETATM   10  C   UNL     1      -6.498   5.237  70.883  1.00  0.00    -0.034 C  
BRANCH  10  11
HETATM   11  C   UNL     1      -6.643   6.740  70.960  1.00  0.00    -0.053 A  
HETATM   12  C   UNL     1      -7.173   7.426  69.859  1.00  0.00    -0.081 A  
HETATM   13  C   UNL     1      -7.333   8.836  69.838  1.00  0.00    -0.052 A  
HETATM   14 CL   UNL     1      -5.483   6.819  73.437  1.00  0.00    -0.042 Cl 
HETATM   15  C   UNL     1      -7.165   9.532  71.034  1.00  0.00    -0.001 A  
HETATM   16  C   UNL     1      -6.648   8.865  72.150  1.00  0.00     0.001 A  
HETATM   17  C   UNL     1      -6.326   7.500  72.090  1.00  0.00    -0.043 A  
BRANCH  13  18
HETATM   18  C   UNL     1      -7.365   9.528  68.488  1.00  0.00    -0.079 C  
HETATM   19  C   UNL     1      -7.431  11.811  68.348  1.00  0.00    -0.105 C  
HETATM   20  C   UNL     1      -8.234  11.176  67.235  1.00  0.00    -0.136 C  
HETATM   21  O   UNL     1      -6.588  10.742  68.777  1.00  0.00    -0.051 OA 
HETATM   22  H   UNL     1      -4.661   8.892  66.667  1.00  0.00     0.000 HD 
HETATM   23  O   UNL     1      -8.664   9.985  67.957  1.00  0.00    -0.124 OA 
HETATM   24  C   UNL     1      -7.482  10.688  65.953  1.00  0.00    -0.131 C  
HETATM   25  O   UNL     1      -5.165   9.317  67.352  1.00  0.00    -0.036 OA 
HETATM   26  C   UNL     1      -7.158   9.174  66.007  1.00  0.00    -0.090 C  
HETATM   27  O   UNL     1      -6.331  11.498  65.712  1.00  0.00    -0.386 OA 
HETATM   28  H   UNL     1      -8.135   7.461  65.810  1.00  0.00     0.000 HD 
HETATM   29  H   UNL     1      -5.875  11.202  64.934  1.00  0.00     0.000 HD 
HETATM   30  O   UNL     1      -8.334   8.389  65.777  1.00  0.00    -0.128 OA 
HETATM   31  C   UNL     1      -6.534   8.829  67.358  1.00  0.00    -0.057 C  
BRANCH  20  32
HETATM   32  C   UNL     1      -9.266  12.231  66.774  1.00  0.00    -0.210 C  
HETATM   33  O   UNL     1      -9.380  12.339  65.353  1.00  0.00    -0.435 OA 
HETATM   34  H   UNL     1     -10.014  12.987  65.070  1.00  0.00     0.000 HD 
ENDBRANCH  20  32
ENDBRANCH  13  18
ENDBRANCH  10  11
ENDBRANCH   7  10
ENDBRANCH   3   4
ENDBRANCH   2   3
TORSDOF 6
ENDMDL
MODEL      236
REMARK 921   NORMALIZED FREE ENERGY PREDICTED BY IDOCK:   -2.65 KCAL/MOL
REMARK 922        TOTAL FREE ENERGY PREDICTED BY IDOCK:   -4.71 KCAL/MOL
REMARK 923 INTER-LIGAND FREE ENERGY PREDICTED BY IDOCK:   -3.59 KCAL/MOL
REMARK 924 INTRA-LIGAND FREE ENERGY PREDICTED BY IDOCK:   -1.12 KCAL/MOL
REMARK 927      BINDING AFFINITY PREDICTED BY RF-SCORE:    0.00 PKD
ROOT
HETATM    1  C   UNL     1      -5.970  15.272  67.234  1.00  0.00     0.243 C  
HETATM    2  C   UNL     1      -6.399  14.091  68.089  1.00  0.00    -0.128 C  
ENDROOT
BRANCH   2   3
HETATM    3  O   UNL     1      -7.266  13.240  67.329  1.00  0.00    -0.137 OA 
BRANCH   3   4
HETATM    4  C   UNL     1      -8.240  12.603  68.056  1.00  0.00    -0.167 A  
HETATM    5  C   UNL     1      -7.854  11.430  68.704  1.00  0.00    -0.139 A  
HETATM    6  C   UNL     1      -8.805  10.615  69.333  1.00  0.00    -0.037 A  
HETATM    7  C   UNL     1     -10.167  10.964  69.318  1.00  0.00    -0.190 A  
HETATM    8  C   UNL     1     -10.520  12.211  68.779  1.00  0.00    -0.201 A  
HETATM    9  C   UNL     1      -9.564  13.027  68.158  1.00  0.00    -0.227 A  
BRANCH   7  10
HETATM   10  C   UNL     1     -11.233   9.940  69.671  1.00  0.00    -0.251 C  
BRANCH  10  11
HETATM   11  C   UNL     1     -11.004   8.479  69.358  1.00  0.00    -0.020 A  
HETATM   12  C   UNL     1     -11.019   7.552  70.410  1.00  0.00    -0.264 A  
HETATM   13  C   UNL     1     -10.801   6.164  70.210  1.00  0.00    -0.385 A  
HETATM   14 CL   UNL     1     -10.588   9.014  66.707  1.00  0.00    -0.261 Cl 
HETATM   15  C   UNL     1     -10.795   5.682  68.902  1.00  0.00    -0.229 A  
HETATM   16  C   UNL     1     -10.792   6.589  67.837  1.00  0.00    -0.383 A  
HETATM   17  C   UNL     1     -10.826   7.973  68.067  1.00  0.00     0.056 A  
BRANCH  13  18
HETATM   18  C   UNL     1     -10.284   5.350  71.383  1.00  0.00    -0.216 C  
HETATM   19  C   UNL     1      -9.146   3.396  71.035  1.00  0.00    -0.112 C  
HETATM   20  C   UNL     1      -9.997   3.313  72.283  1.00  0.00    -0.165 C  
HETATM   21  O   UNL     1      -9.042   4.803  70.818  1.00  0.00    -0.121 OA 
HETATM   22  H   UNL     1      -8.069   7.018  73.212  1.00  0.00     0.000 HD 
HETATM   23  O   UNL     1     -11.075   4.193  71.845  1.00  0.00     0.412 OA 
HETATM   24  C   UNL     1      -9.433   3.908  73.615  1.00  0.00    -0.102 C  
HETATM   25  O   UNL     1      -8.373   6.510  72.468  1.00  0.00    -0.114 OA 
HETATM   26  C   UNL     1      -9.946   5.347  73.874  1.00  0.00    -0.191 C  
HETATM   27  O   UNL     1      -8.010   3.808  73.641  1.00  0.00    -0.083 OA 
HETATM   28  H   UNL     1     -11.626   6.218  74.462  1.00  0.00     0.000 HD 
HETATM   29  H   UNL     1      -7.667   4.169  74.450  1.00  0.00     0.000 HD 
HETATM   30  O   UNL     1     -11.312   5.336  74.303  1.00  0.00     0.232 OA 
HETATM   31  C   UNL     1      -9.783   6.188  72.609  1.00  0.00    -0.156 C  
BRANCH  20  32
HETATM   32  C   UNL     1     -10.264   1.812  72.540  1.00  0.00    -0.149 C  
HETATM   33  O   UNL     1     -10.795   1.539  73.840  1.00  0.00    -0.104 OA 
HETATM   34  H   UNL     1     -10.958   0.616  73.998  1.00  0.00     0.000 HD 
ENDBRANCH  20  32
ENDBRANCH  13  18
ENDBRANCH  10  11
ENDBRANCH   7  10
ENDBRANCH   3   4
ENDBRANCH   2   3
TORSDOF 6
ENDMDL
MODEL      237
REMARK 921   NORMALIZED FREE ENERGY PREDICTED BY IDOCK:   -2.61 KCAL/MOL
REMARK 922        TOTAL FREE ENERGY PREDICTED BY IDOCK:   -4.67 KCAL/MOL
REMARK 923 INTER-LIGAND FREE ENERGY PREDICTED BY IDOCK:   -3.64 KCAL/MOL
REMARK 924 INTRA-LIGAND FREE ENERGY PREDICTED BY IDOCK:   -1.02 KCAL/MOL
REMARK 927      BINDING AFFINITY PREDICTED BY RF-SCORE:    0.00 PKD
ROOT
HETATM    1  C   UNL     1      -9.001  13.508  68.069  1.00  0.00    -0.189 C  
HETATM    2  C   UNL     1      -7.760  13.240  67.233  1.00  0.00    -0.088 C  
ENDROOT
BRANCH   2   3
HETATM    3  O   UNL     1      -6.901  12.329  67.930  1.00  0.00    -0.075 OA 
BRANCH   3   4
HETATM    4  C   UNL     1      -7.014  11.016  67.549  1.00  0.00    -0.086 A  
HETATM    5  C   UNL     1      -7.529  10.789  66.273  1.00  0.00    -0.138 A  
HETATM    6  C   UNL     1      -7.843   9.490  65.850  1.00  0.00    -0.100 A  
HETATM    7  C   UNL     1      -7.646   8.393  66.707  1.00  0.00    -0.090 A  
HETATM    8  C   UNL     1      -7.004   8.622  67.933  1.00  0.00    -0.078 A  
HETATM    9  C   UNL     1      -6.685   9.923  68.349  1.00  0.00    -0.055 A  
BRANCH   7  10
HETATM   10  C   UNL     1      -8.298   7.052  66.410  1.00  0.00    -0.125 C  
BRANCH  10  11
HETATM   11  C   UNL     1      -8.043   5.874  67.322  1.00  0.00    -0.102 A  
HETATM   12  C   UNL     1      -8.533   5.918  68.635  1.00  0.00    -0.111 A  
HETATM   13  C   UNL     1      -8.330   4.864  69.563  1.00  0.00    -0.085 A  
HETATM   14 CL   UNL     1      -6.563   4.593  65.410  1.00  0.00    -0.043 Cl 
HETATM   15  C   UNL     1      -7.823   3.657  69.085  1.00  0.00    -0.052 A  
HETATM   16  C   UNL     1      -7.340   3.587  67.773  1.00  0.00    -0.058 A  
HETATM   17  C   UNL     1      -7.387   4.706  66.926  1.00  0.00    -0.081 A  
BRANCH  13  18
HETATM   18  C   UNL     1      -8.376   5.201  71.043  1.00  0.00    -0.119 C  
HETATM   19  C   UNL     1     -10.370   5.636  72.078  1.00  0.00    -0.212 C  
HETATM   20  C   UNL     1      -9.261   6.488  72.655  1.00  0.00    -0.137 C  
HETATM   21  O   UNL     1      -9.653   4.585  71.430  1.00  0.00    -0.146 OA 
HETATM   22  H   UNL     1      -7.235   2.731  72.947  1.00  0.00     0.000 HD 
HETATM   23  O   UNL     1      -8.462   6.619  71.443  1.00  0.00    -0.123 OA 
HETATM   24  C   UNL     1      -8.333   5.868  73.752  1.00  0.00    -0.115 C  
HETATM   25  O   UNL     1      -7.871   3.187  72.407  1.00  0.00    -0.056 OA 
HETATM   26  C   UNL     1      -7.016   5.312  73.154  1.00  0.00    -0.080 C  
HETATM   27  O   UNL     1      -9.049   4.904  74.523  1.00  0.00    -0.110 OA 
HETATM   28  H   UNL     1      -5.313   6.033  72.442  1.00  0.00     0.000 HD 
HETATM   29  H   UNL     1      -8.486   4.528  75.188  1.00  0.00     0.000 HD 
HETATM   30  O   UNL     1      -6.120   6.375  72.808  1.00  0.00    -0.048 OA 
HETATM   31  C   UNL     1      -7.329   4.449  71.933  1.00  0.00    -0.069 C  
BRANCH  20  32
HETATM   32  C   UNL     1      -9.937   7.726  73.288  1.00  0.00    -0.307 C  
HETATM   33  O   UNL     1     -11.319   7.530  73.597  1.00  0.00    -0.561 OA 
HETATM   34  H   UNL     1     -11.734   8.291  73.986  1.00  0.00     0.000 HD 
ENDBRANCH  20  32
ENDBRANCH  13  18
ENDBRANCH  10  11
ENDBRANCH   7  10
ENDBRANCH   3   4
ENDBRANCH   2   3
TORSDOF 6
ENDMDL
MODEL      238
REMARK 921   NORMALIZED FREE ENERGY PREDICTED BY IDOCK:   -2.42 KCAL/MOL
REMARK 922        TOTAL FREE ENERGY PREDICTED BY IDOCK:   -4.41 KCAL/MOL
REMARK 923 INTER-LIGAND FREE ENERGY PREDICTED BY IDOCK:   -3.08 KCAL/MOL
REMARK 924 INTRA-LIGAND FREE ENERGY PREDICTED BY IDOCK:   -1.33 KCAL/MOL
REMARK 927      BINDING AFFINITY PREDICTED BY RF-SCORE:    0.00 PKD
ROOT
HETATM    1  C   UNL     1      -7.919  13.861  67.904  1.00  0.00    -0.160 C  
HETATM    2  C   UNL     1      -8.328  12.406  67.735  1.00  0.00    -0.164 C  
ENDROOT
BRANCH   2   3
HETATM    3  O   UNL     1      -8.712  11.867  69.006  1.00  0.00     0.097 OA 
BRANCH   3   4
HETATM    4  C   UNL     1      -9.445  10.709  68.948  1.00  0.00    -0.192 A  
HETATM    5  C   UNL     1      -9.351   9.867  70.056  1.00  0.00    -0.232 A  
HETATM    6  C   UNL     1      -9.922   8.588  70.031  1.00  0.00    -0.191 A  
HETATM    7  C   UNL     1     -10.596   8.128  68.887  1.00  0.00    -0.161 A  
HETATM    8  C   UNL     1     -10.797   9.033  67.834  1.00  0.00    -0.118 A  
HETATM    9  C   UNL     1     -10.231  10.316  67.866  1.00  0.00    -0.217 A  
BRANCH   7  10
HETATM   10  C   UNL     1     -10.903   6.650  68.710  1.00  0.00    -0.321 C  
BRANCH  10  11
HETATM   11  C   UNL     1      -9.770   5.662  68.548  1.00  0.00    -0.172 A  
HETATM   12  C   UNL     1      -8.974   5.729  67.397  1.00  0.00    -0.108 A  
HETATM   13  C   UNL     1      -7.898   4.835  67.156  1.00  0.00    -0.095 A  
HETATM   14 CL   UNL     1     -10.433   4.377  70.871  1.00  0.00     0.012 Cl 
HETATM   15  C   UNL     1      -7.484   4.010  68.201  1.00  0.00    -0.067 A  
HETATM   16  C   UNL     1      -8.257   3.937  69.365  1.00  0.00    -0.069 A  
HETATM   17  C   UNL     1      -9.425   4.703  69.505  1.00  0.00    -0.166 A  
BRANCH  13  18
HETATM   18  C   UNL     1      -7.475   4.604  65.716  1.00  0.00    -0.081 C  
HETATM   19  C   UNL     1      -6.755   6.346  64.419  1.00  0.00    -0.034 C  
HETATM   20  C   UNL     1      -7.527   5.339  63.595  1.00  0.00    -0.055 C  
HETATM   21  O   UNL     1      -6.398   5.595  65.579  1.00  0.00    -0.036 OA 
HETATM   22  H   UNL     1      -4.873   2.554  65.468  1.00  0.00     0.000 HD 
HETATM   23  O   UNL     1      -8.442   4.891  64.639  1.00  0.00    -0.131 OA 
HETATM   24  C   UNL     1      -6.778   4.071  63.067  1.00  0.00    -0.035 C  
HETATM   25  O   UNL     1      -5.314   3.380  65.634  1.00  0.00    -0.009 OA 
HETATM   26  C   UNL     1      -6.990   2.843  63.989  1.00  0.00    -0.041 C  
HETATM   27  O   UNL     1      -5.401   4.366  62.836  1.00  0.00    -0.009 OA 
HETATM   28  H   UNL     1      -8.433   1.545  64.390  1.00  0.00     0.000 HD 
HETATM   29  H   UNL     1      -4.947   3.596  62.515  1.00  0.00     0.000 HD 
HETATM   30  O   UNL     1      -8.304   2.298  63.825  1.00  0.00    -0.080 OA 
HETATM   31  C   UNL     1      -6.748   3.243  65.443  1.00  0.00    -0.041 C  
BRANCH  20  32
HETATM   32  C   UNL     1      -8.059   6.093  62.355  1.00  0.00    -0.100 C  
HETATM   33  O   UNL     1      -7.731   7.485  62.347  1.00  0.00    -0.104 OA 
HETATM   34  H   UNL     1      -8.059   7.949  61.585  1.00  0.00     0.000 HD 
ENDBRANCH  20  32
ENDBRANCH  13  18
ENDBRANCH  10  11
ENDBRANCH   7  10
ENDBRANCH   3   4
ENDBRANCH   2   3
TORSDOF 6
ENDMDL
MODEL      239
REMARK 921   NORMALIZED FREE ENERGY PREDICTED BY IDOCK:   -2.29 KCAL/MOL
REMARK 922        TOTAL FREE ENERGY PREDICTED BY IDOCK:   -4.24 KCAL/MOL
REMARK 923 INTER-LIGAND FREE ENERGY PREDICTED BY IDOCK:   -3.72 KCAL/MOL
REMARK 924 INTRA-LIGAND FREE ENERGY PREDICTED BY IDOCK:   -0.52 KCAL/MOL
REMARK 927      BINDING AFFINITY PREDICTED BY RF-SCORE:    0.00 PKD
ROOT
HETATM    1  C   UNL     1      -8.925  12.853  67.783  1.00  0.00    -0.191 C  
HETATM    2  C   UNL     1      -7.520  12.283  67.669  1.00  0.00    -0.134 C  
ENDROOT
BRANCH   2   3
HETATM    3  O   UNL     1      -7.320  11.298  68.691  1.00  0.00    -0.094 OA 
BRANCH   3   4
HETATM    4  C   UNL     1      -7.546  10.002  68.302  1.00  0.00    -0.084 A  
HETATM    5  C   UNL     1      -7.592   9.773  66.928  1.00  0.00    -0.095 A  
HETATM    6  C   UNL     1      -7.982   8.524  66.425  1.00  0.00    -0.099 A  
HETATM    7  C   UNL     1      -8.337   7.482  67.298  1.00  0.00    -0.118 A  
HETATM    8  C   UNL     1      -8.157   7.686  68.674  1.00  0.00    -0.127 A  
HETATM    9  C   UNL     1      -7.759   8.935  69.173  1.00  0.00    -0.092 A  
BRANCH   7  10
HETATM   10  C   UNL     1      -9.089   6.264  66.784  1.00  0.00    -0.141 C  
BRANCH  10  11
HETATM   11  C   UNL     1      -9.192   5.026  67.646  1.00  0.00    -0.132 A  
HETATM   12  C   UNL     1      -9.448   5.176  69.016  1.00  0.00    -0.186 A  
HETATM   13  C   UNL     1      -9.548   4.071  69.901  1.00  0.00    -0.281 A  
HETATM   14 CL   UNL     1      -8.591   3.392  65.535  1.00  0.00    -0.108 Cl 
HETATM   15  C   UNL     1      -9.616   2.792  69.350  1.00  0.00    -0.051 A  
HETATM   16  C   UNL     1      -9.377   2.621  67.982  1.00  0.00    -0.255 A  
HETATM   17  C   UNL     1      -9.099   3.721  67.155  1.00  0.00    -0.159 A  
BRANCH  13  18
HETATM   18  C   UNL     1      -9.263   4.312  71.373  1.00  0.00    -0.134 C  
HETATM   19  C   UNL     1      -7.675   5.826  72.022  1.00  0.00    -0.102 C  
HETATM   20  C   UNL     1      -7.713   4.642  72.963  1.00  0.00    -0.088 C  
HETATM   21  O   UNL     1      -8.940   5.746  71.365  1.00  0.00    -0.139 OA 
HETATM   22  H   UNL     1     -11.909   5.478  73.007  1.00  0.00     0.000 HD 
HETATM   23  O   UNL     1      -8.110   3.630  71.991  1.00  0.00    -0.069 OA 
HETATM   24  C   UNL     1      -8.784   4.627  74.104  1.00  0.00    -0.107 C  
HETATM   25  O   UNL     1     -11.152   5.528  72.434  1.00  0.00    -0.248 OA 
HETATM   26  C   UNL     1     -10.043   3.813  73.711  1.00  0.00    -0.130 C  
HETATM   27  O   UNL     1      -9.086   5.958  74.521  1.00  0.00    -0.126 OA 
HETATM   28  H   UNL     1     -10.551   1.907  73.517  1.00  0.00     0.000 HD 
HETATM   29  H   UNL     1      -9.736   5.948  75.214  1.00  0.00     0.000 HD 
HETATM   30  O   UNL     1      -9.779   2.405  73.757  1.00  0.00    -0.088 OA 
HETATM   31  C   UNL     1     -10.511   4.229  72.318  1.00  0.00    -0.094 C  
BRANCH  20  32
HETATM   32  C   UNL     1      -6.329   4.575  73.648  1.00  0.00    -0.046 C  
HETATM   33  O   UNL     1      -5.482   3.546  73.128  1.00  0.00     0.000 OA 
HETATM   34  H   UNL     1      -4.631   3.505  73.549  1.00  0.00     0.000 HD 
ENDBRANCH  20  32
ENDBRANCH  13  18
ENDBRANCH  10  11
ENDBRANCH   7  10
ENDBRANCH   3   4
ENDBRANCH   2   3
TORSDOF 6
ENDMDL
MODEL      240
REMARK 921   NORMALIZED FREE ENERGY PREDICTED BY IDOCK:   -2.24 KCAL/MOL
REMARK 922        TOTAL FREE ENERGY PREDICTED BY IDOCK:   -4.16 KCAL/MOL
REMARK 923 INTER-LIGAND FREE ENERGY PREDICTED BY IDOCK:   -2.99 KCAL/MOL
REMARK 924 INTRA-LIGAND FREE ENERGY PREDICTED BY IDOCK:   -1.17 KCAL/MOL
REMARK 927      BINDING AFFINITY PREDICTED BY RF-SCORE:    0.00 PKD
ROOT
HETATM    1  C   UNL     1      -8.668   5.499  62.652  1.00  0.00     0.021 C  
HETATM    2  C   UNL     1      -8.533   5.858  64.123  1.00  0.00     0.060 C  
ENDROOT
BRANCH   2   3
HETATM    3  O   UNL     1      -8.002   7.184  64.246  1.00  0.00    -0.125 OA 
BRANCH   3   4
HETATM    4  C   UNL     1      -7.535   7.510  65.493  1.00  0.00    -0.084 A  
HETATM    5  C   UNL     1      -6.365   8.267  65.533  1.00  0.00    -0.049 A  
HETATM    6  C   UNL     1      -5.713   8.512  66.748  1.00  0.00    -0.044 A  
HETATM    7  C   UNL     1      -6.225   7.994  67.951  1.00  0.00    -0.051 A  
HETATM    8  C   UNL     1      -7.471   7.350  67.912  1.00  0.00    -0.101 A  
HETATM    9  C   UNL     1      -8.124   7.114  66.693  1.00  0.00    -0.109 A  
BRANCH   7  10
HETATM   10  C   UNL     1      -5.363   7.943  69.202  1.00  0.00    -0.026 C  
BRANCH  10  11
HETATM   11  C   UNL     1      -6.004   8.093  70.563  1.00  0.00    -0.032 A  
HETATM   12  C   UNL     1      -6.756   7.028  71.077  1.00  0.00    -0.053 A  
HETATM   13  C   UNL     1      -7.402   7.085  72.339  1.00  0.00    -0.084 A  
HETATM   14 CL   UNL     1      -5.128  10.675  70.796  1.00  0.00    -0.072 Cl 
HETATM   15  C   UNL     1      -7.094   8.148  73.186  1.00  0.00    -0.147 A  
HETATM   16  C   UNL     1      -6.334   9.217  72.698  1.00  0.00     0.183 A  
HETATM   17  C   UNL     1      -5.855   9.218  71.378  1.00  0.00    -0.070 A  
BRANCH  13  18
HETATM   18  C   UNL     1      -8.602   6.183  72.564  1.00  0.00    -0.121 C  
HETATM   19  C   UNL     1      -8.558   4.567  74.184  1.00  0.00    -0.104 C  
HETATM   20  C   UNL     1      -9.346   4.105  72.978  1.00  0.00    -0.110 C  
HETATM   21  O   UNL     1      -8.534   5.985  74.019  1.00  0.00    -0.119 OA 
HETATM   22  H   UNL     1     -11.313   7.872  73.473  1.00  0.00     0.000 HD 
HETATM   23  O   UNL     1      -8.597   4.835  71.962  1.00  0.00    -0.117 OA 
HETATM   24  C   UNL     1     -10.842   4.543  72.848  1.00  0.00    -0.199 C  
HETATM   25  O   UNL     1     -10.466   7.459  73.598  1.00  0.00    -0.360 OA 
HETATM   26  C   UNL     1     -11.008   5.793  71.946  1.00  0.00    -0.259 C  
HETATM   27  O   UNL     1     -11.428   4.704  74.140  1.00  0.00    -0.221 OA 
HETATM   28  H   UNL     1     -10.951   6.218  70.011  1.00  0.00     0.000 HD 
HETATM   29  H   UNL     1     -12.336   4.970  74.061  1.00  0.00     0.000 HD 
HETATM   30  O   UNL     1     -10.849   5.452  70.564  1.00  0.00    -0.239 OA 
HETATM   31  C   UNL     1      -9.999   6.863  72.359  1.00  0.00    -0.165 C  
BRANCH  20  32
HETATM   32  C   UNL     1      -9.333   2.559  73.004  1.00  0.00    -0.088 C  
HETATM   33  O   UNL     1     -10.558   1.984  73.467  1.00  0.00    -0.109 OA 
HETATM   34  H   UNL     1     -10.550   1.034  73.484  1.00  0.00     0.000 HD 
ENDBRANCH  20  32
ENDBRANCH  13  18
ENDBRANCH  10  11
ENDBRANCH   7  10
ENDBRANCH   3   4
ENDBRANCH   2   3
TORSDOF 6
ENDMDL
MODEL      241
REMARK 921   NORMALIZED FREE ENERGY PREDICTED BY IDOCK:   -2.01 KCAL/MOL
REMARK 922        TOTAL FREE ENERGY PREDICTED BY IDOCK:   -3.86 KCAL/MOL
REMARK 923 INTER-LIGAND FREE ENERGY PREDICTED BY IDOCK:   -2.69 KCAL/MOL
REMARK 924 INTRA-LIGAND FREE ENERGY PREDICTED BY IDOCK:   -1.16 KCAL/MOL
REMARK 927      BINDING AFFINITY PREDICTED BY RF-SCORE:    0.00 PKD
ROOT
HETATM    1  C   UNL     1      -7.792  14.012  68.057  1.00  0.00    -0.152 C  
HETATM    2  C   UNL     1      -8.236  12.565  67.911  1.00  0.00    -0.165 C  
ENDROOT
BRANCH   2   3
HETATM    3  O   UNL     1      -8.620  12.051  69.192  1.00  0.00     0.241 OA 
BRANCH   3   4
HETATM    4  C   UNL     1      -9.383  10.911  69.157  1.00  0.00    -0.078 A  
HETATM    5  C   UNL     1      -9.290  10.075  70.268  1.00  0.00    -0.012 A  
HETATM    6  C   UNL     1      -9.894   8.810  70.263  1.00  0.00    -0.198 A  
HETATM    7  C   UNL     1     -10.602   8.361  69.134  1.00  0.00    -0.177 A  
HETATM    8  C   UNL     1     -10.799   9.265  68.079  1.00  0.00    -0.166 A  
HETATM    9  C   UNL     1     -10.199  10.532  68.092  1.00  0.00    -0.187 A  
BRANCH   7  10
HETATM   10  C   UNL     1     -10.949   6.890  68.973  1.00  0.00    -0.225 C  
BRANCH  10  11
HETATM   11  C   UNL     1      -9.846   5.872  68.795  1.00  0.00    -0.177 A  
HETATM   12  C   UNL     1      -9.546   5.008  69.856  1.00  0.00    -0.246 A  
HETATM   13  C   UNL     1      -8.519   4.031  69.782  1.00  0.00    -0.089 A  
HETATM   14 CL   UNL     1      -9.252   6.814  66.295  1.00  0.00    -0.181 Cl 
HETATM   15  C   UNL     1      -7.944   3.777  68.538  1.00  0.00    -0.072 A  
HETATM   16  C   UNL     1      -8.239   4.620  67.460  1.00  0.00    -0.101 A  
HETATM   17  C   UNL     1      -9.127   5.697  67.609  1.00  0.00    -0.106 A  
BRANCH  13  18
HETATM   18  C   UNL     1      -7.896   3.554  71.082  1.00  0.00    -0.058 C  
HETATM   19  C   UNL     1      -8.388   1.482  71.919  1.00  0.00    -0.045 C  
HETATM   20  C   UNL     1      -8.195   2.486  73.034  1.00  0.00    -0.069 C  
HETATM   21  O   UNL     1      -7.750   2.117  70.811  1.00  0.00    -0.039 OA 
HETATM   22  H   UNL     1      -4.585   3.364  70.913  1.00  0.00     0.000 HD 
HETATM   23  O   UNL     1      -8.683   3.663  72.326  1.00  0.00    -0.090 OA 
HETATM   24  C   UNL     1      -6.740   2.808  73.509  1.00  0.00    -0.023 C  
HETATM   25  O   UNL     1      -5.479   3.078  70.762  1.00  0.00    -0.011 OA 
HETATM   26  C   UNL     1      -6.176   4.085  72.837  1.00  0.00    -0.016 C  
HETATM   27  O   UNL     1      -5.897   1.668  73.340  1.00  0.00     0.000 OA 
HETATM   28  H   UNL     1      -6.416   6.046  72.988  1.00  0.00     0.000 HD 
HETATM   29  H   UNL     1      -5.014   1.863  73.629  1.00  0.00     0.000 HD 
HETATM   30  O   UNL     1      -6.762   5.264  73.401  1.00  0.00    -0.069 OA 
HETATM   31  C   UNL     1      -6.422   4.026  71.330  1.00  0.00    -0.015 C  
BRANCH  20  32
HETATM   32  C   UNL     1      -8.956   1.937  74.262  1.00  0.00    -0.065 C  
HETATM   33  O   UNL     1     -10.378   2.031  74.145  1.00  0.00    -0.104 OA 
HETATM   34  H   UNL     1     -10.845   1.694  74.901  1.00  0.00     0.000 HD 
ENDBRANCH  20  32
ENDBRANCH  13  18
ENDBRANCH  10  11
ENDBRANCH   7  10
ENDBRANCH   3   4
ENDBRANCH   2   3
TORSDOF 6
ENDMDL
MODEL      242
REMARK 921   NORMALIZED FREE ENERGY PREDICTED BY IDOCK:   -2.01 KCAL/MOL
REMARK 922        TOTAL FREE ENERGY PREDICTED BY IDOCK:   -3.85 KCAL/MOL
REMARK 923 INTER-LIGAND FREE ENERGY PREDICTED BY IDOCK:   -2.63 KCAL/MOL
REMARK 924 INTRA-LIGAND FREE ENERGY PREDICTED BY IDOCK:   -1.23 KCAL/MOL
REMARK 927      BINDING AFFINITY PREDICTED BY RF-SCORE:    0.00 PKD
ROOT
HETATM    1  C   UNL     1     -10.978  15.325  69.555  1.00  0.00    -0.280 C  
HETATM    2  C   UNL     1     -11.071  13.874  69.110  1.00  0.00    -0.245 C  
ENDROOT
BRANCH   2   3
HETATM    3  O   UNL     1     -11.365  13.045  70.242  1.00  0.00     0.055 OA 
BRANCH   3   4
HETATM    4  C   UNL     1     -11.536  11.714  69.959  1.00  0.00    -0.255 A  
HETATM    5  C   UNL     1     -11.433  10.838  71.039  1.00  0.00     0.035 A  
HETATM    6  C   UNL     1     -11.423   9.452  70.836  1.00  0.00    -0.382 A  
HETATM    7  C   UNL     1     -11.514   8.919  69.538  1.00  0.00     0.335 A  
HETATM    8  C   UNL     1     -11.752   9.807  68.478  1.00  0.00     0.557 A  
HETATM    9  C   UNL     1     -11.769  11.193  68.687  1.00  0.00    -0.389 A  
BRANCH   7  10
HETATM   10  C   UNL     1     -11.152   7.467  69.270  1.00  0.00     0.028 C  
BRANCH  10  11
HETATM   11  C   UNL     1      -9.702   7.072  69.104  1.00  0.00    -0.156 A  
HETATM   12  C   UNL     1      -9.083   7.281  67.864  1.00  0.00    -0.132 A  
HETATM   13  C   UNL     1      -7.731   6.930  67.614  1.00  0.00    -0.111 A  
HETATM   14 CL   UNL     1      -9.589   6.060  71.643  1.00  0.00    -0.167 Cl 
HETATM   15  C   UNL     1      -6.934   6.574  68.702  1.00  0.00    -0.080 A  
HETATM   16  C   UNL     1      -7.529   6.372  69.952  1.00  0.00    -0.088 A  
HETATM   17  C   UNL     1      -8.910   6.552  70.131  1.00  0.00    -0.144 A  
BRANCH  13  18
HETATM   18  C   UNL     1      -7.320   6.661  66.178  1.00  0.00    -0.076 C  
HETATM   19  C   UNL     1      -6.444   8.331  64.883  1.00  0.00    -0.056 C  
HETATM   20  C   UNL     1      -7.296   7.394  64.056  1.00  0.00    -0.088 C  
HETATM   21  O   UNL     1      -6.160   7.555  66.046  1.00  0.00    -0.037 OA 
HETATM   22  H   UNL     1      -4.905   4.393  65.949  1.00  0.00     0.000 HD 
HETATM   23  O   UNL     1      -8.252   7.029  65.094  1.00  0.00    -0.134 OA 
HETATM   24  C   UNL     1      -6.656   6.064  63.534  1.00  0.00    -0.033 C  
HETATM   25  O   UNL     1      -5.273   5.254  66.110  1.00  0.00    -0.008 OA 
HETATM   26  C   UNL     1      -6.979   4.861  64.456  1.00  0.00    -0.050 C  
HETATM   27  O   UNL     1      -5.257   6.239  63.311  1.00  0.00    -0.017 OA 
HETATM   28  H   UNL     1      -8.532   3.694  64.849  1.00  0.00     0.000 HD 
HETATM   29  H   UNL     1      -4.869   5.432  62.994  1.00  0.00     0.000 HD 
HETATM   30  O   UNL     1      -8.334   4.432  64.284  1.00  0.00    -0.100 OA 
HETATM   31  C   UNL     1      -6.712   5.241  65.911  1.00  0.00    -0.053 C  
BRANCH  20  32
HETATM   32  C   UNL     1      -7.752   8.189  62.812  1.00  0.00    -0.133 C  
HETATM   33  O   UNL     1      -9.015   8.840  62.979  1.00  0.00    -0.425 OA 
HETATM   34  H   UNL     1      -9.296   9.329  62.214  1.00  0.00     0.000 HD 
ENDBRANCH  20  32
ENDBRANCH  13  18
ENDBRANCH  10  11
ENDBRANCH   7  10
ENDBRANCH   3   4
ENDBRANCH   2   3
TORSDOF 6
ENDMDL
MODEL      243
REMARK 921   NORMALIZED FREE ENERGY PREDICTED BY IDOCK:   -1.98 KCAL/MOL
REMARK 922        TOTAL FREE ENERGY PREDICTED BY IDOCK:   -3.81 KCAL/MOL
REMARK 923 INTER-LIGAND FREE ENERGY PREDICTED BY IDOCK:   -4.04 KCAL/MOL
REMARK 924 INTRA-LIGAND FREE ENERGY PREDICTED BY IDOCK:    0.23 KCAL/MOL
REMARK 927      BINDING AFFINITY PREDICTED BY RF-SCORE:    0.00 PKD
ROOT
HETATM    1  C   UNL     1     -12.020  13.468  70.157  1.00  0.00    -0.399 C  
HETATM    2  C   UNL     1     -12.909  12.386  70.751  1.00  0.00    -0.015 C  
ENDROOT
BRANCH   2   3
HETATM    3  O   UNL     1     -12.104  11.262  71.131  1.00  0.00    -0.283 OA 
BRANCH   3   4
HETATM    4  C   UNL     1     -11.235  10.818  70.168  1.00  0.00    -0.267 A  
HETATM    5  C   UNL     1     -10.744   9.523  70.333  1.00  0.00    -0.341 A  
HETATM    6  C   UNL     1      -9.726   9.034  69.504  1.00  0.00    -0.171 A  
HETATM    7  C   UNL     1      -9.178   9.842  68.492  1.00  0.00    -0.134 A  
HETATM    8  C   UNL     1      -9.773  11.090  68.253  1.00  0.00    -0.181 A  
HETATM    9  C   UNL     1     -10.797  11.572  69.080  1.00  0.00    -0.241 A  
BRANCH   7  10
HETATM   10  C   UNL     1      -7.860   9.470  67.833  1.00  0.00    -0.091 C  
BRANCH  10  11
HETATM   11  C   UNL     1      -7.858   8.601  66.595  1.00  0.00    -0.097 A  
HETATM   12  C   UNL     1      -8.341   7.289  66.689  1.00  0.00    -0.121 A  
HETATM   13  C   UNL     1      -8.365   6.401  65.583  1.00  0.00    -0.147 A  
HETATM   14 CL   UNL     1      -6.648  10.556  65.111  1.00  0.00    -0.083 Cl 
HETATM   15  C   UNL     1      -8.107   6.923  64.316  1.00  0.00    -0.040 A  
HETATM   16  C   UNL     1      -7.635   8.234  64.198  1.00  0.00    -0.127 A  
HETATM   17  C   UNL     1      -7.447   9.039  65.333  1.00  0.00    -0.089 A  
BRANCH  13  18
HETATM   18  C   UNL     1      -8.357   4.910  65.869  1.00  0.00    -0.114 C  
HETATM   19  C   UNL     1      -7.673   3.419  64.272  1.00  0.00    -0.077 C  
HETATM   20  C   UNL     1      -8.794   2.842  65.109  1.00  0.00    -0.129 C  
HETATM   21  O   UNL     1      -7.185   4.482  65.091  1.00  0.00    -0.065 OA 
HETATM   22  H   UNL     1      -6.313   4.102  68.359  1.00  0.00     0.000 HD 
HETATM   23  O   UNL     1      -9.490   4.091  65.394  1.00  0.00    -0.150 OA 
HETATM   24  C   UNL     1      -8.441   2.190  66.486  1.00  0.00    -0.101 C  
HETATM   25  O   UNL     1      -6.542   4.343  67.469  1.00  0.00    -0.044 OA 
HETATM   26  C   UNL     1      -8.639   3.174  67.666  1.00  0.00    -0.100 C  
HETATM   27  O   UNL     1      -7.132   1.620  66.446  1.00  0.00    -0.045 OA 
HETATM   28  H   UNL     1     -10.151   3.957  68.681  1.00  0.00     0.000 HD 
HETATM   29  H   UNL     1      -6.918   1.224  67.282  1.00  0.00     0.000 HD 
HETATM   30  O   UNL     1     -10.030   3.353  67.958  1.00  0.00     0.051 OA 
HETATM   31  C   UNL     1      -7.979   4.512  67.337  1.00  0.00    -0.100 C  
BRANCH  20  32
HETATM   32  C   UNL     1      -9.467   1.746  64.253  1.00  0.00    -0.134 C  
HETATM   33  O   UNL     1     -10.593   2.213  63.504  1.00  0.00    -0.205 OA 
HETATM   34  H   UNL     1     -11.007   1.538  62.979  1.00  0.00     0.000 HD 
ENDBRANCH  20  32
ENDBRANCH  13  18
ENDBRANCH  10  11
ENDBRANCH   7  10
ENDBRANCH   3   4
ENDBRANCH   2   3
TORSDOF 6
ENDMDL
MODEL      244
REMARK 921   NORMALIZED FREE ENERGY PREDICTED BY IDOCK:   -1.95 KCAL/MOL
REMARK 922        TOTAL FREE ENERGY PREDICTED BY IDOCK:   -3.77 KCAL/MOL
REMARK 923 INTER-LIGAND FREE ENERGY PREDICTED BY IDOCK:   -3.92 KCAL/MOL
REMARK 924 INTRA-LIGAND FREE ENERGY PREDICTED BY IDOCK:    0.15 KCAL/MOL
REMARK 927      BINDING AFFINITY PREDICTED BY RF-SCORE:    0.00 PKD
ROOT
HETATM    1  C   UNL     1     -12.022  13.463  70.156  1.00  0.00    -0.396 C  
HETATM    2  C   UNL     1     -12.890  12.356  70.733  1.00  0.00    -0.015 C  
ENDROOT
BRANCH   2   3
HETATM    3  O   UNL     1     -12.065  11.239  71.089  1.00  0.00    -0.283 OA 
BRANCH   3   4
HETATM    4  C   UNL     1     -11.206  10.814  70.108  1.00  0.00    -0.267 A  
HETATM    5  C   UNL     1     -10.679   9.533  70.265  1.00  0.00    -0.315 A  
HETATM    6  C   UNL     1      -9.668   9.067  69.414  1.00  0.00    -0.169 A  
HETATM    7  C   UNL     1      -9.163   9.886  68.389  1.00  0.00    -0.130 A  
HETATM    8  C   UNL     1      -9.794  11.118  68.160  1.00  0.00    -0.188 A  
HETATM    9  C   UNL     1     -10.812  11.577  69.009  1.00  0.00    -0.258 A  
BRANCH   7  10
HETATM   10  C   UNL     1      -7.851   9.545  67.701  1.00  0.00    -0.102 C  
BRANCH  10  11
HETATM   11  C   UNL     1      -7.856   8.682  66.460  1.00  0.00    -0.099 A  
HETATM   12  C   UNL     1      -8.290   7.353  66.562  1.00  0.00    -0.124 A  
HETATM   13  C   UNL     1      -8.315   6.468  65.453  1.00  0.00    -0.140 A  
HETATM   14 CL   UNL     1      -6.760  10.684  64.949  1.00  0.00     0.033 Cl 
HETATM   15  C   UNL     1      -8.114   7.004  64.182  1.00  0.00    -0.029 A  
HETATM   16  C   UNL     1      -7.692   8.332  64.055  1.00  0.00    -0.140 A  
HETATM   17  C   UNL     1      -7.499   9.138  65.188  1.00  0.00    -0.097 A  
BRANCH  13  18
HETATM   18  C   UNL     1      -8.246   4.978  65.731  1.00  0.00    -0.115 C  
HETATM   19  C   UNL     1     -10.027   3.881  66.660  1.00  0.00     0.027 C  
HETATM   20  C   UNL     1      -8.717   3.301  67.149  1.00  0.00    -0.121 C  
HETATM   21  O   UNL     1      -9.639   4.581  65.478  1.00  0.00    -0.164 OA 
HETATM   22  H   UNL     1      -7.810   3.186  62.969  1.00  0.00     0.000 HD 
HETATM   23  O   UNL     1      -7.930   4.527  67.101  1.00  0.00    -0.100 OA 
HETATM   24  C   UNL     1      -7.983   2.249  66.254  1.00  0.00    -0.081 C  
HETATM   25  O   UNL     1      -8.301   3.694  63.605  1.00  0.00    -0.089 OA 
HETATM   26  C   UNL     1      -6.880   2.896  65.378  1.00  0.00    -0.048 C  
HETATM   27  O   UNL     1      -8.928   1.495  65.496  1.00  0.00    -0.122 OA 
HETATM   28  H   UNL     1      -5.054   3.624  65.627  1.00  0.00     0.000 HD 
HETATM   29  H   UNL     1      -8.483   0.856  64.952  1.00  0.00     0.000 HD 
HETATM   30  O   UNL     1      -5.729   3.227  66.164  1.00  0.00    -0.017 OA 
HETATM   31  C   UNL     1      -7.437   4.139  64.684  1.00  0.00    -0.072 C  
BRANCH  20  32
HETATM   32  C   UNL     1      -9.014   2.611  68.500  1.00  0.00    -0.132 C  
HETATM   33  O   UNL     1      -9.510   3.502  69.503  1.00  0.00    -0.167 OA 
HETATM   34  H   UNL     1      -9.692   3.077  70.333  1.00  0.00     0.000 HD 
ENDBRANCH  20  32
ENDBRANCH  13  18
ENDBRANCH  10  11
ENDBRANCH   7  10
ENDBRANCH   3   4
ENDBRANCH   2   3
TORSDOF 6
ENDMDL
MODEL      245
REMARK 921   NORMALIZED FREE ENERGY PREDICTED BY IDOCK:   -1.69 KCAL/MOL
REMARK 922        TOTAL FREE ENERGY PREDICTED BY IDOCK:   -3.42 KCAL/MOL
REMARK 923 INTER-LIGAND FREE ENERGY PREDICTED BY IDOCK:   -2.07 KCAL/MOL
REMARK 924 INTRA-LIGAND FREE ENERGY PREDICTED BY IDOCK:   -1.35 KCAL/MOL
REMARK 927      BINDING AFFINITY PREDICTED BY RF-SCORE:    0.00 PKD
ROOT
HETATM    1  C   UNL     1     -13.875   1.852  73.021  1.00  0.00     0.392 C  
HETATM    2  C   UNL     1     -12.547   2.027  73.740  1.00  0.00     0.491 C  
ENDROOT
BRANCH   2   3
HETATM    3  O   UNL     1     -11.493   1.483  72.935  1.00  0.00    -0.133 OA 
BRANCH   3   4
HETATM    4  C   UNL     1     -10.673   2.411  72.345  1.00  0.00     0.134 A  
HETATM    5  C   UNL     1      -9.383   1.983  72.037  1.00  0.00    -0.158 A  
HETATM    6  C   UNL     1      -8.416   2.893  71.588  1.00  0.00    -0.087 A  
HETATM    7  C   UNL     1      -8.731   4.256  71.445  1.00  0.00    -0.139 A  
HETATM    8  C   UNL     1     -10.065   4.646  71.630  1.00  0.00    -0.258 A  
HETATM    9  C   UNL     1     -11.031   3.730  72.072  1.00  0.00     0.641 A  
BRANCH   7  10
HETATM   10  C   UNL     1      -7.629   5.294  71.309  1.00  0.00    -0.100 C  
BRANCH  10  11
HETATM   11  C   UNL     1      -7.988   6.752  71.136  1.00  0.00    -0.103 A  
HETATM   12  C   UNL     1      -8.253   7.235  69.847  1.00  0.00    -0.133 A  
HETATM   13  C   UNL     1      -8.585   8.590  69.590  1.00  0.00    -0.131 A  
HETATM   14 CL   UNL     1      -7.639   7.252  73.804  1.00  0.00    -0.118 Cl 
HETATM   15  C   UNL     1      -8.875   9.413  70.678  1.00  0.00    -0.275 A  
HETATM   16  C   UNL     1      -8.629   8.947  71.974  1.00  0.00    -0.004 A  
HETATM   17  C   UNL     1      -8.125   7.655  72.194  1.00  0.00    -0.106 A  
BRANCH  13  18
HETATM   18  C   UNL     1      -8.306   9.140  68.203  1.00  0.00    -0.120 C  
HETATM   19  C   UNL     1      -6.157   9.370  67.450  1.00  0.00    -0.050 C  
HETATM   20  C   UNL     1      -7.037  10.484  66.928  1.00  0.00    -0.101 C  
HETATM   21  O   UNL     1      -7.105   8.375  67.835  1.00  0.00    -0.079 OA 
HETATM   22  H   UNL     1      -9.585   7.238  65.799  1.00  0.00     0.000 HD 
HETATM   23  O   UNL     1      -7.947  10.565  68.064  1.00  0.00    -0.103 OA 
HETATM   24  C   UNL     1      -7.911  10.217  65.659  1.00  0.00    -0.147 C  
HETATM   25  O   UNL     1      -8.955   7.485  66.467  1.00  0.00    -0.148 OA 
HETATM   26  C   UNL     1      -9.363   9.817  66.024  1.00  0.00    -0.196 C  
HETATM   27  O   UNL     1      -7.270   9.272  64.803  1.00  0.00    -0.098 OA 
HETATM   28  H   UNL     1     -11.004  10.709  66.688  1.00  0.00     0.000 HD 
HETATM   29  H   UNL     1      -7.800   9.110  64.032  1.00  0.00     0.000 HD 
HETATM   30  O   UNL     1     -10.114  10.955  66.464  1.00  0.00    -0.207 OA 
HETATM   31  C   UNL     1      -9.343   8.733  67.101  1.00  0.00    -0.150 C  
BRANCH  20  32
HETATM   32  C   UNL     1      -6.101  11.666  66.586  1.00  0.00    -0.094 C  
HETATM   33  O   UNL     1      -5.279  11.433  65.440  1.00  0.00    -0.490 OA 
HETATM   34  H   UNL     1      -4.703  12.159  65.230  1.00  0.00     0.000 HD 
ENDBRANCH  20  32
ENDBRANCH  13  18
ENDBRANCH  10  11
ENDBRANCH   7  10
ENDBRANCH   3   4
ENDBRANCH   2   3
TORSDOF 6
ENDMDL
MODEL      246
REMARK 921   NORMALIZED FREE ENERGY PREDICTED BY IDOCK:   -1.69 KCAL/MOL
REMARK 922        TOTAL FREE ENERGY PREDICTED BY IDOCK:   -3.41 KCAL/MOL
REMARK 923 INTER-LIGAND FREE ENERGY PREDICTED BY IDOCK:   -4.49 KCAL/MOL
REMARK 924 INTRA-LIGAND FREE ENERGY PREDICTED BY IDOCK:    1.08 KCAL/MOL
REMARK 927      BINDING AFFINITY PREDICTED BY RF-SCORE:    0.00 PKD
ROOT
HETATM    1  C   UNL     1     -12.941  15.922  71.359  1.00  0.00    -0.297 C  
HETATM    2  C   UNL     1     -13.886  15.294  72.371  1.00  0.00    -0.540 C  
ENDROOT
BRANCH   2   3
HETATM    3  O   UNL     1     -13.577  13.902  72.513  1.00  0.00    -0.512 OA 
BRANCH   3   4
HETATM    4  C   UNL     1     -12.765  13.383  71.537  1.00  0.00    -0.293 A  
HETATM    5  C   UNL     1     -12.825  12.002  71.357  1.00  0.00    -0.391 A  
HETATM    6  C   UNL     1     -11.920  11.352  70.507  1.00  0.00    -0.451 A  
HETATM    7  C   UNL     1     -10.932  12.082  69.823  1.00  0.00     0.142 A  
HETATM    8  C   UNL     1     -10.970  13.482  69.911  1.00  0.00     0.258 A  
HETATM    9  C   UNL     1     -11.883  14.129  70.756  1.00  0.00    -0.313 A  
BRANCH   7  10
HETATM   10  C   UNL     1      -9.743  11.374  69.194  1.00  0.00     0.065 C  
BRANCH  10  11
HETATM   11  C   UNL     1      -9.927  10.013  68.562  1.00  0.00    -0.177 A  
HETATM   12  C   UNL     1      -9.510   8.878  69.270  1.00  0.00    -0.161 A  
HETATM   13  C   UNL     1      -9.632   7.563  68.749  1.00  0.00    -0.149 A  
HETATM   14 CL   UNL     1     -10.920  11.111  66.261  1.00  0.00    -0.275 Cl 
HETATM   15  C   UNL     1     -10.394   7.382  67.596  1.00  0.00    -0.297 A  
HETATM   16  C   UNL     1     -10.832   8.502  66.880  1.00  0.00     0.030 A  
HETATM   17  C   UNL     1     -10.540   9.801  67.324  1.00  0.00    -0.255 A  
BRANCH  13  18
HETATM   18  C   UNL     1      -8.690   6.498  69.281  1.00  0.00    -0.130 C  
HETATM   19  C   UNL     1      -8.110   4.702  67.987  1.00  0.00    -0.088 C  
HETATM   20  C   UNL     1      -8.221   4.308  69.443  1.00  0.00    -0.062 C  
HETATM   21  O   UNL     1      -7.972   6.121  68.055  1.00  0.00    -0.108 OA 
HETATM   22  H   UNL     1      -5.685   7.706  70.015  1.00  0.00     0.000 HD 
HETATM   23  O   UNL     1      -9.265   5.251  69.824  1.00  0.00    -0.119 OA 
HETATM   24  C   UNL     1      -7.000   4.572  70.385  1.00  0.00    -0.041 C  
HETATM   25  O   UNL     1      -6.377   7.389  69.446  1.00  0.00    -0.034 OA 
HETATM   26  C   UNL     1      -7.147   5.898  71.173  1.00  0.00    -0.073 C  
HETATM   27  O   UNL     1      -5.778   4.489  69.652  1.00  0.00    -0.015 OA 
HETATM   28  H   UNL     1      -8.194   6.576  72.714  1.00  0.00     0.000 HD 
HETATM   29  H   UNL     1      -5.037   4.649  70.224  1.00  0.00     0.000 HD 
HETATM   30  O   UNL     1      -8.104   5.763  72.231  1.00  0.00    -0.106 OA 
HETATM   31  C   UNL     1      -7.550   7.021  70.220  1.00  0.00    -0.087 C  
BRANCH  20  32
HETATM   32  C   UNL     1      -8.488   2.786  69.472  1.00  0.00    -0.062 C  
HETATM   33  O   UNL     1      -9.813   2.444  69.891  1.00  0.00     0.045 OA 
HETATM   34  H   UNL     1      -9.976   1.509  69.909  1.00  0.00     0.000 HD 
ENDBRANCH  20  32
ENDBRANCH  13  18
ENDBRANCH  10  11
ENDBRANCH   7  10
ENDBRANCH   3   4
ENDBRANCH   2   3
TORSDOF 6
ENDMDL
MODEL      247
REMARK 921   NORMALIZED FREE ENERGY PREDICTED BY IDOCK:   -1.67 KCAL/MOL
REMARK 922        TOTAL FREE ENERGY PREDICTED BY IDOCK:   -3.39 KCAL/MOL
REMARK 923 INTER-LIGAND FREE ENERGY PREDICTED BY IDOCK:   -4.46 KCAL/MOL
REMARK 924 INTRA-LIGAND FREE ENERGY PREDICTED BY IDOCK:    1.07 KCAL/MOL
REMARK 927      BINDING AFFINITY PREDICTED BY RF-SCORE:    0.00 PKD
ROOT
HETATM    1  C   UNL     1     -12.939  15.924  71.361  1.00  0.00    -0.297 C  
HETATM    2  C   UNL     1     -13.894  15.315  72.376  1.00  0.00    -0.540 C  
ENDROOT
BRANCH   2   3
HETATM    3  O   UNL     1     -13.604  13.920  72.527  1.00  0.00    -0.512 OA 
BRANCH   3   4
HETATM    4  C   UNL     1     -12.796  13.385  71.556  1.00  0.00    -0.337 A  
HETATM    5  C   UNL     1     -12.886  12.006  71.373  1.00  0.00    -0.391 A  
HETATM    6  C   UNL     1     -11.989  11.338  70.529  1.00  0.00    -0.467 A  
HETATM    7  C   UNL     1     -10.980  12.046  69.854  1.00  0.00     0.285 A  
HETATM    8  C   UNL     1     -10.987  13.447  69.943  1.00  0.00     0.300 A  
HETATM    9  C   UNL     1     -11.892  14.112  70.783  1.00  0.00    -0.313 A  
BRANCH   7  10
HETATM   10  C   UNL     1      -9.802  11.314  69.232  1.00  0.00     0.067 C  
BRANCH  10  11
HETATM   11  C   UNL     1     -10.013   9.962  68.589  1.00  0.00    -0.177 A  
HETATM   12  C   UNL     1      -9.635   8.811  69.294  1.00  0.00    -0.162 A  
HETATM   13  C   UNL     1      -9.784   7.504  68.764  1.00  0.00    -0.151 A  
HETATM   14 CL   UNL     1     -10.945  11.100  66.282  1.00  0.00    -0.275 Cl 
HETATM   15  C   UNL     1     -10.535   7.350  67.599  1.00  0.00    -0.310 A  
HETATM   16  C   UNL     1     -10.933   8.485  66.885  1.00  0.00     0.278 A  
HETATM   17  C   UNL     1     -10.613   9.774  67.341  1.00  0.00    -0.267 A  
BRANCH  13  18
HETATM   18  C   UNL     1      -8.878   6.411  69.301  1.00  0.00    -0.128 C  
HETATM   19  C   UNL     1      -9.427   5.274  71.210  1.00  0.00    -0.151 C  
HETATM   20  C   UNL     1      -7.930   5.465  71.104  1.00  0.00    -0.109 C  
HETATM   21  O   UNL     1      -9.867   5.481  69.867  1.00  0.00    -0.166 OA 
HETATM   22  H   UNL     1      -8.533   3.883  67.174  1.00  0.00     0.000 HD 
HETATM   23  O   UNL     1      -7.944   6.740  70.396  1.00  0.00    -0.110 OA 
HETATM   24  C   UNL     1      -7.107   4.464  70.228  1.00  0.00    -0.045 C  
HETATM   25  O   UNL     1      -8.972   4.407  67.835  1.00  0.00    -0.109 OA 
HETATM   26  C   UNL     1      -6.850   5.011  68.802  1.00  0.00    -0.051 C  
HETATM   27  O   UNL     1      -7.725   3.177  70.231  1.00  0.00    -0.044 OA 
HETATM   28  H   UNL     1      -5.686   6.366  67.942  1.00  0.00     0.000 HD 
HETATM   29  H   UNL     1      -7.225   2.569  69.699  1.00  0.00     0.000 HD 
HETATM   30  O   UNL     1      -5.844   6.031  68.817  1.00  0.00    -0.011 OA 
HETATM   31  C   UNL     1      -8.154   5.547  68.213  1.00  0.00    -0.096 C  
BRANCH  20  32
HETATM   32  C   UNL     1      -7.368   5.371  72.540  1.00  0.00    -0.095 C  
HETATM   33  O   UNL     1      -6.897   6.619  73.055  1.00  0.00    -0.074 OA 
HETATM   34  H   UNL     1      -6.551   6.561  73.938  1.00  0.00     0.000 HD 
ENDBRANCH  20  32
ENDBRANCH  13  18
ENDBRANCH  10  11
ENDBRANCH   7  10
ENDBRANCH   3   4
ENDBRANCH   2   3
TORSDOF 6
ENDMDL
MODEL      248
REMARK 921   NORMALIZED FREE ENERGY PREDICTED BY IDOCK:   -1.61 KCAL/MOL
REMARK 922        TOTAL FREE ENERGY PREDICTED BY IDOCK:   -3.31 KCAL/MOL
REMARK 923 INTER-LIGAND FREE ENERGY PREDICTED BY IDOCK:   -2.63 KCAL/MOL
REMARK 924 INTRA-LIGAND FREE ENERGY PREDICTED BY IDOCK:   -0.68 KCAL/MOL
REMARK 927      BINDING AFFINITY PREDICTED BY RF-SCORE:    0.00 PKD
ROOT
HETATM    1  C   UNL     1      -7.044  12.409  68.336  1.00  0.00    -0.106 C  
HETATM    2  C   UNL     1      -7.813  11.245  68.941  1.00  0.00    -0.114 C  
ENDROOT
BRANCH   2   3
HETATM    3  O   UNL     1      -6.921  10.435  69.717  1.00  0.00    -0.104 OA 
BRANCH   3   4
HETATM    4  C   UNL     1      -7.431   9.225  70.113  1.00  0.00    -0.098 A  
HETATM    5  C   UNL     1      -6.616   8.114  69.898  1.00  0.00    -0.039 A  
HETATM    6  C   UNL     1      -7.105   6.818  70.110  1.00  0.00    -0.071 A  
HETATM    7  C   UNL     1      -8.427   6.614  70.539  1.00  0.00    -0.138 A  
HETATM    8  C   UNL     1      -9.190   7.742  70.878  1.00  0.00    -0.155 A  
HETATM    9  C   UNL     1      -8.695   9.037  70.672  1.00  0.00    -0.251 A  
BRANCH   7  10
HETATM   10  C   UNL     1      -9.074   5.242  70.431  1.00  0.00    -0.173 C  
BRANCH  10  11
HETATM   11  C   UNL     1      -8.637   4.289  69.343  1.00  0.00    -0.109 A  
HETATM   12  C   UNL     1      -7.872   4.785  68.277  1.00  0.00    -0.081 A  
HETATM   13  C   UNL     1      -7.429   3.965  67.206  1.00  0.00    -0.072 A  
HETATM   14 CL   UNL     1      -9.996   2.208  70.488  1.00  0.00     0.088 Cl 
HETATM   15  C   UNL     1      -7.570   2.584  67.335  1.00  0.00    -0.061 A  
HETATM   16  C   UNL     1      -8.319   2.067  68.397  1.00  0.00    -0.078 A  
HETATM   17  C   UNL     1      -8.904   2.917  69.350  1.00  0.00    -0.094 A  
BRANCH  13  18
HETATM   18  C   UNL     1      -7.124   4.635  65.879  1.00  0.00    -0.074 C  
HETATM   19  C   UNL     1      -6.040   6.649  65.810  1.00  0.00    -0.034 C  
HETATM   20  C   UNL     1      -7.065   6.546  64.701  1.00  0.00    -0.060 C  
HETATM   21  O   UNL     1      -5.841   5.285  66.181  1.00  0.00    -0.017 OA 
HETATM   22  H   UNL     1      -5.120   2.807  63.962  1.00  0.00     0.000 HD 
HETATM   23  O   UNL     1      -8.026   5.701  65.400  1.00  0.00    -0.101 OA 
HETATM   24  C   UNL     1      -6.671   5.800  63.384  1.00  0.00    -0.036 C  
HETATM   25  O   UNL     1      -5.337   3.399  64.674  1.00  0.00    -0.009 OA 
HETATM   26  C   UNL     1      -7.148   4.326  63.384  1.00  0.00    -0.045 C  
HETATM   27  O   UNL     1      -5.272   5.935  63.134  1.00  0.00    -0.016 OA 
HETATM   28  H   UNL     1      -8.853   3.340  63.164  1.00  0.00     0.000 HD 
HETATM   29  H   UNL     1      -5.033   5.483  62.335  1.00  0.00     0.000 HD 
HETATM   30  O   UNL     1      -8.561   4.244  63.164  1.00  0.00    -0.096 OA 
HETATM   31  C   UNL     1      -6.766   3.661  64.705  1.00  0.00    -0.044 C  
BRANCH  20  32
HETATM   32  C   UNL     1      -7.435   7.993  64.303  1.00  0.00    -0.106 C  
HETATM   33  O   UNL     1      -8.816   8.162  63.973  1.00  0.00    -0.337 OA 
HETATM   34  H   UNL     1      -9.043   9.051  63.728  1.00  0.00     0.000 HD 
ENDBRANCH  20  32
ENDBRANCH  13  18
ENDBRANCH  10  11
ENDBRANCH   7  10
ENDBRANCH   3   4
ENDBRANCH   2   3
TORSDOF 6
ENDMDL
MODEL      249
REMARK 921   NORMALIZED FREE ENERGY PREDICTED BY IDOCK:   -1.51 KCAL/MOL
REMARK 922        TOTAL FREE ENERGY PREDICTED BY IDOCK:   -3.18 KCAL/MOL
REMARK 923 INTER-LIGAND FREE ENERGY PREDICTED BY IDOCK:   -2.50 KCAL/MOL
REMARK 924 INTRA-LIGAND FREE ENERGY PREDICTED BY IDOCK:   -0.68 KCAL/MOL
REMARK 927      BINDING AFFINITY PREDICTED BY RF-SCORE:    0.00 PKD
ROOT
HETATM    1  C   UNL     1      -6.837   5.190  63.306  1.00  0.00    -0.037 C  
HETATM    2  C   UNL     1      -7.827   5.128  64.459  1.00  0.00    -0.096 C  
ENDROOT
BRANCH   2   3
HETATM    3  O   UNL     1      -8.477   6.397  64.599  1.00  0.00    -0.059 OA 
BRANCH   3   4
HETATM    4  C   UNL     1      -8.061   7.148  65.669  1.00  0.00    -0.133 A  
HETATM    5  C   UNL     1      -7.547   8.410  65.372  1.00  0.00    -0.092 A  
HETATM    6  C   UNL     1      -6.941   9.187  66.368  1.00  0.00    -0.080 A  
HETATM    7  C   UNL     1      -6.839   8.708  67.685  1.00  0.00    -0.071 A  
HETATM    8  C   UNL     1      -7.478   7.498  67.996  1.00  0.00    -0.105 A  
HETATM    9  C   UNL     1      -8.090   6.727  66.998  1.00  0.00    -0.109 A  
BRANCH   7  10
HETATM   10  C   UNL     1      -5.891   9.363  68.676  1.00  0.00    -0.040 C  
BRANCH  10  11
HETATM   11  C   UNL     1      -5.962   8.994  70.141  1.00  0.00    -0.034 A  
HETATM   12  C   UNL     1      -6.314   7.684  70.491  1.00  0.00    -0.038 A  
HETATM   13  C   UNL     1      -6.418   7.253  71.840  1.00  0.00    -0.043 A  
HETATM   14 CL   UNL     1      -5.394  11.558  70.911  1.00  0.00    -0.132 Cl 
HETATM   15  C   UNL     1      -5.938   8.100  72.838  1.00  0.00    -0.065 A  
HETATM   16  C   UNL     1      -5.569   9.409  72.508  1.00  0.00     0.013 A  
HETATM   17  C   UNL     1      -5.648   9.869  71.184  1.00  0.00    -0.076 A  
BRANCH  13  18
HETATM   18  C   UNL     1      -7.312   6.063  72.139  1.00  0.00    -0.094 C  
HETATM   19  C   UNL     1      -7.336   4.244  70.750  1.00  0.00    -0.044 C  
HETATM   20  C   UNL     1      -8.710   4.505  71.327  1.00  0.00    -0.112 C  
HETATM   21  O   UNL     1      -6.480   4.957  71.643  1.00  0.00    -0.028 OA 
HETATM   22  H   UNL     1      -6.564   4.604  75.027  1.00  0.00     0.000 HD 
HETATM   23  O   UNL     1      -8.606   5.955  71.437  1.00  0.00    -0.127 OA 
HETATM   24  C   UNL     1      -9.038   3.959  72.756  1.00  0.00    -0.104 C  
HETATM   25  O   UNL     1      -6.456   4.808  74.105  1.00  0.00    -0.058 OA 
HETATM   26  C   UNL     1      -8.840   5.038  73.852  1.00  0.00    -0.114 C  
HETATM   27  O   UNL     1      -8.306   2.761  73.012  1.00  0.00    -0.069 OA 
HETATM   28  H   UNL     1      -9.784   6.656  74.500  1.00  0.00     0.000 HD 
HETATM   29  H   UNL     1      -8.505   2.430  73.879  1.00  0.00     0.000 HD 
HETATM   30  O   UNL     1      -9.905   5.995  73.828  1.00  0.00    -0.159 OA 
HETATM   31  C   UNL     1      -7.490   5.726  73.659  1.00  0.00    -0.090 C  
BRANCH  20  32
HETATM   32  C   UNL     1      -9.728   3.862  70.358  1.00  0.00    -0.175 C  
HETATM   33  O   UNL     1      -9.398   2.520  69.988  1.00  0.00    -0.125 OA 
HETATM   34  H   UNL     1     -10.024   2.125  69.392  1.00  0.00     0.000 HD 
ENDBRANCH  20  32
ENDBRANCH  13  18
ENDBRANCH  10  11
ENDBRANCH   7  10
ENDBRANCH   3   4
ENDBRANCH   2   3
TORSDOF 6
ENDMDL
MODEL      250
REMARK 921   NORMALIZED FREE ENERGY PREDICTED BY IDOCK:   -1.41 KCAL/MOL
REMARK 922        TOTAL FREE ENERGY PREDICTED BY IDOCK:   -3.04 KCAL/MOL
REMARK 923 INTER-LIGAND FREE ENERGY PREDICTED BY IDOCK:   -2.34 KCAL/MOL
REMARK 924 INTRA-LIGAND FREE ENERGY PREDICTED BY IDOCK:   -0.70 KCAL/MOL
REMARK 927      BINDING AFFINITY PREDICTED BY RF-SCORE:    0.00 PKD
ROOT
HETATM    1  C   UNL     1      -6.001   4.646  63.781  1.00  0.00    -0.018 C  
HETATM    2  C   UNL     1      -7.098   4.624  64.834  1.00  0.00    -0.062 C  
ENDROOT
BRANCH   2   3
HETATM    3  O   UNL     1      -7.961   5.753  64.648  1.00  0.00    -0.109 OA 
BRANCH   3   4
HETATM    4  C   UNL     1      -7.625   6.868  65.373  1.00  0.00    -0.093 A  
HETATM    5  C   UNL     1      -7.262   7.994  64.635  1.00  0.00    -0.079 A  
HETATM    6  C   UNL     1      -6.741   9.128  65.273  1.00  0.00    -0.069 A  
HETATM    7  C   UNL     1      -6.572   9.149  66.668  1.00  0.00    -0.068 A  
HETATM    8  C   UNL     1      -7.065   8.063  67.407  1.00  0.00    -0.083 A  
HETATM    9  C   UNL     1      -7.593   6.933  66.765  1.00  0.00    -0.090 A  
BRANCH   7  10
HETATM   10  C   UNL     1      -5.697  10.204  67.326  1.00  0.00    -0.045 C  
BRANCH  10  11
HETATM   11  C   UNL     1      -5.745  10.391  68.825  1.00  0.00    -0.041 A  
HETATM   12  C   UNL     1      -5.934   9.267  69.641  1.00  0.00    -0.036 A  
HETATM   13  C   UNL     1      -6.004   9.350  71.056  1.00  0.00    -0.069 A  
HETATM   14 CL   UNL     1      -5.517  13.107  68.589  1.00  0.00    -0.072 Cl 
HETATM   15  C   UNL     1      -5.650  10.555  71.660  1.00  0.00     0.185 A  
HETATM   16  C   UNL     1      -5.445  11.688  70.865  1.00  0.00    -0.104 A  
HETATM   17  C   UNL     1      -5.561  11.618  69.467  1.00  0.00    -0.065 A  
BRANCH  13  18
HETATM   18  C   UNL     1      -6.745   8.251  71.797  1.00  0.00    -0.070 C  
HETATM   19  C   UNL     1      -7.597   6.452  70.668  1.00  0.00    -0.103 C  
HETATM   20  C   UNL     1      -8.494   6.843  71.822  1.00  0.00    -0.115 C  
HETATM   21  O   UNL     1      -6.357   7.072  71.010  1.00  0.00    -0.039 OA 
HETATM   22  H   UNL     1      -4.832   6.709  74.031  1.00  0.00     0.000 HD 
HETATM   23  O   UNL     1      -8.221   8.275  71.807  1.00  0.00    -0.120 OA 
HETATM   24  C   UNL     1      -8.140   6.324  73.255  1.00  0.00    -0.109 C  
HETATM   25  O   UNL     1      -5.163   6.907  73.162  1.00  0.00    -0.037 OA 
HETATM   26  C   UNL     1      -7.344   7.371  74.074  1.00  0.00    -0.101 C  
HETATM   27  O   UNL     1      -7.485   5.058  73.178  1.00  0.00    -0.085 OA 
HETATM   28  H   UNL     1      -7.711   9.070  75.027  1.00  0.00     0.000 HD 
HETATM   29  H   UNL     1      -7.270   4.743  74.048  1.00  0.00     0.000 HD 
HETATM   30  O   UNL     1      -8.199   8.428  74.524  1.00  0.00    -0.208 OA 
HETATM   31  C   UNL     1      -6.198   7.924  73.229  1.00  0.00    -0.069 C  
BRANCH  20  32
HETATM   32  C   UNL     1      -9.905   6.309  71.488  1.00  0.00    -0.173 C  
HETATM   33  O   UNL     1     -10.389   5.343  72.426  1.00  0.00    -0.195 OA 
HETATM   34  H   UNL     1     -11.257   5.015  72.220  1.00  0.00     0.000 HD 
ENDBRANCH  20  32
ENDBRANCH  13  18
ENDBRANCH  10  11
ENDBRANCH   7  10
ENDBRANCH   3   4
ENDBRANCH   2   3
TORSDOF 6
ENDMDL
MODEL      251
REMARK 921   NORMALIZED FREE ENERGY PREDICTED BY IDOCK:   -1.29 KCAL/MOL
REMARK 922        TOTAL FREE ENERGY PREDICTED BY IDOCK:   -2.88 KCAL/MOL
REMARK 923 INTER-LIGAND FREE ENERGY PREDICTED BY IDOCK:   -1.91 KCAL/MOL
REMARK 924 INTRA-LIGAND FREE ENERGY PREDICTED BY IDOCK:   -0.98 KCAL/MOL
REMARK 927      BINDING AFFINITY PREDICTED BY RF-SCORE:    0.00 PKD
ROOT
HETATM    1  C   UNL     1      -8.605   6.079  63.388  1.00  0.00     0.247 C  
HETATM    2  C   UNL     1      -8.817   6.445  64.849  1.00  0.00     0.306 C  
ENDROOT
BRANCH   2   3
HETATM    3  O   UNL     1      -8.751   7.869  65.000  1.00  0.00    -0.051 OA 
BRANCH   3   4
HETATM    4  C   UNL     1      -8.123   8.304  66.139  1.00  0.00    -0.111 A  
HETATM    5  C   UNL     1      -7.370   9.471  66.018  1.00  0.00    -0.097 A  
HETATM    6  C   UNL     1      -6.556   9.909  67.071  1.00  0.00    -0.070 A  
HETATM    7  C   UNL     1      -6.481   9.176  68.268  1.00  0.00    -0.055 A  
HETATM    8  C   UNL     1      -7.344   8.080  68.424  1.00  0.00    -0.098 A  
HETATM    9  C   UNL     1      -8.163   7.650  67.370  1.00  0.00    -0.116 A  
BRANCH   7  10
HETATM   10  C   UNL     1      -5.359   9.428  69.262  1.00  0.00    -0.036 C  
BRANCH  10  11
HETATM   11  C   UNL     1      -5.560   9.095  70.723  1.00  0.00    -0.036 A  
HETATM   12  C   UNL     1      -5.907   7.783  71.075  1.00  0.00    -0.034 A  
HETATM   13  C   UNL     1      -6.128   7.384  72.419  1.00  0.00    -0.040 A  
HETATM   14 CL   UNL     1      -5.138  11.693  71.472  1.00  0.00    -0.072 Cl 
HETATM   15  C   UNL     1      -5.768   8.270  73.434  1.00  0.00    -0.070 A  
HETATM   16  C   UNL     1      -5.406   9.580  73.105  1.00  0.00    -0.013 A  
HETATM   17  C   UNL     1      -5.371  10.005  71.767  1.00  0.00    -0.024 A  
BRANCH  13  18
HETATM   18  C   UNL     1      -7.013   6.176  72.665  1.00  0.00    -0.075 C  
HETATM   19  C   UNL     1      -9.269   6.288  72.299  1.00  0.00    -0.139 C  
HETATM   20  C   UNL     1      -8.955   5.396  73.480  1.00  0.00    -0.125 C  
HETATM   21  O   UNL     1      -8.020   6.347  71.609  1.00  0.00    -0.100 OA 
HETATM   22  H   UNL     1      -6.216   3.598  70.728  1.00  0.00     0.000 HD 
HETATM   23  O   UNL     1      -7.757   6.090  73.937  1.00  0.00    -0.095 OA 
HETATM   24  C   UNL     1      -8.548   3.910  73.210  1.00  0.00    -0.091 C  
HETATM   25  O   UNL     1      -6.610   4.438  70.936  1.00  0.00    -0.029 OA 
HETATM   26  C   UNL     1      -7.010   3.719  73.199  1.00  0.00    -0.049 C  
HETATM   27  O   UNL     1      -9.180   3.429  72.024  1.00  0.00    -0.103 OA 
HETATM   28  H   UNL     1      -5.536   3.644  74.522  1.00  0.00     0.000 HD 
HETATM   29  H   UNL     1      -8.933   2.527  71.860  1.00  0.00     0.000 HD 
HETATM   30  O   UNL     1      -6.478   3.761  74.528  1.00  0.00    -0.036 OA 
HETATM   31  C   UNL     1      -6.364   4.791  72.323  1.00  0.00    -0.033 C  
BRANCH  20  32
HETATM   32  C   UNL     1     -10.225   5.360  74.360  1.00  0.00    -0.277 C  
HETATM   33  O   UNL     1     -11.396   4.930  73.658  1.00  0.00    -0.385 OA 
HETATM   34  H   UNL     1     -12.176   4.908  74.199  1.00  0.00     0.000 HD 
ENDBRANCH  20  32
ENDBRANCH  13  18
ENDBRANCH  10  11
ENDBRANCH   7  10
ENDBRANCH   3   4
ENDBRANCH   2   3
TORSDOF 6
ENDMDL
MODEL      252
REMARK 921   NORMALIZED FREE ENERGY PREDICTED BY IDOCK:   -1.16 KCAL/MOL
REMARK 922        TOTAL FREE ENERGY PREDICTED BY IDOCK:   -2.71 KCAL/MOL
REMARK 923 INTER-LIGAND FREE ENERGY PREDICTED BY IDOCK:   -2.93 KCAL/MOL
REMARK 924 INTRA-LIGAND FREE ENERGY PREDICTED BY IDOCK:    0.22 KCAL/MOL
REMARK 927      BINDING AFFINITY PREDICTED BY RF-SCORE:    0.00 PKD
ROOT
HETATM    1  C   UNL     1      -5.364   7.387  70.928  1.00  0.00    -0.027 C  
HETATM    2  C   UNL     1      -5.130   6.717  69.583  1.00  0.00    -0.014 C  
ENDROOT
BRANCH   2   3
HETATM    3  O   UNL     1      -6.268   6.930  68.738  1.00  0.00    -0.025 OA 
BRANCH   3   4
HETATM    4  C   UNL     1      -7.362   7.473  69.363  1.00  0.00    -0.085 A  
HETATM    5  C   UNL     1      -8.286   6.567  69.881  1.00  0.00    -0.126 A  
HETATM    6  C   UNL     1      -9.515   7.011  70.388  1.00  0.00    -0.162 A  
HETATM    7  C   UNL     1      -9.839   8.378  70.379  1.00  0.00    -0.194 A  
HETATM    8  C   UNL     1      -8.848   9.287  69.978  1.00  0.00    -0.212 A  
HETATM    9  C   UNL     1      -7.616   8.839  69.480  1.00  0.00    -0.080 A  
BRANCH   7  10
HETATM   10  C   UNL     1     -11.274   8.835  70.585  1.00  0.00    -0.294 C  
BRANCH  10  11
HETATM   11  C   UNL     1     -11.660  10.264  70.275  1.00  0.00    -0.396 A  
HETATM   12  C   UNL     1     -10.915  10.974  69.324  1.00  0.00    -0.305 A  
HETATM   13  C   UNL     1     -11.198  12.321  68.980  1.00  0.00    -0.319 A  
HETATM   14 CL   UNL     1     -13.638  10.240  72.166  1.00  0.00    -0.365 Cl 
HETATM   15  C   UNL     1     -12.390  12.879  69.438  1.00  0.00     0.003 A  
HETATM   16  C   UNL     1     -13.157  12.183  70.379  1.00  0.00     0.543 A  
HETATM   17  C   UNL     1     -12.757  10.919  70.843  1.00  0.00    -0.370 A  
BRANCH  13  18
HETATM   18  C   UNL     1     -10.068  13.162  68.411  1.00  0.00    -0.231 C  
HETATM   19  C   UNL     1      -9.816  15.350  69.031  1.00  0.00    -0.234 C  
HETATM   20  C   UNL     1      -9.430  15.148  67.582  1.00  0.00    -0.201 C  
HETATM   21  O   UNL     1      -9.757  14.025  69.559  1.00  0.00     0.318 OA 
HETATM   22  H   UNL     1      -7.071  11.965  69.197  1.00  0.00     0.000 HD 
HETATM   23  O   UNL     1     -10.358  14.065  67.280  1.00  0.00    -0.260 OA 
HETATM   24  C   UNL     1      -7.993  14.625  67.256  1.00  0.00    -0.197 C  
HETATM   25  O   UNL     1      -7.886  12.430  69.348  1.00  0.00     0.381 OA 
HETATM   26  C   UNL     1      -7.966  13.092  67.034  1.00  0.00    -0.004 C  
HETATM   27  O   UNL     1      -7.066  15.063  68.250  1.00  0.00    -0.102 OA 
HETATM   28  H   UNL     1      -8.508  11.808  65.624  1.00  0.00     0.000 HD 
HETATM   29  H   UNL     1      -6.194  14.745  68.051  1.00  0.00     0.000 HD 
HETATM   30  O   UNL     1      -8.524  12.748  65.760  1.00  0.00     0.783 OA 
HETATM   31  C   UNL     1      -8.724  12.395  68.162  1.00  0.00    -0.190 C  
BRANCH  20  32
HETATM   32  C   UNL     1      -9.575  16.522  66.889  1.00  0.00    -0.243 C  
HETATM   33  O   UNL     1     -10.197  17.515  67.709  1.00  0.00    -0.317 OA 
HETATM   34  H   UNL     1     -10.286  18.360  67.282  1.00  0.00     0.000 HD 
ENDBRANCH  20  32
ENDBRANCH  13  18
ENDBRANCH  10  11
ENDBRANCH   7  10
ENDBRANCH   3   4
ENDBRANCH   2   3
TORSDOF 6
ENDMDL
MODEL      253
REMARK 921   NORMALIZED FREE ENERGY PREDICTED BY IDOCK:   -1.01 KCAL/MOL
REMARK 922        TOTAL FREE ENERGY PREDICTED BY IDOCK:   -2.50 KCAL/MOL
REMARK 923 INTER-LIGAND FREE ENERGY PREDICTED BY IDOCK:   -3.36 KCAL/MOL
REMARK 924 INTRA-LIGAND FREE ENERGY PREDICTED BY IDOCK:    0.85 KCAL/MOL
REMARK 927      BINDING AFFINITY PREDICTED BY RF-SCORE:    0.00 PKD
ROOT
HETATM    1  C   UNL     1      -7.227   5.208  68.445  1.00  0.00    -0.063 C  
HETATM    2  C   UNL     1      -6.416   5.419  69.715  1.00  0.00    -0.035 C  
ENDROOT
BRANCH   2   3
HETATM    3  O   UNL     1      -7.203   5.045  70.852  1.00  0.00    -0.056 OA 
BRANCH   3   4
HETATM    4  C   UNL     1      -8.481   5.543  70.865  1.00  0.00    -0.123 A  
HETATM    5  C   UNL     1      -8.871   6.262  69.736  1.00  0.00    -0.140 A  
HETATM    6  C   UNL     1     -10.090   6.954  69.715  1.00  0.00    -0.196 A  
HETATM    7  C   UNL     1     -10.940   6.937  70.834  1.00  0.00    -0.290 A  
HETATM    8  C   UNL     1     -10.597   6.102  71.908  1.00  0.00    -0.263 A  
HETATM    9  C   UNL     1      -9.380   5.405  71.922  1.00  0.00    -0.162 A  
BRANCH   7  10
HETATM   10  C   UNL     1     -12.068   7.947  70.965  1.00  0.00    -0.246 C  
BRANCH  10  11
HETATM   11  C   UNL     1     -11.796   9.414  70.721  1.00  0.00    -0.323 A  
HETATM   12  C   UNL     1     -10.827   9.773  69.774  1.00  0.00    -0.285 A  
HETATM   13  C   UNL     1     -10.497  11.124  69.490  1.00  0.00    -0.080 A  
HETATM   14 CL   UNL     1     -13.562  10.163  72.672  1.00  0.00     0.027 Cl 
HETATM   15  C   UNL     1     -11.321  12.123  70.008  1.00  0.00    -0.028 A  
HETATM   16  C   UNL     1     -12.303  11.785  70.945  1.00  0.00    -0.420 A  
HETATM   17  C   UNL     1     -12.489  10.453  71.348  1.00  0.00    -0.415 A  
BRANCH  13  18
HETATM   18  C   UNL     1      -9.122  11.414  68.918  1.00  0.00    -0.011 C  
HETATM   19  C   UNL     1      -8.615  10.855  66.758  1.00  0.00    -0.137 C  
HETATM   20  C   UNL     1      -7.411  10.685  67.659  1.00  0.00    -0.091 C  
HETATM   21  O   UNL     1      -9.459  11.718  67.520  1.00  0.00    -0.170 OA 
HETATM   22  H   UNL     1      -8.419  14.660  68.879  1.00  0.00     0.000 HD 
HETATM   23  O   UNL     1      -8.127  10.325  68.877  1.00  0.00    -0.106 OA 
HETATM   24  C   UNL     1      -6.542  11.942  67.993  1.00  0.00    -0.063 C  
HETATM   25  O   UNL     1      -8.824  13.857  68.573  1.00  0.00    -0.181 OA 
HETATM   26  C   UNL     1      -6.936  12.579  69.350  1.00  0.00     0.098 C  
HETATM   27  O   UNL     1      -6.572  12.871  66.909  1.00  0.00    -0.455 OA 
HETATM   28  H   UNL     1      -6.696  12.182  71.277  1.00  0.00     0.000 HD 
HETATM   29  H   UNL     1      -6.045  13.634  67.112  1.00  0.00     0.000 HD 
HETATM   30  O   UNL     1      -6.455  11.792  70.445  1.00  0.00    -0.184 OA 
HETATM   31  C   UNL     1      -8.453  12.739  69.423  1.00  0.00     1.183 C  
BRANCH  20  32
HETATM   32  C   UNL     1      -6.478   9.667  66.966  1.00  0.00    -0.066 C  
HETATM   33  O   UNL     1      -6.836   9.392  65.609  1.00  0.00    -0.076 OA 
HETATM   34  H   UNL     1      -6.262   8.766  65.183  1.00  0.00     0.000 HD 
ENDBRANCH  20  32
ENDBRANCH  13  18
ENDBRANCH  10  11
ENDBRANCH   7  10
ENDBRANCH   3   4
ENDBRANCH   2   3
TORSDOF 6
ENDMDL
MODEL      254
REMARK 921   NORMALIZED FREE ENERGY PREDICTED BY IDOCK:    0.38 KCAL/MOL
REMARK 922        TOTAL FREE ENERGY PREDICTED BY IDOCK:   -0.63 KCAL/MOL
REMARK 923 INTER-LIGAND FREE ENERGY PREDICTED BY IDOCK:   -0.16 KCAL/MOL
REMARK 924 INTRA-LIGAND FREE ENERGY PREDICTED BY IDOCK:   -0.47 KCAL/MOL
REMARK 927      BINDING AFFINITY PREDICTED BY RF-SCORE:    0.00 PKD
ROOT
HETATM    1  C   UNL     1     -13.465   1.803  72.284  1.00  0.00     2.771 C  
HETATM    2  C   UNL     1     -12.555   2.162  73.447  1.00  0.00     0.402 C  
ENDROOT
BRANCH   2   3
HETATM    3  O   UNL     1     -11.300   1.485  73.299  1.00  0.00    -0.152 OA 
BRANCH   3   4
HETATM    4  C   UNL     1     -10.310   2.221  72.701  1.00  0.00    -0.154 A  
HETATM    5  C   UNL     1      -9.009   1.747  72.863  1.00  0.00    -0.072 A  
HETATM    6  C   UNL     1      -7.912   2.509  72.438  1.00  0.00    -0.054 A  
HETATM    7  C   UNL     1      -8.105   3.768  71.843  1.00  0.00    -0.071 A  
HETATM    8  C   UNL     1      -9.420   4.171  71.567  1.00  0.00    -0.221 A  
HETATM    9  C   UNL     1     -10.514   3.401  71.987  1.00  0.00     0.088 A  
BRANCH   7  10
HETATM   10  C   UNL     1      -6.948   4.745  71.706  1.00  0.00    -0.052 C  
BRANCH  10  11
HETATM   11  C   UNL     1      -7.227   6.209  71.450  1.00  0.00    -0.079 A  
HETATM   12  C   UNL     1      -8.106   6.558  70.416  1.00  0.00    -0.117 A  
HETATM   13  C   UNL     1      -8.415   7.906  70.096  1.00  0.00    -0.129 A  
HETATM   14 CL   UNL     1      -5.456   6.983  73.387  1.00  0.00    -0.045 Cl 
HETATM   15  C   UNL     1      -8.006   8.901  70.982  1.00  0.00    -0.183 A  
HETATM   16  C   UNL     1      -7.138   8.572  72.029  1.00  0.00    -0.104 A  
HETATM   17  C   UNL     1      -6.699   7.252  72.216  1.00  0.00    -0.059 A  
BRANCH  13  18
HETATM   18  C   UNL     1      -8.886   8.211  68.686  1.00  0.00    -0.134 C  
HETATM   19  C   UNL     1      -8.200  10.113  67.614  1.00  0.00    -0.110 C  
HETATM   20  C   UNL     1      -9.624   9.763  67.240  1.00  0.00    -0.157 C  
HETATM   21  O   UNL     1      -7.700   8.882  68.134  1.00  0.00    -0.098 OA 
HETATM   22  H   UNL     1      -7.925   5.907  66.495  1.00  0.00     0.000 HD 
HETATM   23  O   UNL     1     -10.013   9.147  68.502  1.00  0.00    -0.163 OA 
HETATM   24  C   UNL     1      -9.863   8.699  66.118  1.00  0.00    -0.198 C  
HETATM   25  O   UNL     1      -7.819   6.664  67.061  1.00  0.00    -0.105 OA 
HETATM   26  C   UNL     1     -10.118   7.286  66.699  1.00  0.00    -0.168 C  
HETATM   27  O   UNL     1      -8.798   8.730  65.168  1.00  0.00    -0.260 OA 
HETATM   28  H   UNL     1     -11.591   6.322  67.612  1.00  0.00     0.000 HD 
HETATM   29  H   UNL     1      -8.944   8.084  64.487  1.00  0.00     0.000 HD 
HETATM   30  O   UNL     1     -11.434   7.189  67.255  1.00  0.00     0.015 OA 
HETATM   31  C   UNL     1      -9.060   6.964  67.754  1.00  0.00    -0.118 C  
BRANCH  20  32
HETATM   32  C   UNL     1     -10.294  11.073  66.765  1.00  0.00    -0.238 C  
HETATM   33  O   UNL     1     -10.419  12.058  67.794  1.00  0.00    -0.196 OA 
HETATM   34  H   UNL     1     -10.831  12.863  67.503  1.00  0.00     0.000 HD 
ENDBRANCH  20  32
ENDBRANCH  13  18
ENDBRANCH  10  11
ENDBRANCH   7  10
ENDBRANCH   3   4
ENDBRANCH   2   3
TORSDOF 6
ENDMDL
MODEL      255
REMARK 921   NORMALIZED FREE ENERGY PREDICTED BY IDOCK:    0.42 KCAL/MOL
REMARK 922        TOTAL FREE ENERGY PREDICTED BY IDOCK:   -0.57 KCAL/MOL
REMARK 923 INTER-LIGAND FREE ENERGY PREDICTED BY IDOCK:   -1.59 KCAL/MOL
REMARK 924 INTRA-LIGAND FREE ENERGY PREDICTED BY IDOCK:    1.02 KCAL/MOL
REMARK 927      BINDING AFFINITY PREDICTED BY RF-SCORE:    0.00 PKD
ROOT
HETATM    1  C   UNL     1      -7.642  19.878  72.118  1.00  0.00     2.242 C  
HETATM    2  C   UNL     1      -6.238  20.226  71.650  1.00  0.00    -0.101 C  
ENDROOT
BRANCH   2   3
HETATM    3  O   UNL     1      -6.302  20.827  70.351  1.00  0.00    -0.314 OA 
BRANCH   3   4
HETATM    4  C   UNL     1      -6.303  19.943  69.301  1.00  0.00    -0.330 A  
HETATM    5  C   UNL     1      -7.530  19.735  68.674  1.00  0.00    -0.329 A  
HETATM    6  C   UNL     1      -7.677  18.733  67.706  1.00  0.00    -0.257 A  
HETATM    7  C   UNL     1      -6.589  17.917  67.352  1.00  0.00    -0.180 A  
HETATM    8  C   UNL     1      -5.332  18.225  67.892  1.00  0.00    -0.156 A  
HETATM    9  C   UNL     1      -5.188  19.235  68.855  1.00  0.00    -0.198 A  
BRANCH   7  10
HETATM   10  C   UNL     1      -6.810  16.622  66.587  1.00  0.00    -0.219 C  
BRANCH  10  11
HETATM   11  C   UNL     1      -8.204  16.052  66.459  1.00  0.00    -0.334 A  
HETATM   12  C   UNL     1      -8.382  14.667  66.581  1.00  0.00     0.043 A  
HETATM   13  C   UNL     1      -9.652  14.045  66.463  1.00  0.00    -0.307 A  
HETATM   14 CL   UNL     1      -9.262  18.515  65.911  1.00  0.00     0.037 Cl 
HETATM   15  C   UNL     1     -10.783  14.860  66.448  1.00  0.00    -0.316 A  
HETATM   16  C   UNL     1     -10.629  16.246  66.339  1.00  0.00    -0.253 A  
HETATM   17  C   UNL     1      -9.352  16.827  66.275  1.00  0.00    -0.279 A  
BRANCH  13  18
HETATM   18  C   UNL     1      -9.693  12.585  66.051  1.00  0.00    -0.241 C  
HETATM   19  C   UNL     1     -11.572  11.326  66.398  1.00  0.00     0.303 C  
HETATM   20  C   UNL     1     -10.321  10.494  66.577  1.00  0.00    -0.233 C  
HETATM   21  O   UNL     1     -11.100  12.446  65.649  1.00  0.00    -0.286 OA 
HETATM   22  H   UNL     1      -9.289  12.174  62.780  1.00  0.00     0.000 HD 
HETATM   23  O   UNL     1      -9.451  11.552  67.077  1.00  0.00    -0.179 OA 
HETATM   24  C   UNL     1      -9.631   9.896  65.307  1.00  0.00    -0.295 C  
HETATM   25  O   UNL     1      -9.765  12.384  63.575  1.00  0.00    -0.298 OA 
HETATM   26  C   UNL     1      -8.459  10.780  64.809  1.00  0.00    -0.038 C  
HETATM   27  O   UNL     1     -10.599   9.628  64.294  1.00  0.00     0.455 OA 
HETATM   28  H   UNL     1      -6.597  11.183  65.353  1.00  0.00     0.000 HD 
HETATM   29  H   UNL     1     -10.180   9.265  63.523  1.00  0.00     0.000 HD 
HETATM   30  O   UNL     1      -7.315  10.641  65.659  1.00  0.00    -0.146 OA 
HETATM   31  C   UNL     1      -8.908  12.238  64.739  1.00  0.00     1.174 C  
BRANCH  20  32
HETATM   32  C   UNL     1     -10.707   9.301  67.481  1.00  0.00    -0.203 C  
HETATM   33  O   UNL     1     -10.706   8.043  66.801  1.00  0.00    -0.351 OA 
HETATM   34  H   UNL     1     -10.943   7.310  67.357  1.00  0.00     0.000 HD 
ENDBRANCH  20  32
ENDBRANCH  13  18
ENDBRANCH  10  11
ENDBRANCH   7  10
ENDBRANCH   3   4
ENDBRANCH   2   3
TORSDOF 6
ENDMDL
MODEL      256
REMARK 921   NORMALIZED FREE ENERGY PREDICTED BY IDOCK:    0.49 KCAL/MOL
REMARK 922        TOTAL FREE ENERGY PREDICTED BY IDOCK:   -0.47 KCAL/MOL
REMARK 923 INTER-LIGAND FREE ENERGY PREDICTED BY IDOCK:   -1.19 KCAL/MOL
REMARK 924 INTRA-LIGAND FREE ENERGY PREDICTED BY IDOCK:    0.72 KCAL/MOL
REMARK 927      BINDING AFFINITY PREDICTED BY RF-SCORE:    0.00 PKD
ROOT
HETATM    1  C   UNL     1      -8.076  19.826  72.329  1.00  0.00     3.392 C  
HETATM    2  C   UNL     1      -6.636  20.309  72.252  1.00  0.00     0.911 C  
ENDROOT
BRANCH   2   3
HETATM    3  O   UNL     1      -6.387  20.863  70.954  1.00  0.00    -0.143 OA 
BRANCH   3   4
HETATM    4  C   UNL     1      -6.264  19.944  69.943  1.00  0.00    -0.353 A  
HETATM    5  C   UNL     1      -7.284  19.936  68.993  1.00  0.00    -0.281 A  
HETATM    6  C   UNL     1      -7.344  18.931  68.018  1.00  0.00    -0.274 A  
HETATM    7  C   UNL     1      -6.379  17.910  67.983  1.00  0.00    -0.178 A  
HETATM    8  C   UNL     1      -5.287  18.007  68.860  1.00  0.00    -0.175 A  
HETATM    9  C   UNL     1      -5.227  19.019  69.829  1.00  0.00    -0.207 A  
BRANCH   7  10
HETATM   10  C   UNL     1      -6.621  16.642  67.182  1.00  0.00    -0.222 C  
BRANCH  10  11
HETATM   11  C   UNL     1      -7.999  16.352  66.632  1.00  0.00    -0.323 A  
HETATM   12  C   UNL     1      -8.517  15.055  66.755  1.00  0.00    -0.239 A  
HETATM   13  C   UNL     1      -9.795  14.690  66.258  1.00  0.00    -0.320 A  
HETATM   14 CL   UNL     1      -8.246  18.894  65.651  1.00  0.00     0.237 Cl 
HETATM   15  C   UNL     1     -10.649  15.708  65.835  1.00  0.00    -0.354 A  
HETATM   16  C   UNL     1     -10.157  17.012  65.716  1.00  0.00    -0.219 A  
HETATM   17  C   UNL     1      -8.826  17.314  66.045  1.00  0.00    -0.084 A  
BRANCH  13  18
HETATM   18  C   UNL     1     -10.037  13.229  65.925  1.00  0.00    -0.291 C  
HETATM   19  C   UNL     1      -8.400  11.667  66.267  1.00  0.00    -0.027 C  
HETATM   20  C   UNL     1      -9.217  11.337  65.037  1.00  0.00    -0.129 C  
HETATM   21  O   UNL     1      -9.251  12.568  66.976  1.00  0.00    -0.200 OA 
HETATM   22  H   UNL     1     -12.508  11.911  67.710  1.00  0.00     0.000 HD 
HETATM   23  O   UNL     1      -9.537  12.703  64.640  1.00  0.00     0.030 OA 
HETATM   24  C   UNL     1     -10.575  10.583  65.221  1.00  0.00    -0.067 C  
HETATM   25  O   UNL     1     -11.625  12.222  67.549  1.00  0.00    -0.322 OA 
HETATM   26  C   UNL     1     -11.783  11.554  65.240  1.00  0.00     0.183 C  
HETATM   27  O   UNL     1     -10.523   9.733  66.366  1.00  0.00    -0.204 OA 
HETATM   28  H   UNL     1     -12.816  12.631  63.936  1.00  0.00     0.000 HD 
HETATM   29  H   UNL     1     -11.347   9.276  66.477  1.00  0.00     0.000 HD 
HETATM   30  O   UNL     1     -12.076  12.036  63.924  1.00  0.00    -0.440 OA 
HETATM   31  C   UNL     1     -11.494  12.716  66.190  1.00  0.00    -0.365 C  
BRANCH  20  32
HETATM   32  C   UNL     1      -8.328  10.446  64.140  1.00  0.00    -0.139 C  
HETATM   33  O   UNL     1      -8.966   9.236  63.722  1.00  0.00    -0.390 OA 
HETATM   34  H   UNL     1      -8.420   8.688  63.171  1.00  0.00     0.000 HD 
ENDBRANCH  20  32
ENDBRANCH  13  18
ENDBRANCH  10  11
ENDBRANCH   7  10
ENDBRANCH   3   4
ENDBRANCH   2   3
TORSDOF 6
ENDMDL
MODEL      257
REMARK 921   NORMALIZED FREE ENERGY PREDICTED BY IDOCK:    0.57 KCAL/MOL
REMARK 922        TOTAL FREE ENERGY PREDICTED BY IDOCK:   -0.37 KCAL/MOL
REMARK 923 INTER-LIGAND FREE ENERGY PREDICTED BY IDOCK:    0.90 KCAL/MOL
REMARK 924 INTRA-LIGAND FREE ENERGY PREDICTED BY IDOCK:   -1.26 KCAL/MOL
REMARK 927      BINDING AFFINITY PREDICTED BY RF-SCORE:    0.00 PKD
ROOT
HETATM    1  C   UNL     1      -6.473  13.253  73.801  1.00  0.00     2.469 C  
HETATM    2  C   UNL     1      -5.131  12.589  73.534  1.00  0.00     0.347 C  
ENDROOT
BRANCH   2   3
HETATM    3  O   UNL     1      -5.201  11.845  72.311  1.00  0.00    -0.347 OA 
BRANCH   3   4
HETATM    4  C   UNL     1      -5.653  10.556  72.440  1.00  0.00     0.598 A  
HETATM    5  C   UNL     1      -6.623  10.151  71.524  1.00  0.00     0.713 A  
HETATM    6  C   UNL     1      -7.272   8.917  71.670  1.00  0.00    -0.057 A  
HETATM    7  C   UNL     1      -6.958   8.068  72.745  1.00  0.00    -0.106 A  
HETATM    8  C   UNL     1      -5.889   8.429  73.578  1.00  0.00    -0.091 A  
HETATM    9  C   UNL     1      -5.237   9.661  73.424  1.00  0.00    -0.026 A  
BRANCH   7  10
HETATM   10  C   UNL     1      -7.879   6.917  73.117  1.00  0.00    -0.101 C  
BRANCH  10  11
HETATM   11  C   UNL     1      -8.683   6.221  72.042  1.00  0.00    -0.134 A  
HETATM   12  C   UNL     1      -8.026   5.773  70.889  1.00  0.00    -0.111 A  
HETATM   13  C   UNL     1      -8.703   5.121  69.825  1.00  0.00    -0.115 A  
HETATM   14 CL   UNL     1     -11.022   6.610  73.410  1.00  0.00    -0.241 Cl 
HETATM   15  C   UNL     1     -10.020   4.718  70.036  1.00  0.00    -0.314 A  
HETATM   16  C   UNL     1     -10.693   5.144  71.186  1.00  0.00    -0.141 A  
HETATM   17  C   UNL     1     -10.050   5.945  72.143  1.00  0.00    -0.180 A  
BRANCH  13  18
HETATM   18  C   UNL     1      -8.077   5.180  68.443  1.00  0.00    -0.086 C  
HETATM   19  C   UNL     1      -9.193   6.154  66.699  1.00  0.00    -0.144 C  
HETATM   20  C   UNL     1      -8.378   4.969  66.228  1.00  0.00    -0.112 C  
HETATM   21  O   UNL     1      -8.595   6.467  67.956  1.00  0.00    -0.118 OA 
HETATM   22  H   UNL     1      -5.251   6.923  68.398  1.00  0.00     0.000 HD 
HETATM   23  O   UNL     1      -8.474   4.169  67.443  1.00  0.00    -0.099 OA 
HETATM   24  C   UNL     1      -6.856   5.176  65.934  1.00  0.00    -0.061 C  
HETATM   25  O   UNL     1      -6.193   6.799  68.411  1.00  0.00    -0.028 OA 
HETATM   26  C   UNL     1      -5.969   4.767  67.138  1.00  0.00    -0.027 C  
HETATM   27  O   UNL     1      -6.612   6.510  65.487  1.00  0.00    -0.041 OA 
HETATM   28  H   UNL     1      -5.344   3.091  67.992  1.00  0.00     0.000 HD 
HETATM   29  H   UNL     1      -5.687   6.635  65.309  1.00  0.00     0.000 HD 
HETATM   30  O   UNL     1      -5.888   3.342  67.255  1.00  0.00    -0.022 OA 
HETATM   31  C   UNL     1      -6.524   5.384  68.420  1.00  0.00    -0.040 C  
BRANCH  20  32
HETATM   32  C   UNL     1      -9.025   4.480  64.912  1.00  0.00    -0.151 C  
HETATM   33  O   UNL     1      -8.895   5.406  63.830  1.00  0.00    -0.337 OA 
HETATM   34  H   UNL     1      -9.293   5.105  63.022  1.00  0.00     0.000 HD 
ENDBRANCH  20  32
ENDBRANCH  13  18
ENDBRANCH  10  11
ENDBRANCH   7  10
ENDBRANCH   3   4
ENDBRANCH   2   3
TORSDOF 6
ENDMDL
MODEL      258
REMARK 921   NORMALIZED FREE ENERGY PREDICTED BY IDOCK:    0.68 KCAL/MOL
REMARK 922        TOTAL FREE ENERGY PREDICTED BY IDOCK:   -0.21 KCAL/MOL
REMARK 923 INTER-LIGAND FREE ENERGY PREDICTED BY IDOCK:   -1.55 KCAL/MOL
REMARK 924 INTRA-LIGAND FREE ENERGY PREDICTED BY IDOCK:    1.34 KCAL/MOL
REMARK 927      BINDING AFFINITY PREDICTED BY RF-SCORE:    0.00 PKD
ROOT
HETATM    1  C   UNL     1     -12.917   8.387  72.272  1.00  0.00    -0.338 C  
HETATM    2  C   UNL     1     -12.197   7.930  71.014  1.00  0.00    -0.198 C  
ENDROOT
BRANCH   2   3
HETATM    3  O   UNL     1     -11.630   9.065  70.349  1.00  0.00    -0.226 OA 
BRANCH   3   4
HETATM    4  C   UNL     1     -12.229  10.265  70.634  1.00  0.00    -0.329 A  
HETATM    5  C   UNL     1     -11.686  11.387  70.008  1.00  0.00    -0.416 A  
HETATM    6  C   UNL     1     -12.111  12.676  70.357  1.00  0.00    -0.381 A  
HETATM    7  C   UNL     1     -13.091  12.861  71.348  1.00  0.00    -0.331 A  
HETATM    8  C   UNL     1     -13.721  11.721  71.871  1.00  0.00     0.100 A  
HETATM    9  C   UNL     1     -13.298  10.434  71.513  1.00  0.00    -0.405 A  
BRANCH   7  10
HETATM   10  C   UNL     1     -13.303  14.226  71.982  1.00  0.00    -0.484 C  
BRANCH  10  11
HETATM   11  C   UNL     1     -12.257  15.304  71.812  1.00  0.00    -0.430 A  
HETATM   12  C   UNL     1     -11.663  15.477  70.555  1.00  0.00    -0.377 A  
HETATM   13  C   UNL     1     -10.664  16.455  70.308  1.00  0.00    -0.138 A  
HETATM   14 CL   UNL     1     -12.370  15.963  74.466  1.00  0.00    -0.778 Cl 
HETATM   15  C   UNL     1     -10.430  17.417  71.289  1.00  0.00     2.662 A  
HETATM   16  C   UNL     1     -11.022  17.270  72.548  1.00  0.00     2.339 A  
HETATM   17  C   UNL     1     -11.871  16.186  72.825  1.00  0.00    -0.473 A  
BRANCH  13  18
HETATM   18  C   UNL     1      -9.708  16.218  69.153  1.00  0.00    -0.265 C  
HETATM   19  C   UNL     1     -10.488  15.532  67.114  1.00  0.00    -0.286 C  
HETATM   20  C   UNL     1      -9.139  14.916  67.414  1.00  0.00    -0.189 C  
HETATM   21  O   UNL     1     -10.535  16.640  68.013  1.00  0.00    -0.292 OA 
HETATM   22  H   UNL     1      -8.065  18.967  68.275  1.00  0.00     0.000 HD 
HETATM   23  O   UNL     1      -9.277  14.836  68.863  1.00  0.00    -0.195 OA 
HETATM   24  C   UNL     1      -7.851  15.755  67.121  1.00  0.00    -0.212 C  
HETATM   25  O   UNL     1      -8.809  18.376  68.313  1.00  0.00    -0.290 OA 
HETATM   26  C   UNL     1      -7.327  16.479  68.388  1.00  0.00    -0.179 C  
HETATM   27  O   UNL     1      -8.071  16.639  66.023  1.00  0.00    -0.356 OA 
HETATM   28  H   UNL     1      -6.364  16.001  70.053  1.00  0.00     0.000 HD 
HETATM   29  H   UNL     1      -7.290  17.148  65.846  1.00  0.00     0.000 HD 
HETATM   30  O   UNL     1      -6.685  15.557  69.277  1.00  0.00    -0.132 OA 
HETATM   31  C   UNL     1      -8.482  17.192  69.089  1.00  0.00     0.003 C  
BRANCH  20  32
HETATM   32  C   UNL     1      -9.038  13.631  66.561  1.00  0.00    -0.119 C  
HETATM   33  O   UNL     1      -7.740  13.414  66.001  1.00  0.00     1.161 OA 
HETATM   34  H   UNL     1      -7.679  12.624  65.477  1.00  0.00     0.000 HD 
ENDBRANCH  20  32
ENDBRANCH  13  18
ENDBRANCH  10  11
ENDBRANCH   7  10
ENDBRANCH   3   4
ENDBRANCH   2   3
TORSDOF 6
ENDMDL
MODEL      259
REMARK 921   NORMALIZED FREE ENERGY PREDICTED BY IDOCK:    0.88 KCAL/MOL
REMARK 922        TOTAL FREE ENERGY PREDICTED BY IDOCK:    0.05 KCAL/MOL
REMARK 923 INTER-LIGAND FREE ENERGY PREDICTED BY IDOCK:    0.66 KCAL/MOL
REMARK 924 INTRA-LIGAND FREE ENERGY PREDICTED BY IDOCK:   -0.61 KCAL/MOL
REMARK 927      BINDING AFFINITY PREDICTED BY RF-SCORE:    0.00 PKD
ROOT
HETATM    1  C   UNL     1      -7.243  14.522  71.465  1.00  0.00     2.365 C  
HETATM    2  C   UNL     1      -7.465  15.468  70.295  1.00  0.00     0.550 C  
ENDROOT
BRANCH   2   3
HETATM    3  O   UNL     1      -8.774  15.258  69.751  1.00  0.00    -0.192 OA 
BRANCH   3   4
HETATM    4  C   UNL     1      -8.835  14.367  68.710  1.00  0.00    -0.131 A  
HETATM    5  C   UNL     1      -8.111  13.187  68.868  1.00  0.00     0.194 A  
HETATM    6  C   UNL     1      -7.968  12.287  67.803  1.00  0.00    -0.154 A  
HETATM    7  C   UNL     1      -8.552  12.561  66.554  1.00  0.00     0.022 A  
HETATM    8  C   UNL     1      -9.387  13.684  66.450  1.00  0.00    -0.203 A  
HETATM    9  C   UNL     1      -9.533  14.577  67.522  1.00  0.00    -0.203 A  
BRANCH   7  10
HETATM   10  C   UNL     1      -8.121  11.797  65.313  1.00  0.00     1.092 C  
BRANCH  10  11
HETATM   11  C   UNL     1      -8.015  10.289  65.359  1.00  0.00    -0.148 A  
HETATM   12  C   UNL     1      -8.980   9.565  66.072  1.00  0.00    -0.198 A  
HETATM   13  C   UNL     1      -8.952   8.150  66.179  1.00  0.00    -0.218 A  
HETATM   14 CL   UNL     1      -5.676  10.316  63.940  1.00  0.00    -0.136 Cl 
HETATM   15  C   UNL     1      -8.065   7.448  65.363  1.00  0.00    -0.133 A  
HETATM   16  C   UNL     1      -7.101   8.151  64.633  1.00  0.00    -0.080 A  
HETATM   17  C   UNL     1      -7.035   9.553  64.687  1.00  0.00    -0.102 A  
BRANCH  13  18
HETATM   18  C   UNL     1      -9.645   7.513  67.370  1.00  0.00    -0.149 C  
HETATM   19  C   UNL     1     -10.956   8.767  68.765  1.00  0.00     0.128 C  
HETATM   20  C   UNL     1     -10.219   7.692  69.533  1.00  0.00    -0.209 C  
HETATM   21  O   UNL     1     -10.890   8.293  67.420  1.00  0.00    -0.219 OA 
HETATM   22  H   UNL     1     -11.804   5.154  66.475  1.00  0.00     0.000 HD 
HETATM   23  O   UNL     1      -9.023   7.641  68.702  1.00  0.00    -0.134 OA 
HETATM   24  C   UNL     1     -10.819   6.248  69.562  1.00  0.00    -0.340 C  
HETATM   25  O   UNL     1     -11.499   6.044  66.611  1.00  0.00     0.056 OA 
HETATM   26  C   UNL     1     -10.177   5.328  68.493  1.00  0.00    -0.144 C  
HETATM   27  O   UNL     1     -12.243   6.298  69.473  1.00  0.00     0.018 OA 
HETATM   28  H   UNL     1      -8.464   4.366  68.229  1.00  0.00     0.000 HD 
HETATM   29  H   UNL     1     -12.607   5.421  69.491  1.00  0.00     0.000 HD 
HETATM   30  O   UNL     1      -8.857   4.930  68.884  1.00  0.00    -0.091 OA 
HETATM   31  C   UNL     1     -10.148   6.046  67.145  1.00  0.00    -0.173 C  
BRANCH  20  32
HETATM   32  C   UNL     1     -10.137   8.172  71.000  1.00  0.00    -0.187 C  
HETATM   33  O   UNL     1      -9.335   9.343  71.176  1.00  0.00    -0.224 OA 
HETATM   34  H   UNL     1      -9.284   9.638  72.078  1.00  0.00     0.000 HD 
ENDBRANCH  20  32
ENDBRANCH  13  18
ENDBRANCH  10  11
ENDBRANCH   7  10
ENDBRANCH   3   4
ENDBRANCH   2   3
TORSDOF 6
ENDMDL
MODEL      260
REMARK 921   NORMALIZED FREE ENERGY PREDICTED BY IDOCK:    1.00 KCAL/MOL
REMARK 922        TOTAL FREE ENERGY PREDICTED BY IDOCK:    0.21 KCAL/MOL
REMARK 923 INTER-LIGAND FREE ENERGY PREDICTED BY IDOCK:    1.26 KCAL/MOL
REMARK 924 INTRA-LIGAND FREE ENERGY PREDICTED BY IDOCK:   -1.05 KCAL/MOL
REMARK 927      BINDING AFFINITY PREDICTED BY RF-SCORE:    0.00 PKD
ROOT
HETATM    1  C   UNL     1      -6.774  13.563  72.982  1.00  0.00     3.721 C  
HETATM    2  C   UNL     1      -5.450  13.021  72.465  1.00  0.00     0.424 C  
ENDROOT
BRANCH   2   3
HETATM    3  O   UNL     1      -5.662  12.356  71.214  1.00  0.00    -0.382 OA 
BRANCH   3   4
HETATM    4  C   UNL     1      -5.892  11.007  71.305  1.00  0.00     0.263 A  
HETATM    5  C   UNL     1      -6.990  10.522  70.595  1.00  0.00     0.384 A  
HETATM    6  C   UNL     1      -7.413   9.195  70.753  1.00  0.00    -0.133 A  
HETATM    7  C   UNL     1      -6.739   8.330  71.632  1.00  0.00    -0.067 A  
HETATM    8  C   UNL     1      -5.560   8.792  72.235  1.00  0.00    -0.060 A  
HETATM    9  C   UNL     1      -5.136  10.119  72.068  1.00  0.00    -0.046 A  
BRANCH   7  10
HETATM   10  C   UNL     1      -7.381   7.026  72.079  1.00  0.00    -0.082 C  
BRANCH  10  11
HETATM   11  C   UNL     1      -8.217   6.228  71.106  1.00  0.00    -0.123 A  
HETATM   12  C   UNL     1      -7.746   6.049  69.798  1.00  0.00    -0.096 A  
HETATM   13  C   UNL     1      -8.469   5.325  68.815  1.00  0.00    -0.092 A  
HETATM   14 CL   UNL     1     -10.217   5.901  72.945  1.00  0.00    -0.202 Cl 
HETATM   15  C   UNL     1      -9.574   4.582  69.228  1.00  0.00    -0.258 A  
HETATM   16  C   UNL     1     -10.055   4.736  70.533  1.00  0.00    -0.291 A  
HETATM   17  C   UNL     1      -9.422   5.603  71.438  1.00  0.00    -0.147 A  
BRANCH  13  18
HETATM   18  C   UNL     1      -8.199   5.644  67.355  1.00  0.00    -0.101 C  
HETATM   19  C   UNL     1      -7.088   7.555  66.764  1.00  0.00    -0.083 C  
HETATM   20  C   UNL     1      -8.150   7.208  65.745  1.00  0.00    -0.130 C  
HETATM   21  O   UNL     1      -6.897   6.318  67.453  1.00  0.00    -0.059 OA 
HETATM   22  H   UNL     1      -6.288   3.358  65.887  1.00  0.00     0.000 HD 
HETATM   23  O   UNL     1      -9.100   6.581  66.656  1.00  0.00    -0.137 OA 
HETATM   24  C   UNL     1      -7.812   6.154  64.639  1.00  0.00    -0.113 C  
HETATM   25  O   UNL     1      -6.473   4.110  66.438  1.00  0.00    -0.036 OA 
HETATM   26  C   UNL     1      -8.311   4.736  65.013  1.00  0.00    -0.132 C  
HETATM   27  O   UNL     1      -6.421   6.193  64.324  1.00  0.00    -0.032 OA 
HETATM   28  H   UNL     1     -10.038   3.765  65.091  1.00  0.00     0.000 HD 
HETATM   29  H   UNL     1      -6.216   5.553  63.653  1.00  0.00     0.000 HD 
HETATM   30  O   UNL     1      -9.732   4.635  64.862  1.00  0.00    -0.136 OA 
HETATM   31  C   UNL     1      -7.895   4.404  66.446  1.00  0.00    -0.098 C  
BRANCH  20  32
HETATM   32  C   UNL     1      -8.512   8.522  65.016  1.00  0.00    -0.164 C  
HETATM   33  O   UNL     1      -9.621   9.214  65.596  1.00  0.00    -0.330 OA 
HETATM   34  H   UNL     1      -9.843  10.021  65.148  1.00  0.00     0.000 HD 
ENDBRANCH  20  32
ENDBRANCH  13  18
ENDBRANCH  10  11
ENDBRANCH   7  10
ENDBRANCH   3   4
ENDBRANCH   2   3
TORSDOF 6
ENDMDL
MODEL      261
REMARK 921   NORMALIZED FREE ENERGY PREDICTED BY IDOCK:    1.18 KCAL/MOL
REMARK 922        TOTAL FREE ENERGY PREDICTED BY IDOCK:    0.45 KCAL/MOL
REMARK 923 INTER-LIGAND FREE ENERGY PREDICTED BY IDOCK:    1.42 KCAL/MOL
REMARK 924 INTRA-LIGAND FREE ENERGY PREDICTED BY IDOCK:   -0.97 KCAL/MOL
REMARK 927      BINDING AFFINITY PREDICTED BY RF-SCORE:    0.00 PKD
ROOT
HETATM    1  C   UNL     1      -5.443   7.895  63.307  1.00  0.00    -0.050 C  
HETATM    2  C   UNL     1      -6.651   7.193  63.908  1.00  0.00    -0.044 C  
ENDROOT
BRANCH   2   3
HETATM    3  O   UNL     1      -7.824   7.538  63.160  1.00  0.00    -0.133 OA 
BRANCH   3   4
HETATM    4  C   UNL     1      -8.220   8.846  63.269  1.00  0.00    -0.182 A  
HETATM    5  C   UNL     1      -8.976   9.167  64.396  1.00  0.00    -0.104 A  
HETATM    6  C   UNL     1      -9.571  10.430  64.521  1.00  0.00    -0.369 A  
HETATM    7  C   UNL     1      -9.419  11.395  63.510  1.00  0.00    -0.255 A  
HETATM    8  C   UNL     1      -8.548  11.104  62.449  1.00  0.00    -0.307 A  
HETATM    9  C   UNL     1      -7.949   9.842  62.332  1.00  0.00    -0.130 A  
BRANCH   7  10
HETATM   10  C   UNL     1     -10.329  12.611  63.458  1.00  0.00    -0.182 C  
BRANCH  10  11
HETATM   11  C   UNL     1     -11.313  12.862  64.578  1.00  0.00    -0.382 A  
HETATM   12  C   UNL     1     -11.013  13.842  65.535  1.00  0.00    -0.302 A  
HETATM   13  C   UNL     1     -11.872  14.135  66.626  1.00  0.00    -0.447 A  
HETATM   14 CL   UNL     1     -12.953  10.849  63.715  1.00  0.00     2.245 Cl 
HETATM   15  C   UNL     1     -13.154  13.588  66.617  1.00  0.00     1.375 A  
HETATM   16  C   UNL     1     -13.479  12.617  65.664  1.00  0.00     2.480 A  
HETATM   17  C   UNL     1     -12.543  12.210  64.700  1.00  0.00    -0.175 A  
BRANCH  13  18
HETATM   18  C   UNL     1     -11.257  14.755  67.867  1.00  0.00    -0.306 C  
HETATM   19  C   UNL     1     -10.799  13.473  69.707  1.00  0.00     0.317 C  
HETATM   20  C   UNL     1     -11.242  14.862  70.110  1.00  0.00    -0.239 C  
HETATM   21  O   UNL     1     -10.413  13.650  68.344  1.00  0.00    -0.235 OA 
HETATM   22  H   UNL     1      -8.261  16.065  67.286  1.00  0.00     0.000 HD 
HETATM   23  O   UNL     1     -12.143  15.115  68.992  1.00  0.00    -0.285 OA 
HETATM   24  C   UNL     1     -10.183  16.014  70.114  1.00  0.00    -0.017 C  
HETATM   25  O   UNL     1      -8.886  15.367  67.448  1.00  0.00    -0.171 OA 
HETATM   26  C   UNL     1     -10.219  16.844  68.806  1.00  0.00    -0.311 C  
HETATM   27  O   UNL     1      -8.886  15.497  70.413  1.00  0.00     0.230 OA 
HETATM   28  H   UNL     1     -11.380  18.221  67.978  1.00  0.00     0.000 HD 
HETATM   29  H   UNL     1      -8.244  16.197  70.416  1.00  0.00     0.000 HD 
HETATM   30  O   UNL     1     -11.358  17.712  68.780  1.00  0.00     0.451 OA 
HETATM   31  C   UNL     1     -10.226  15.905  67.601  1.00  0.00    -0.263 C  
BRANCH  20  32
HETATM   32  C   UNL     1     -11.789  14.753  71.551  1.00  0.00    -0.331 C  
HETATM   33  O   UNL     1     -11.895  16.012  72.222  1.00  0.00    -0.457 OA 
HETATM   34  H   UNL     1     -12.231  15.944  73.108  1.00  0.00     0.000 HD 
ENDBRANCH  20  32
ENDBRANCH  13  18
ENDBRANCH  10  11
ENDBRANCH   7  10
ENDBRANCH   3   4
ENDBRANCH   2   3
TORSDOF 6
ENDMDL
MODEL      262
REMARK 921   NORMALIZED FREE ENERGY PREDICTED BY IDOCK:    1.71 KCAL/MOL
REMARK 922        TOTAL FREE ENERGY PREDICTED BY IDOCK:    1.17 KCAL/MOL
REMARK 923 INTER-LIGAND FREE ENERGY PREDICTED BY IDOCK:    2.14 KCAL/MOL
REMARK 924 INTRA-LIGAND FREE ENERGY PREDICTED BY IDOCK:   -0.97 KCAL/MOL
REMARK 927      BINDING AFFINITY PREDICTED BY RF-SCORE:    0.00 PKD
ROOT
HETATM    1  C   UNL     1      -5.443   7.895  63.307  1.00  0.00    -0.050 C  
HETATM    2  C   UNL     1      -6.657   7.194  63.897  1.00  0.00    -0.044 C  
ENDROOT
BRANCH   2   3
HETATM    3  O   UNL     1      -7.825   7.547  63.145  1.00  0.00    -0.133 OA 
BRANCH   3   4
HETATM    4  C   UNL     1      -8.217   8.856  63.260  1.00  0.00    -0.182 A  
HETATM    5  C   UNL     1      -8.977   9.173  64.385  1.00  0.00    -0.104 A  
HETATM    6  C   UNL     1      -9.568  10.437  64.515  1.00  0.00    -0.369 A  
HETATM    7  C   UNL     1      -9.408  11.407  63.510  1.00  0.00    -0.187 A  
HETATM    8  C   UNL     1      -8.533  11.120  62.452  1.00  0.00    -0.282 A  
HETATM    9  C   UNL     1      -7.937   9.857  62.330  1.00  0.00    -0.134 A  
BRANCH   7  10
HETATM   10  C   UNL     1     -10.313  12.628  63.461  1.00  0.00    -0.182 C  
BRANCH  10  11
HETATM   11  C   UNL     1     -11.302  12.875  64.577  1.00  0.00    -0.382 A  
HETATM   12  C   UNL     1     -11.004  13.848  65.541  1.00  0.00    -0.302 A  
HETATM   13  C   UNL     1     -11.868  14.138  66.629  1.00  0.00    -0.447 A  
HETATM   14 CL   UNL     1     -12.945  10.873  63.693  1.00  0.00     2.169 Cl 
HETATM   15  C   UNL     1     -13.152  13.595  66.610  1.00  0.00     1.245 A  
HETATM   16  C   UNL     1     -13.475  12.631  65.650  1.00  0.00     2.480 A  
HETATM   17  C   UNL     1     -12.535  12.226  64.688  1.00  0.00    -0.341 A  
BRANCH  13  18
HETATM   18  C   UNL     1     -11.257  14.748  67.878  1.00  0.00    -0.306 C  
HETATM   19  C   UNL     1      -9.380  16.049  67.742  1.00  0.00    -0.211 C  
HETATM   20  C   UNL     1      -9.383  15.233  69.016  1.00  0.00    -0.231 C  
HETATM   21  O   UNL     1     -10.751  16.023  67.348  1.00  0.00    -0.313 OA 
HETATM   22  H   UNL     1     -13.328  16.840  69.416  1.00  0.00     0.000 HD 
HETATM   23  O   UNL     1     -10.104  14.073  68.504  1.00  0.00    -0.230 OA 
HETATM   24  C   UNL     1     -10.189  15.767  70.246  1.00  0.00    -0.060 C  
HETATM   25  O   UNL     1     -12.706  16.568  68.751  1.00  0.00     0.979 OA 
HETATM   26  C   UNL     1     -11.600  15.133  70.339  1.00  0.00    -0.292 C  
HETATM   27  O   UNL     1     -10.216  17.194  70.241  1.00  0.00     0.462 OA 
HETATM   28  H   UNL     1     -12.391  13.393  70.864  1.00  0.00     0.000 HD 
HETATM   29  H   UNL     1     -10.705  17.519  70.988  1.00  0.00     0.000 HD 
HETATM   30  O   UNL     1     -11.526  13.782  70.807  1.00  0.00     0.003 OA 
HETATM   31  C   UNL     1     -12.284  15.196  68.974  1.00  0.00    -0.122 C  
BRANCH  20  32
HETATM   32  C   UNL     1      -7.910  15.107  69.467  1.00  0.00    -0.186 C  
HETATM   33  O   UNL     1      -7.269  13.915  69.003  1.00  0.00    -0.111 OA 
HETATM   34  H   UNL     1      -6.364  13.837  69.281  1.00  0.00     0.000 HD 
ENDBRANCH  20  32
ENDBRANCH  13  18
ENDBRANCH  10  11
ENDBRANCH   7  10
ENDBRANCH   3   4
ENDBRANCH   2   3
TORSDOF 6
ENDMDL
MODEL      263
REMARK 921   NORMALIZED FREE ENERGY PREDICTED BY IDOCK:    2.03 KCAL/MOL
REMARK 922        TOTAL FREE ENERGY PREDICTED BY IDOCK:    1.60 KCAL/MOL
REMARK 923 INTER-LIGAND FREE ENERGY PREDICTED BY IDOCK:    1.72 KCAL/MOL
REMARK 924 INTRA-LIGAND FREE ENERGY PREDICTED BY IDOCK:   -0.12 KCAL/MOL
REMARK 927      BINDING AFFINITY PREDICTED BY RF-SCORE:    0.00 PKD
ROOT
HETATM    1  C   UNL     1      -7.112  10.595  62.755  1.00  0.00    -0.020 C  
HETATM    2  C   UNL     1      -6.263   9.833  63.760  1.00  0.00    -0.116 C  
ENDROOT
BRANCH   2   3
HETATM    3  O   UNL     1      -6.992   9.683  64.985  1.00  0.00    -0.100 OA 
BRANCH   3   4
HETATM    4  C   UNL     1      -7.786   8.567  65.056  1.00  0.00    -0.112 A  
HETATM    5  C   UNL     1      -7.541   7.705  66.124  1.00  0.00    -0.088 A  
HETATM    6  C   UNL     1      -8.178   6.459  66.196  1.00  0.00    -0.122 A  
HETATM    7  C   UNL     1      -9.072   6.054  65.191  1.00  0.00     0.226 A  
HETATM    8  C   UNL     1      -9.408   6.984  64.196  1.00  0.00     2.209 A  
HETATM    9  C   UNL     1      -8.775   8.233  64.131  1.00  0.00     0.251 A  
BRANCH   7  10
HETATM   10  C   UNL     1      -9.487   4.597  65.065  1.00  0.00    -0.128 C  
BRANCH  10  11
HETATM   11  C   UNL     1      -9.440   3.694  66.277  1.00  0.00    -0.177 A  
HETATM   12  C   UNL     1      -9.098   4.248  67.518  1.00  0.00    -0.153 A  
HETATM   13  C   UNL     1      -9.017   3.474  68.705  1.00  0.00    -0.184 A  
HETATM   14 CL   UNL     1     -10.013   1.483  64.770  1.00  0.00     0.183 Cl 
HETATM   15  C   UNL     1      -9.510   2.171  68.674  1.00  0.00    -0.201 A  
HETATM   16  C   UNL     1      -9.870   1.602  67.447  1.00  0.00     0.503 A  
HETATM   17  C   UNL     1      -9.768   2.336  66.254  1.00  0.00     0.551 A  
BRANCH  13  18
HETATM   18  C   UNL     1      -8.132   3.985  69.828  1.00  0.00    -0.054 C  
HETATM   19  C   UNL     1      -9.045   5.010  71.659  1.00  0.00    -0.140 C  
HETATM   20  C   UNL     1      -7.713   5.631  71.297  1.00  0.00    -0.109 C  
HETATM   21  O   UNL     1      -8.994   3.747  70.994  1.00  0.00    -0.087 OA 
HETATM   22  H   UNL     1      -6.406   1.557  71.295  1.00  0.00     0.000 HD 
HETATM   23  O   UNL     1      -7.782   5.419  69.857  1.00  0.00    -0.077 OA 
HETATM   24  C   UNL     1      -6.403   4.939  71.800  1.00  0.00    -0.030 C  
HETATM   25  O   UNL     1      -7.174   2.086  71.111  1.00  0.00    -0.032 OA 
HETATM   26  C   UNL     1      -5.782   4.013  70.723  1.00  0.00    -0.013 C  
HETATM   27  O   UNL     1      -6.636   4.275  73.042  1.00  0.00    -0.042 OA 
HETATM   28  H   UNL     1      -4.761   4.211  69.036  1.00  0.00     0.000 HD 
HETATM   29  H   UNL     1      -5.840   3.855  73.347  1.00  0.00     0.000 HD 
HETATM   30  O   UNL     1      -5.142   4.779  69.695  1.00  0.00     0.000 OA 
HETATM   31  C   UNL     1      -6.866   3.113  70.131  1.00  0.00    -0.034 C  
BRANCH  20  32
HETATM   32  C   UNL     1      -7.717   7.061  71.883  1.00  0.00    -0.093 C  
HETATM   33  O   UNL     1      -8.120   8.063  70.945  1.00  0.00    -0.096 OA 
HETATM   34  H   UNL     1      -8.122   8.942  71.305  1.00  0.00     0.000 HD 
ENDBRANCH  20  32
ENDBRANCH  13  18
ENDBRANCH  10  11
ENDBRANCH   7  10
ENDBRANCH   3   4
ENDBRANCH   2   3
TORSDOF 6
ENDMDL
MODEL      264
REMARK 921   NORMALIZED FREE ENERGY PREDICTED BY IDOCK:    2.23 KCAL/MOL
REMARK 922        TOTAL FREE ENERGY PREDICTED BY IDOCK:    1.88 KCAL/MOL
REMARK 923 INTER-LIGAND FREE ENERGY PREDICTED BY IDOCK:    3.22 KCAL/MOL
REMARK 924 INTRA-LIGAND FREE ENERGY PREDICTED BY IDOCK:   -1.34 KCAL/MOL
REMARK 927      BINDING AFFINITY PREDICTED BY RF-SCORE:    0.00 PKD
ROOT
HETATM    1  C   UNL     1     -13.130  12.103  63.878  1.00  0.00    -0.192 C  
HETATM    2  C   UNL     1     -12.521  13.090  64.861  1.00  0.00    -0.455 C  
ENDROOT
BRANCH   2   3
HETATM    3  O   UNL     1     -12.808  12.669  66.201  1.00  0.00    -0.064 OA 
BRANCH   3   4
HETATM    4  C   UNL     1     -11.707  12.407  66.976  1.00  0.00    -0.353 A  
HETATM    5  C   UNL     1     -11.829  12.694  68.335  1.00  0.00    -0.347 A  
HETATM    6  C   UNL     1     -10.716  12.622  69.183  1.00  0.00    -0.061 A  
HETATM    7  C   UNL     1      -9.455  12.262  68.678  1.00  0.00    -0.030 A  
HETATM    8  C   UNL     1      -9.376  11.848  67.340  1.00  0.00    -0.176 A  
HETATM    9  C   UNL     1     -10.494  11.914  66.496  1.00  0.00    -0.256 A  
BRANCH   7  10
HETATM   10  C   UNL     1      -8.194  12.521  69.487  1.00  0.00     1.293 C  
BRANCH  10  11
HETATM   11  C   UNL     1      -7.683  13.934  69.651  1.00  0.00     0.560 A  
HETATM   12  C   UNL     1      -8.552  15.002  69.388  1.00  0.00    -0.121 A  
HETATM   13  C   UNL     1      -8.155  16.359  69.503  1.00  0.00     0.169 A  
HETATM   14 CL   UNL     1      -5.168  13.053  70.270  1.00  0.00    -0.097 Cl 
HETATM   15  C   UNL     1      -6.931  16.635  70.111  1.00  0.00     0.824 A  
HETATM   16  C   UNL     1      -6.052  15.584  70.394  1.00  0.00    -0.026 A  
HETATM   17  C   UNL     1      -6.399  14.255  70.101  1.00  0.00    -0.144 A  
BRANCH  13  18
HETATM   18  C   UNL     1      -8.917  17.394  68.695  1.00  0.00    -0.255 C  
HETATM   19  C   UNL     1      -8.959  19.586  69.350  1.00  0.00     0.150 C  
HETATM   20  C   UNL     1     -10.276  19.181  68.724  1.00  0.00    -0.288 C  
HETATM   21  O   UNL     1      -8.064  18.577  68.881  1.00  0.00    -0.287 OA 
HETATM   22  H   UNL     1      -7.742  17.712  65.605  1.00  0.00     0.000 HD 
HETATM   23  O   UNL     1     -10.269  17.784  69.139  1.00  0.00    -0.346 OA 
HETATM   24  C   UNL     1     -10.399  19.196  67.164  1.00  0.00    -0.420 C  
HETATM   25  O   UNL     1      -7.753  17.844  66.546  1.00  0.00    -0.225 OA 
HETATM   26  C   UNL     1     -10.162  17.794  66.547  1.00  0.00    -0.358 C  
HETATM   27  O   UNL     1      -9.554  20.203  66.607  1.00  0.00    -0.391 OA 
HETATM   28  H   UNL     1     -11.146  16.082  66.383  1.00  0.00     0.000 HD 
HETATM   29  H   UNL     1      -9.629  20.211  65.661  1.00  0.00     0.000 HD 
HETATM   30  O   UNL     1     -11.292  16.941  66.761  1.00  0.00     0.335 OA 
HETATM   31  C   UNL     1      -8.897  17.177  67.143  1.00  0.00    -0.220 C  
BRANCH  20  32
HETATM   32  C   UNL     1     -11.344  20.157  69.267  1.00  0.00     2.630 C  
HETATM   33  O   UNL     1     -11.520  21.323  68.457  1.00  0.00     2.371 OA 
HETATM   34  H   UNL     1     -12.177  21.923  68.791  1.00  0.00     0.000 HD 
ENDBRANCH  20  32
ENDBRANCH  13  18
ENDBRANCH  10  11
ENDBRANCH   7  10
ENDBRANCH   3   4
ENDBRANCH   2   3
TORSDOF 6
ENDMDL
MODEL      265
REMARK 921   NORMALIZED FREE ENERGY PREDICTED BY IDOCK:    3.88 KCAL/MOL
REMARK 922        TOTAL FREE ENERGY PREDICTED BY IDOCK:    4.10 KCAL/MOL
REMARK 923 INTER-LIGAND FREE ENERGY PREDICTED BY IDOCK:    4.45 KCAL/MOL
REMARK 924 INTRA-LIGAND FREE ENERGY PREDICTED BY IDOCK:   -0.35 KCAL/MOL
REMARK 927      BINDING AFFINITY PREDICTED BY RF-SCORE:    0.00 PKD
ROOT
HETATM    1  C   UNL     1     -11.397  10.349  72.931  1.00  0.00     5.947 C  
HETATM    2  C   UNL     1     -10.862   9.891  71.584  1.00  0.00     0.431 C  
ENDROOT
BRANCH   2   3
HETATM    3  O   UNL     1     -10.767   8.461  71.568  1.00  0.00    -0.221 OA 
BRANCH   3   4
HETATM    4  C   UNL     1     -10.948   7.880  70.338  1.00  0.00    -0.249 A  
HETATM    5  C   UNL     1     -11.668   6.687  70.322  1.00  0.00    -0.432 A  
HETATM    6  C   UNL     1     -11.766   5.927  69.148  1.00  0.00     0.979 A  
HETATM    7  C   UNL     1     -11.137   6.354  67.966  1.00  0.00    -0.365 A  
HETATM    8  C   UNL     1     -10.531   7.619  67.964  1.00  0.00    -0.247 A  
HETATM    9  C   UNL     1     -10.442   8.380  69.139  1.00  0.00    -0.218 A  
BRANCH   7  10
HETATM   10  C   UNL     1     -10.932   5.392  66.807  1.00  0.00    -0.035 C  
BRANCH  10  11
HETATM   11  C   UNL     1      -9.656   5.450  65.999  1.00  0.00    -0.149 A  
HETATM   12  C   UNL     1      -8.963   6.665  65.916  1.00  0.00    -0.096 A  
HETATM   13  C   UNL     1      -7.764   6.815  65.171  1.00  0.00    -0.105 A  
HETATM   14 CL   UNL     1      -9.925   2.843  65.212  1.00  0.00     0.204 Cl 
HETATM   15  C   UNL     1      -7.142   5.663  64.692  1.00  0.00    -0.057 A  
HETATM   16  C   UNL     1      -7.810   4.436  64.775  1.00  0.00    -0.089 A  
HETATM   17  C   UNL     1      -9.084   4.347  65.360  1.00  0.00    -0.143 A  
BRANCH  13  18
HETATM   18  C   UNL     1      -7.404   8.204  64.676  1.00  0.00    -0.087 C  
HETATM   19  C   UNL     1      -8.961   9.880  64.666  1.00  0.00    -0.222 C  
HETATM   20  C   UNL     1      -8.027  10.000  63.482  1.00  0.00    -0.157 C  
HETATM   21  O   UNL     1      -8.230   9.039  65.558  1.00  0.00    -0.111 OA 
HETATM   22  H   UNL     1      -5.009   9.619  66.490  1.00  0.00     0.000 HD 
HETATM   23  O   UNL     1      -7.763   8.579  63.294  1.00  0.00    -0.123 OA 
HETATM   24  C   UNL     1      -6.643  10.700  63.687  1.00  0.00     0.171 C  
HETATM   25  O   UNL     1      -5.894   9.336  66.292  1.00  0.00    -0.055 OA 
HETATM   26  C   UNL     1      -5.505   9.679  63.940  1.00  0.00    -0.075 C  
HETATM   27  O   UNL     1      -6.736  11.697  64.704  1.00  0.00     1.108 OA 
HETATM   28  H   UNL     1      -4.439   8.385  62.883  1.00  0.00     0.000 HD 
HETATM   29  H   UNL     1      -5.896  12.122  64.829  1.00  0.00     0.000 HD 
HETATM   30  O   UNL     1      -5.136   9.011  62.728  1.00  0.00    -0.067 OA 
HETATM   31  C   UNL     1      -5.944   8.671  65.001  1.00  0.00    -0.055 C  
BRANCH  20  32
HETATM   32  C   UNL     1      -8.782  10.808  62.401  1.00  0.00    -0.289 C  
HETATM   33  O   UNL     1     -10.205  10.755  62.535  1.00  0.00    -0.741 OA 
HETATM   34  H   UNL     1     -10.668  11.251  61.870  1.00  0.00     0.000 HD 
ENDBRANCH  20  32
ENDBRANCH  13  18
ENDBRANCH  10  11
ENDBRANCH   7  10
ENDBRANCH   3   4
ENDBRANCH   2   3
TORSDOF 6
ENDMDL
MODEL      266
REMARK 921   NORMALIZED FREE ENERGY PREDICTED BY IDOCK:    5.07 KCAL/MOL
REMARK 922        TOTAL FREE ENERGY PREDICTED BY IDOCK:    5.71 KCAL/MOL
REMARK 923 INTER-LIGAND FREE ENERGY PREDICTED BY IDOCK:    5.66 KCAL/MOL
REMARK 924 INTRA-LIGAND FREE ENERGY PREDICTED BY IDOCK:    0.06 KCAL/MOL
REMARK 927      BINDING AFFINITY PREDICTED BY RF-SCORE:    0.00 PKD
ROOT
HETATM    1  C   UNL     1      -7.229  13.321  67.244  1.00  0.00    -0.033 C  
HETATM    2  C   UNL     1      -6.986  13.473  68.737  1.00  0.00    -0.102 C  
ENDROOT
BRANCH   2   3
HETATM    3  O   UNL     1      -8.068  12.875  69.461  1.00  0.00     0.766 OA 
BRANCH   3   4
HETATM    4  C   UNL     1      -8.032  11.506  69.537  1.00  0.00     0.529 A  
HETATM    5  C   UNL     1      -8.318  10.951  70.784  1.00  0.00     3.448 A  
HETATM    6  C   UNL     1      -8.144   9.580  71.012  1.00  0.00     0.122 A  
HETATM    7  C   UNL     1      -7.676   8.738  69.988  1.00  0.00    -0.082 A  
HETATM    8  C   UNL     1      -7.520   9.286  68.706  1.00  0.00    -0.076 A  
HETATM    9  C   UNL     1      -7.703  10.658  68.480  1.00  0.00    -0.107 A  
BRANCH   7  10
HETATM   10  C   UNL     1      -7.150   7.348  70.308  1.00  0.00    -0.064 C  
BRANCH  10  11
HETATM   11  C   UNL     1      -6.651   6.459  69.192  1.00  0.00    -0.048 A  
HETATM   12  C   UNL     1      -7.146   6.657  67.896  1.00  0.00    -0.085 A  
HETATM   13  C   UNL     1      -6.743   5.862  66.792  1.00  0.00    -0.058 A  
HETATM   14 CL   UNL     1      -5.127   4.985  70.922  1.00  0.00    -0.004 Cl 
HETATM   15  C   UNL     1      -5.656   5.006  66.962  1.00  0.00    -0.013 A  
HETATM   16  C   UNL     1      -5.137   4.802  68.245  1.00  0.00     0.000 A  
HETATM   17  C   UNL     1      -5.677   5.470  69.356  1.00  0.00    -0.012 A  
BRANCH  13  18
HETATM   18  C   UNL     1      -7.690   5.755  65.610  1.00  0.00    -0.093 C  
HETATM   19  C   UNL     1      -7.044   6.454  63.530  1.00  0.00    -0.054 C  
HETATM   20  C   UNL     1      -8.514   6.726  63.761  1.00  0.00     0.328 C  
HETATM   21  O   UNL     1      -6.746   5.470  64.520  1.00  0.00    -0.041 OA 
HETATM   22  H   UNL     1      -8.549   2.615  64.949  1.00  0.00     0.000 HD 
HETATM   23  O   UNL     1      -8.449   6.952  65.199  1.00  0.00    -0.116 OA 
HETATM   24  C   UNL     1      -9.535   5.564  63.526  1.00  0.00     0.983 C  
HETATM   25  O   UNL     1      -7.982   3.378  64.946  1.00  0.00    -0.088 OA 
HETATM   26  C   UNL     1      -9.900   4.833  64.843  1.00  0.00     0.081 C  
HETATM   27  O   UNL     1      -9.062   4.683  62.508  1.00  0.00    -0.125 OA 
HETATM   28  H   UNL     1     -11.006   5.177  66.450  1.00  0.00     0.000 HD 
HETATM   29  H   UNL     1      -9.682   3.978  62.366  1.00  0.00     0.000 HD 
HETATM   30  O   UNL     1     -10.783   5.626  65.643  1.00  0.00     0.308 OA 
HETATM   31  C   UNL     1      -8.625   4.497  65.615  1.00  0.00    -0.121 C  
BRANCH  20  32
HETATM   32  C   UNL     1      -8.910   7.871  62.802  1.00  0.00     0.544 C  
HETATM   33  O   UNL     1      -7.981   8.959  62.793  1.00  0.00    -0.131 OA 
HETATM   34  H   UNL     1      -8.225   9.663  62.204  1.00  0.00     0.000 HD 
ENDBRANCH  20  32
ENDBRANCH  13  18
ENDBRANCH  10  11
ENDBRANCH   7  10
ENDBRANCH   3   4
ENDBRANCH   2   3
TORSDOF 6
ENDMDL
MODEL      267
REMARK 921   NORMALIZED FREE ENERGY PREDICTED BY IDOCK:    6.23 KCAL/MOL
REMARK 922        TOTAL FREE ENERGY PREDICTED BY IDOCK:    7.28 KCAL/MOL
REMARK 923 INTER-LIGAND FREE ENERGY PREDICTED BY IDOCK:    8.83 KCAL/MOL
REMARK 924 INTRA-LIGAND FREE ENERGY PREDICTED BY IDOCK:   -1.54 KCAL/MOL
REMARK 927      BINDING AFFINITY PREDICTED BY RF-SCORE:    0.00 PKD
ROOT
HETATM    1  C   UNL     1     -10.565  18.650  65.842  1.00  0.00    -0.365 C  
HETATM    2  C   UNL     1     -10.650  18.540  67.356  1.00  0.00    -0.424 C  
ENDROOT
BRANCH   2   3
HETATM    3  O   UNL     1     -11.959  18.095  67.731  1.00  0.00     1.588 OA 
BRANCH   3   4
HETATM    4  C   UNL     1     -12.003  17.278  68.831  1.00  0.00     2.147 A  
HETATM    5  C   UNL     1     -10.810  17.137  69.540  1.00  0.00     0.081 A  
HETATM    6  C   UNL     1     -10.701  16.200  70.576  1.00  0.00    -0.078 A  
HETATM    7  C   UNL     1     -11.791  15.382  70.917  1.00  0.00    -0.400 A  
HETATM    8  C   UNL     1     -13.021  15.628  70.287  1.00  0.00    -0.042 A  
HETATM    9  C   UNL     1     -13.128  16.573  69.256  1.00  0.00     3.430 A  
BRANCH   7  10
HETATM   10  C   UNL     1     -11.591  14.142  71.773  1.00  0.00     0.673 C  
BRANCH  10  11
HETATM   11  C   UNL     1     -11.860  12.774  71.189  1.00  0.00     0.662 A  
HETATM   12  C   UNL     1     -10.938  12.233  70.283  1.00  0.00     1.059 A  
HETATM   13  C   UNL     1     -11.116  10.962  69.676  1.00  0.00    -0.328 A  
HETATM   14 CL   UNL     1     -14.268  12.594  72.477  1.00  0.00    -0.020 Cl 
HETATM   15  C   UNL     1     -12.125  10.136  70.168  1.00  0.00    -0.224 A  
HETATM   16  C   UNL     1     -13.050  10.651  71.083  1.00  0.00    -0.415 A  
HETATM   17  C   UNL     1     -12.957  11.978  71.533  1.00  0.00    -0.304 A  
BRANCH  13  18
HETATM   18  C   UNL     1     -10.424  10.705  68.350  1.00  0.00    -0.188 C  
HETATM   19  C   UNL     1      -8.154  10.920  68.157  1.00  0.00    -0.119 C  
HETATM   20  C   UNL     1      -8.850  11.358  66.888  1.00  0.00    -0.173 C  
HETATM   21  O   UNL     1      -9.150  10.130  68.806  1.00  0.00    -0.139 OA 
HETATM   22  H   UNL     1     -10.824   7.583  67.290  1.00  0.00     0.000 HD 
HETATM   23  O   UNL     1     -10.076  11.859  67.497  1.00  0.00    -0.191 OA 
HETATM   24  C   UNL     1      -9.268  10.266  65.848  1.00  0.00    -0.167 C  
HETATM   25  O   UNL     1     -10.446   8.279  67.816  1.00  0.00    -0.231 OA 
HETATM   26  C   UNL     1     -10.750   9.844  66.010  1.00  0.00     0.208 C  
HETATM   27  O   UNL     1      -8.364   9.162  65.894  1.00  0.00    -0.115 OA 
HETATM   28  H   UNL     1     -12.538  10.594  65.602  1.00  0.00     0.000 HD 
HETATM   29  H   UNL     1      -8.617   8.500  65.264  1.00  0.00     0.000 HD 
HETATM   30  O   UNL     1     -11.630  10.853  65.502  1.00  0.00     0.307 OA 
HETATM   31  C   UNL     1     -11.046   9.558  67.482  1.00  0.00     0.091 C  
BRANCH  20  32
HETATM   32  C   UNL     1      -7.883  12.321  66.161  1.00  0.00     0.807 C  
HETATM   33  O   UNL     1      -8.303  12.663  64.837  1.00  0.00     1.695 OA 
HETATM   34  H   UNL     1      -7.709  13.255  64.390  1.00  0.00     0.000 HD 
ENDBRANCH  20  32
ENDBRANCH  13  18
ENDBRANCH  10  11
ENDBRANCH   7  10
ENDBRANCH   3   4
ENDBRANCH   2   3
TORSDOF 6
ENDMDL
MODEL      268
REMARK 921   NORMALIZED FREE ENERGY PREDICTED BY IDOCK:   10.51 KCAL/MOL
REMARK 922        TOTAL FREE ENERGY PREDICTED BY IDOCK:   13.06 KCAL/MOL
REMARK 923 INTER-LIGAND FREE ENERGY PREDICTED BY IDOCK:   13.43 KCAL/MOL
REMARK 924 INTRA-LIGAND FREE ENERGY PREDICTED BY IDOCK:   -0.36 KCAL/MOL
REMARK 927      BINDING AFFINITY PREDICTED BY RF-SCORE:    0.00 PKD
ROOT
HETATM    1  C   UNL     1      -6.786  14.082  73.358  1.00  0.00     2.539 C  
HETATM    2  C   UNL     1      -7.033  15.258  72.426  1.00  0.00     3.708 C  
ENDROOT
BRANCH   2   3
HETATM    3  O   UNL     1      -8.288  15.083  71.757  1.00  0.00     3.530 OA 
BRANCH   3   4
HETATM    4  C   UNL     1      -8.224  14.394  70.573  1.00  0.00     2.104 A  
HETATM    5  C   UNL     1      -7.564  13.167  70.610  1.00  0.00     3.829 A  
HETATM    6  C   UNL     1      -7.295  12.464  69.428  1.00  0.00     0.314 A  
HETATM    7  C   UNL     1      -7.685  12.985  68.182  1.00  0.00    -0.143 A  
HETATM    8  C   UNL     1      -8.464  14.152  68.172  1.00  0.00    -0.173 A  
HETATM    9  C   UNL     1      -8.737  14.849  69.358  1.00  0.00    -0.048 A  
BRANCH   7  10
HETATM   10  C   UNL     1      -7.101  12.430  66.893  1.00  0.00     0.095 C  
BRANCH  10  11
HETATM   11  C   UNL     1      -7.080  10.936  66.661  1.00  0.00    -0.135 A  
HETATM   12  C   UNL     1      -7.843  10.111  67.498  1.00  0.00    -0.102 A  
HETATM   13  C   UNL     1      -7.873   8.698  67.361  1.00  0.00    -0.098 A  
HETATM   14 CL   UNL     1      -5.247  11.181  64.644  1.00  0.00     0.160 Cl 
HETATM   15  C   UNL     1      -7.302   8.138  66.220  1.00  0.00    -0.078 A  
HETATM   16  C   UNL     1      -6.545   8.945  65.364  1.00  0.00    -0.068 A  
HETATM   17  C   UNL     1      -6.380  10.315  65.622  1.00  0.00    -0.118 A  
BRANCH  13  18
HETATM   18  C   UNL     1      -8.234   7.873  68.584  1.00  0.00    -0.127 C  
HETATM   19  C   UNL     1      -8.838   8.892  70.542  1.00  0.00    -0.192 C  
HETATM   20  C   UNL     1      -8.057   7.624  70.808  1.00  0.00    -0.103 C  
HETATM   21  O   UNL     1      -9.273   8.716  69.193  1.00  0.00    -0.151 OA 
HETATM   22  H   UNL     1     -10.880   5.932  68.073  1.00  0.00     0.000 HD 
HETATM   23  O   UNL     1      -7.208   7.663  69.624  1.00  0.00    -0.075 OA 
HETATM   24  C   UNL     1      -8.817   6.257  70.782  1.00  0.00    -0.144 C  
HETATM   25  O   UNL     1     -10.423   6.746  68.254  1.00  0.00    -0.177 OA 
HETATM   26  C   UNL     1      -8.687   5.543  69.412  1.00  0.00    -0.107 C  
HETATM   27  O   UNL     1     -10.172   6.432  71.194  1.00  0.00    -0.187 OA 
HETATM   28  H   UNL     1      -7.304   4.535  68.413  1.00  0.00     0.000 HD 
HETATM   29  H   UNL     1     -10.633   5.602  71.178  1.00  0.00     0.000 HD 
HETATM   30  O   UNL     1      -7.383   4.973  69.252  1.00  0.00    -0.056 OA 
HETATM   31  C   UNL     1      -8.987   6.531  68.286  1.00  0.00    -0.121 C  
BRANCH  20  32
HETATM   32  C   UNL     1      -7.445   7.768  72.220  1.00  0.00    -0.083 C  
HETATM   33  O   UNL     1      -8.279   8.481  73.137  1.00  0.00    -0.368 OA 
HETATM   34  H   UNL     1      -7.902   8.570  74.004  1.00  0.00     0.000 HD 
ENDBRANCH  20  32
ENDBRANCH  13  18
ENDBRANCH  10  11
ENDBRANCH   7  10
ENDBRANCH   3   4
ENDBRANCH   2   3
TORSDOF 6
ENDMDL
MODEL      269
REMARK 921   NORMALIZED FREE ENERGY PREDICTED BY IDOCK:   11.46 KCAL/MOL
REMARK 922        TOTAL FREE ENERGY PREDICTED BY IDOCK:   14.34 KCAL/MOL
REMARK 923 INTER-LIGAND FREE ENERGY PREDICTED BY IDOCK:   15.01 KCAL/MOL
REMARK 924 INTRA-LIGAND FREE ENERGY PREDICTED BY IDOCK:   -0.67 KCAL/MOL
REMARK 927      BINDING AFFINITY PREDICTED BY RF-SCORE:    0.00 PKD
ROOT
HETATM    1  C   UNL     1     -14.302   1.876  70.863  1.00  0.00     8.312 C  
HETATM    2  C   UNL     1     -13.521   2.237  72.116  1.00  0.00     4.758 C  
ENDROOT
BRANCH   2   3
HETATM    3  O   UNL     1     -12.306   1.478  72.158  1.00  0.00     1.450 OA 
BRANCH   3   4
HETATM    4  C   UNL     1     -11.171   2.180  71.841  1.00  0.00     1.545 A  
HETATM    5  C   UNL     1      -9.960   1.551  72.127  1.00  0.00    -0.204 A  
HETATM    6  C   UNL     1      -8.748   2.244  72.000  1.00  0.00    -0.097 A  
HETATM    7  C   UNL     1      -8.732   3.586  71.585  1.00  0.00    -0.124 A  
HETATM    8  C   UNL     1      -9.944   4.162  71.173  1.00  0.00    -0.211 A  
HETATM    9  C   UNL     1     -11.154   3.463  71.295  1.00  0.00     2.538 A  
BRANCH   7  10
HETATM   10  C   UNL     1      -7.492   4.443  71.781  1.00  0.00    -0.070 C  
BRANCH  10  11
HETATM   11  C   UNL     1      -7.616   5.950  71.807  1.00  0.00    -0.096 A  
HETATM   12  C   UNL     1      -8.325   6.588  70.780  1.00  0.00    -0.130 A  
HETATM   13  C   UNL     1      -8.481   7.997  70.718  1.00  0.00    -0.124 A  
HETATM   14 CL   UNL     1      -6.051   6.134  74.044  1.00  0.00    -0.063 Cl 
HETATM   15  C   UNL     1      -8.109   8.748  71.832  1.00  0.00    -0.090 A  
HETATM   16  C   UNL     1      -7.412   8.129  72.875  1.00  0.00    -0.165 A  
HETATM   17  C   UNL     1      -7.109   6.759  72.828  1.00  0.00    -0.075 A  
BRANCH  13  18
HETATM   18  C   UNL     1      -8.740   8.624  69.360  1.00  0.00    -0.139 C  
HETATM   19  C   UNL     1      -9.201   7.316  67.540  1.00  0.00    -0.130 C  
HETATM   20  C   UNL     1      -8.392   8.532  67.144  1.00  0.00    -0.111 C  
HETATM   21  O   UNL     1      -9.736   7.694  68.808  1.00  0.00    -0.149 OA 
HETATM   22  H   UNL     1     -11.403  10.609  69.363  1.00  0.00     0.000 HD 
HETATM   23  O   UNL     1      -7.636   8.677  68.382  1.00  0.00    -0.093 OA 
HETATM   24  C   UNL     1      -9.141   9.884  66.902  1.00  0.00    -0.142 C  
HETATM   25  O   UNL     1     -10.940   9.780  69.344  1.00  0.00    -0.231 OA 
HETATM   26  C   UNL     1      -9.111  10.798  68.153  1.00  0.00    -0.151 C  
HETATM   27  O   UNL     1     -10.462   9.642  66.418  1.00  0.00    -0.202 OA 
HETATM   28  H   UNL     1      -7.800  11.953  69.090  1.00  0.00     0.000 HD 
HETATM   29  H   UNL     1     -10.917  10.462  66.272  1.00  0.00     0.000 HD 
HETATM   30  O   UNL     1      -7.819  11.392  68.324  1.00  0.00    -0.117 OA 
HETATM   31  C   UNL     1      -9.504   9.992  69.390  1.00  0.00    -0.223 C  
BRANCH  20  32
HETATM   32  C   UNL     1      -7.674   8.176  65.822  1.00  0.00    -0.092 C  
HETATM   33  O   UNL     1      -8.556   7.710  64.797  1.00  0.00    -0.369 OA 
HETATM   34  H   UNL     1      -8.115   7.491  63.985  1.00  0.00     0.000 HD 
ENDBRANCH  20  32
ENDBRANCH  13  18
ENDBRANCH  10  11
ENDBRANCH   7  10
ENDBRANCH   3   4
ENDBRANCH   2   3
TORSDOF 6
ENDMDL
MODEL      270
REMARK 921   NORMALIZED FREE ENERGY PREDICTED BY IDOCK:   11.65 KCAL/MOL
REMARK 922        TOTAL FREE ENERGY PREDICTED BY IDOCK:   14.59 KCAL/MOL
REMARK 923 INTER-LIGAND FREE ENERGY PREDICTED BY IDOCK:   15.45 KCAL/MOL
REMARK 924 INTRA-LIGAND FREE ENERGY PREDICTED BY IDOCK:   -0.86 KCAL/MOL
REMARK 927      BINDING AFFINITY PREDICTED BY RF-SCORE:    0.00 PKD
ROOT
HETATM    1  C   UNL     1      -5.276   6.380  71.093  1.00  0.00    -0.018 C  
HETATM    2  C   UNL     1      -5.719   7.591  70.287  1.00  0.00    -0.023 C  
ENDROOT
BRANCH   2   3
HETATM    3  O   UNL     1      -6.940   7.287  69.600  1.00  0.00    -0.052 OA 
BRANCH   3   4
HETATM    4  C   UNL     1      -7.030   7.789  68.327  1.00  0.00    -0.079 A  
HETATM    5  C   UNL     1      -7.370   9.138  68.222  1.00  0.00    -0.079 A  
HETATM    6  C   UNL     1      -7.653   9.707  66.973  1.00  0.00    -0.095 A  
HETATM    7  C   UNL     1      -7.602   8.928  65.804  1.00  0.00    -0.090 A  
HETATM    8  C   UNL     1      -7.130   7.611  65.911  1.00  0.00    -0.065 A  
HETATM    9  C   UNL     1      -6.841   7.047  67.162  1.00  0.00    -0.065 A  
BRANCH   7  10
HETATM   10  C   UNL     1      -8.239   9.423  64.516  1.00  0.00    -0.147 C  
BRANCH  10  11
HETATM   11  C   UNL     1      -9.165  10.618  64.545  1.00  0.00    -0.264 A  
HETATM   12  C   UNL     1      -8.648  11.864  64.925  1.00  0.00     0.977 A  
HETATM   13  C   UNL     1      -9.446  13.036  64.994  1.00  0.00     0.372 A  
HETATM   14 CL   UNL     1     -11.325   9.080  63.870  1.00  0.00    10.331 Cl 
HETATM   15  C   UNL     1     -10.730  12.988  64.451  1.00  0.00    -0.414 A  
HETATM   16  C   UNL     1     -11.261  11.756  64.054  1.00  0.00    -0.461 A  
HETATM   17  C   UNL     1     -10.510  10.576  64.167  1.00  0.00     0.057 A  
BRANCH  13  18
HETATM   18  C   UNL     1      -8.989  14.154  65.912  1.00  0.00     0.492 C  
HETATM   19  C   UNL     1     -10.376  14.967  67.541  1.00  0.00    -0.239 C  
HETATM   20  C   UNL     1      -9.519  16.069  66.959  1.00  0.00    -0.218 C  
HETATM   21  O   UNL     1      -9.670  13.786  67.162  1.00  0.00    -0.232 OA 
HETATM   22  H   UNL     1      -6.351  13.302  67.741  1.00  0.00     0.000 HD 
HETATM   23  O   UNL     1      -9.405  15.537  65.606  1.00  0.00    -0.302 OA 
HETATM   24  C   UNL     1      -8.064  16.252  67.503  1.00  0.00    -0.146 C  
HETATM   25  O   UNL     1      -7.271  13.323  67.503  1.00  0.00    -0.151 OA 
HETATM   26  C   UNL     1      -7.014  15.545  66.609  1.00  0.00     0.752 C  
HETATM   27  O   UNL     1      -7.991  15.856  68.872  1.00  0.00    -0.174 OA 
HETATM   28  H   UNL     1      -6.151  15.843  64.850  1.00  0.00     0.000 HD 
HETATM   29  H   UNL     1      -7.107  15.967  69.202  1.00  0.00     0.000 HD 
HETATM   30  O   UNL     1      -6.795  16.277  65.397  1.00  0.00     2.364 OA 
HETATM   31  C   UNL     1      -7.472  14.120  66.305  1.00  0.00     2.665 C  
BRANCH  20  32
HETATM   32  C   UNL     1     -10.265  17.397  67.220  1.00  0.00    -0.324 C  
HETATM   33  O   UNL     1     -11.544  17.471  66.584  1.00  0.00     1.081 OA 
HETATM   34  H   UNL     1     -12.002  18.288  66.745  1.00  0.00     0.000 HD 
ENDBRANCH  20  32
ENDBRANCH  13  18
ENDBRANCH  10  11
ENDBRANCH   7  10
ENDBRANCH   3   4
ENDBRANCH   2   3
TORSDOF 6
ENDMDL
MODEL      271
REMARK 921   NORMALIZED FREE ENERGY PREDICTED BY IDOCK:   14.56 KCAL/MOL
REMARK 922        TOTAL FREE ENERGY PREDICTED BY IDOCK:   18.54 KCAL/MOL
REMARK 923 INTER-LIGAND FREE ENERGY PREDICTED BY IDOCK:   18.81 KCAL/MOL
REMARK 924 INTRA-LIGAND FREE ENERGY PREDICTED BY IDOCK:   -0.28 KCAL/MOL
REMARK 927      BINDING AFFINITY PREDICTED BY RF-SCORE:    0.00 PKD
ROOT
HETATM    1  C   UNL     1     -13.713   6.450  69.159  1.00  0.00    11.193 C  
HETATM    2  C   UNL     1     -12.270   6.083  69.468  1.00  0.00     2.280 C  
ENDROOT
BRANCH   2   3
HETATM    3  O   UNL     1     -11.411   7.168  69.098  1.00  0.00    -0.028 OA 
BRANCH   3   4
HETATM    4  C   UNL     1     -11.430   8.242  69.950  1.00  0.00     0.181 A  
HETATM    5  C   UNL     1     -12.685   8.778  70.235  1.00  0.00     0.934 A  
HETATM    6  C   UNL     1     -12.805   9.974  70.956  1.00  0.00    -0.455 A  
HETATM    7  C   UNL     1     -11.661  10.656  71.403  1.00  0.00     0.177 A  
HETATM    8  C   UNL     1     -10.414  10.037  71.226  1.00  0.00     0.428 A  
HETATM    9  C   UNL     1     -10.300   8.836  70.510  1.00  0.00    -0.241 A  
BRANCH   7  10
HETATM   10  C   UNL     1     -11.751  12.102  71.863  1.00  0.00     2.820 C  
BRANCH  10  11
HETATM   11  C   UNL     1     -11.738  13.217  70.842  1.00  0.00     0.349 A  
HETATM   12  C   UNL     1     -10.729  13.230  69.869  1.00  0.00     0.694 A  
HETATM   13  C   UNL     1     -10.631  14.244  68.880  1.00  0.00    -0.252 A  
HETATM   14 CL   UNL     1     -13.883  14.445  72.015  1.00  0.00    -0.517 Cl 
HETATM   15  C   UNL     1     -11.701  15.127  68.738  1.00  0.00    -0.366 A  
HETATM   16  C   UNL     1     -12.725  15.123  69.691  1.00  0.00     0.017 A  
HETATM   17  C   UNL     1     -12.705  14.224  70.769  1.00  0.00    -0.350 A  
BRANCH  13  18
HETATM   18  C   UNL     1      -9.270  14.503  68.261  1.00  0.00    -0.201 C  
HETATM   19  C   UNL     1      -8.014  16.300  68.916  1.00  0.00    -0.230 C  
HETATM   20  C   UNL     1      -7.831  16.019  67.441  1.00  0.00    -0.161 C  
HETATM   21  O   UNL     1      -8.544  15.069  69.407  1.00  0.00    -0.192 OA 
HETATM   22  H   UNL     1      -7.123  12.032  68.823  1.00  0.00     0.000 HD 
HETATM   23  O   UNL     1      -9.165  15.495  67.173  1.00  0.00    -0.203 OA 
HETATM   24  C   UNL     1      -6.810  14.915  67.010  1.00  0.00     0.503 C  
HETATM   25  O   UNL     1      -7.626  12.810  69.037  1.00  0.00    -0.003 OA 
HETATM   26  C   UNL     1      -7.500  13.552  66.749  1.00  0.00     0.817 C  
HETATM   27  O   UNL     1      -5.741  14.830  67.952  1.00  0.00    -0.139 OA 
HETATM   28  H   UNL     1      -8.635  12.731  65.347  1.00  0.00     0.000 HD 
HETATM   29  H   UNL     1      -5.122  14.159  67.690  1.00  0.00     0.000 HD 
HETATM   30  O   UNL     1      -8.212  13.566  65.506  1.00  0.00     2.373 OA 
HETATM   31  C   UNL     1      -8.441  13.222  67.907  1.00  0.00    -0.177 C  
BRANCH  20  32
HETATM   32  C   UNL     1      -7.361  17.341  66.792  1.00  0.00    -0.213 C  
HETATM   33  O   UNL     1      -7.566  18.490  67.618  1.00  0.00    -0.226 OA 
HETATM   34  H   UNL     1      -7.278  19.303  67.218  1.00  0.00     0.000 HD 
ENDBRANCH  20  32
ENDBRANCH  13  18
ENDBRANCH  10  11
ENDBRANCH   7  10
ENDBRANCH   3   4
ENDBRANCH   2   3
TORSDOF 6
ENDMDL
MODEL      272
REMARK 921   NORMALIZED FREE ENERGY PREDICTED BY IDOCK:   16.69 KCAL/MOL
REMARK 922        TOTAL FREE ENERGY PREDICTED BY IDOCK:   21.40 KCAL/MOL
REMARK 923 INTER-LIGAND FREE ENERGY PREDICTED BY IDOCK:   21.95 KCAL/MOL
REMARK 924 INTRA-LIGAND FREE ENERGY PREDICTED BY IDOCK:   -0.55 KCAL/MOL
REMARK 927      BINDING AFFINITY PREDICTED BY RF-SCORE:    0.00 PKD
ROOT
HETATM    1  C   UNL     1      -5.155   8.137  63.011  1.00  0.00    -0.050 C  
HETATM    2  C   UNL     1      -6.361   7.492  63.674  1.00  0.00    -0.053 C  
ENDROOT
BRANCH   2   3
HETATM    3  O   UNL     1      -7.563   8.046  63.123  1.00  0.00    -0.111 OA 
BRANCH   3   4
HETATM    4  C   UNL     1      -7.817   9.347  63.475  1.00  0.00    -0.130 A  
HETATM    5  C   UNL     1      -8.391   9.543  64.730  1.00  0.00    -0.155 A  
HETATM    6  C   UNL     1      -8.844  10.811  65.119  1.00  0.00    -0.199 A  
HETATM    7  C   UNL     1      -8.733  11.908  64.247  1.00  0.00     1.022 A  
HETATM    8  C   UNL     1      -8.035  11.723  63.044  1.00  0.00     1.436 A  
HETATM    9  C   UNL     1      -7.575  10.455  62.663  1.00  0.00    -0.150 A  
BRANCH   7  10
HETATM   10  C   UNL     1      -9.524  13.181  64.499  1.00  0.00     0.706 C  
BRANCH  10  11
HETATM   11  C   UNL     1     -10.320  13.331  65.776  1.00  0.00    -0.290 A  
HETATM   12  C   UNL     1      -9.780  12.836  66.970  1.00  0.00    -0.224 A  
HETATM   13  C   UNL     1     -10.461  12.922  68.212  1.00  0.00    -0.250 A  
HETATM   14 CL   UNL     1     -12.424  14.464  64.442  1.00  0.00    -0.411 Cl 
HETATM   15  C   UNL     1     -11.601  13.722  68.281  1.00  0.00    -0.373 A  
HETATM   16  C   UNL     1     -12.150  14.237  67.102  1.00  0.00    -0.412 A  
HETATM   17  C   UNL     1     -11.553  13.984  65.857  1.00  0.00    -0.347 A  
BRANCH  13  18
HETATM   18  C   UNL     1     -10.105  11.914  69.290  1.00  0.00     0.303 C  
HETATM   19  C   UNL     1      -8.630  12.457  70.953  1.00  0.00     9.589 C  
HETATM   20  C   UNL     1      -8.492  11.003  70.559  1.00  0.00     2.997 C  
HETATM   21  O   UNL     1      -9.922  12.798  70.450  1.00  0.00     3.196 OA 
HETATM   22  H   UNL     1     -12.737  10.996  71.096  1.00  0.00     0.000 HD 
HETATM   23  O   UNL     1      -8.852  11.145  69.153  1.00  0.00    -0.073 OA 
HETATM   24  C   UNL     1      -9.479   9.961  71.182  1.00  0.00     0.899 C  
HETATM   25  O   UNL     1     -12.027  11.568  70.825  1.00  0.00    -0.344 OA 
HETATM   26  C   UNL     1     -10.677   9.660  70.246  1.00  0.00    -0.281 C  
HETATM   27  O   UNL     1      -9.879  10.374  72.488  1.00  0.00     4.890 OA 
HETATM   28  H   UNL     1     -11.011   8.641  68.579  1.00  0.00     0.000 HD 
HETATM   29  H   UNL     1     -10.478   9.741  72.866  1.00  0.00     0.000 HD 
HETATM   30  O   UNL     1     -10.277   8.826  69.153  1.00  0.00    -0.197 OA 
HETATM   31  C   UNL     1     -11.274  10.971  69.736  1.00  0.00    -0.268 C  
BRANCH  20  32
HETATM   32  C   UNL     1      -7.066  10.566  70.964  1.00  0.00     1.288 C  
HETATM   33  O   UNL     1      -6.233  10.225  69.852  1.00  0.00    -0.050 OA 
HETATM   34  H   UNL     1      -5.356   9.956  70.102  1.00  0.00     0.000 HD 
ENDBRANCH  20  32
ENDBRANCH  13  18
ENDBRANCH  10  11
ENDBRANCH   7  10
ENDBRANCH   3   4
ENDBRANCH   2   3
TORSDOF 6
ENDMDL
MODEL      273
REMARK 921   NORMALIZED FREE ENERGY PREDICTED BY IDOCK:   18.22 KCAL/MOL
REMARK 922        TOTAL FREE ENERGY PREDICTED BY IDOCK:   23.47 KCAL/MOL
REMARK 923 INTER-LIGAND FREE ENERGY PREDICTED BY IDOCK:   23.43 KCAL/MOL
REMARK 924 INTRA-LIGAND FREE ENERGY PREDICTED BY IDOCK:    0.05 KCAL/MOL
REMARK 927      BINDING AFFINITY PREDICTED BY RF-SCORE:    0.00 PKD
ROOT
HETATM    1  C   UNL     1      -6.645  12.914  67.984  1.00  0.00    -0.107 C  
HETATM    2  C   UNL     1      -6.349  13.416  69.388  1.00  0.00    -0.111 C  
ENDROOT
BRANCH   2   3
HETATM    3  O   UNL     1      -7.473  13.154  70.237  1.00  0.00     1.363 OA 
BRANCH   3   4
HETATM    4  C   UNL     1      -7.564  11.865  70.698  1.00  0.00     4.061 A  
HETATM    5  C   UNL     1      -7.865  11.717  72.052  1.00  0.00    12.572 A  
HETATM    6  C   UNL     1      -7.817  10.456  72.660  1.00  0.00     7.046 A  
HETATM    7  C   UNL     1      -7.460   9.317  71.917  1.00  0.00     0.429 A  
HETATM    8  C   UNL     1      -7.291   9.462  70.532  1.00  0.00    -0.138 A  
HETATM    9  C   UNL     1      -7.348  10.725  69.926  1.00  0.00    -0.006 A  
BRANCH   7  10
HETATM   10  C   UNL     1      -7.061   8.029  72.618  1.00  0.00    -0.107 C  
BRANCH  10  11
HETATM   11  C   UNL     1      -6.678   6.816  71.801  1.00  0.00    -0.058 A  
HETATM   12  C   UNL     1      -7.156   6.708  70.488  1.00  0.00    -0.068 A  
HETATM   13  C   UNL     1      -6.858   5.599  69.653  1.00  0.00    -0.061 A  
HETATM   14 CL   UNL     1      -5.326   5.707  73.906  1.00  0.00    -0.023 Cl 
HETATM   15  C   UNL     1      -5.878   4.703  70.078  1.00  0.00    -0.017 A  
HETATM   16  C   UNL     1      -5.377   4.800  71.381  1.00  0.00    -0.004 A  
HETATM   17  C   UNL     1      -5.826   5.804  72.253  1.00  0.00    -0.031 A  
BRANCH  13  18
HETATM   18  C   UNL     1      -7.819   5.282  68.522  1.00  0.00    -0.083 C  
HETATM   19  C   UNL     1      -7.050   4.971  66.390  1.00  0.00    -0.072 C  
HETATM   20  C   UNL     1      -8.402   5.649  66.385  1.00  0.00    -0.112 C  
HETATM   21  O   UNL     1      -6.993   4.392  67.694  1.00  0.00    -0.057 OA 
HETATM   22  H   UNL     1      -9.446   2.426  68.998  1.00  0.00     0.000 HD 
HETATM   23  O   UNL     1      -8.260   6.379  67.639  1.00  0.00    -0.116 OA 
HETATM   24  C   UNL     1      -9.685   4.764  66.513  1.00  0.00    -0.193 C  
HETATM   25  O   UNL     1      -8.707   2.974  68.760  1.00  0.00    -0.076 OA 
HETATM   26  C   UNL     1     -10.201   4.691  67.973  1.00  0.00     0.062 C  
HETATM   27  O   UNL     1      -9.463   3.478  65.934  1.00  0.00    -0.190 OA 
HETATM   28  H   UNL     1     -11.161   5.869  69.246  1.00  0.00     0.000 HD 
HETATM   29  H   UNL     1     -10.242   2.941  66.012  1.00  0.00     0.000 HD 
HETATM   30  O   UNL     1     -10.845   5.913  68.351  1.00  0.00    -0.265 OA 
HETATM   31  C   UNL     1      -9.039   4.379  68.915  1.00  0.00    -0.124 C  
BRANCH  20  32
HETATM   32  C   UNL     1      -8.514   6.408  65.043  1.00  0.00    -0.028 C  
HETATM   33  O   UNL     1      -7.258   6.594  64.383  1.00  0.00    -0.060 OA 
HETATM   34  H   UNL     1      -7.327   7.060  63.558  1.00  0.00     0.000 HD 
ENDBRANCH  20  32
ENDBRANCH  13  18
ENDBRANCH  10  11
ENDBRANCH   7  10
ENDBRANCH   3   4
ENDBRANCH   2   3
TORSDOF 6
ENDMDL
MODEL      274
REMARK 921   NORMALIZED FREE ENERGY PREDICTED BY IDOCK:   18.77 KCAL/MOL
REMARK 922        TOTAL FREE ENERGY PREDICTED BY IDOCK:   24.22 KCAL/MOL
REMARK 923 INTER-LIGAND FREE ENERGY PREDICTED BY IDOCK:   25.72 KCAL/MOL
REMARK 924 INTRA-LIGAND FREE ENERGY PREDICTED BY IDOCK:   -1.50 KCAL/MOL
REMARK 927      BINDING AFFINITY PREDICTED BY RF-SCORE:    0.00 PKD
ROOT
HETATM    1  C   UNL     1      -9.348   8.963  65.352  1.00  0.00    -0.158 C  
HETATM    2  C   UNL     1      -8.883  10.272  65.968  1.00  0.00    -0.149 C  
ENDROOT
BRANCH   2   3
HETATM    3  O   UNL     1      -8.635  10.081  67.367  1.00  0.00    -0.125 OA 
BRANCH   3   4
HETATM    4  C   UNL     1      -9.222  11.006  68.192  1.00  0.00    -0.165 A  
HETATM    5  C   UNL     1     -10.616  10.997  68.231  1.00  0.00    -0.220 A  
HETATM    6  C   UNL     1     -11.318  12.003  68.908  1.00  0.00    -0.333 A  
HETATM    7  C   UNL     1     -10.629  13.042  69.558  1.00  0.00     0.371 A  
HETATM    8  C   UNL     1      -9.230  12.963  69.624  1.00  0.00     1.966 A  
HETATM    9  C   UNL     1      -8.532  11.949  68.951  1.00  0.00     0.133 A  
BRANCH   7  10
HETATM   10  C   UNL     1     -11.357  14.307  69.982  1.00  0.00    -0.224 C  
BRANCH  10  11
HETATM   11  C   UNL     1     -10.641  15.638  69.931  1.00  0.00    -0.328 A  
HETATM   12  C   UNL     1     -10.610  16.343  68.719  1.00  0.00    -0.310 A  
HETATM   13  C   UNL     1      -9.952  17.592  68.576  1.00  0.00    -0.344 A  
HETATM   14 CL   UNL     1      -9.832  15.410  72.534  1.00  0.00     4.027 Cl 
HETATM   15  C   UNL     1      -9.516  18.240  69.731  1.00  0.00     0.866 A  
HETATM   16  C   UNL     1      -9.549  17.560  70.954  1.00  0.00     4.485 A  
HETATM   17  C   UNL     1     -10.042  16.248  71.036  1.00  0.00     1.852 A  
BRANCH  13  18
HETATM   18  C   UNL     1      -9.486  17.995  67.189  1.00  0.00    -0.264 C  
HETATM   19  C   UNL     1      -7.320  17.650  66.539  1.00  0.00    -0.261 C  
HETATM   20  C   UNL     1      -7.869  18.926  65.940  1.00  0.00    -0.086 C  
HETATM   21  O   UNL     1      -8.503  16.940  66.906  1.00  0.00    -0.189 OA 
HETATM   22  H   UNL     1     -11.102  16.373  64.783  1.00  0.00     0.000 HD 
HETATM   23  O   UNL     1      -8.776  19.278  67.026  1.00  0.00    -0.278 OA 
HETATM   24  C   UNL     1      -8.729  18.832  64.637  1.00  0.00     5.177 C  
HETATM   25  O   UNL     1     -10.459  16.483  65.474  1.00  0.00    -0.477 OA 
HETATM   26  C   UNL     1     -10.249  18.823  64.940  1.00  0.00     2.421 C  
HETATM   27  O   UNL     1      -8.311  17.722  63.843  1.00  0.00     9.397 OA 
HETATM   28  H   UNL     1     -11.638  20.123  65.493  1.00  0.00     0.000 HD 
HETATM   29  H   UNL     1      -8.833  17.665  63.052  1.00  0.00     0.000 HD 
HETATM   30  O   UNL     1     -10.707  20.129  65.307  1.00  0.00    -0.283 OA 
HETATM   31  C   UNL     1     -10.547  17.814  66.049  1.00  0.00    -0.229 C  
BRANCH  20  32
HETATM   32  C   UNL     1      -6.653  19.821  65.610  1.00  0.00    -0.255 C  
HETATM   33  O   UNL     1      -6.282  19.797  64.228  1.00  0.00    -0.294 OA 
HETATM   34  H   UNL     1      -5.534  20.347  64.026  1.00  0.00     0.000 HD 
ENDBRANCH  20  32
ENDBRANCH  13  18
ENDBRANCH  10  11
ENDBRANCH   7  10
ENDBRANCH   3   4
ENDBRANCH   2   3
TORSDOF 6
ENDMDL
MODEL      275
REMARK 921   NORMALIZED FREE ENERGY PREDICTED BY IDOCK:   24.80 KCAL/MOL
REMARK 922        TOTAL FREE ENERGY PREDICTED BY IDOCK:   32.36 KCAL/MOL
REMARK 923 INTER-LIGAND FREE ENERGY PREDICTED BY IDOCK:   33.61 KCAL/MOL
REMARK 924 INTRA-LIGAND FREE ENERGY PREDICTED BY IDOCK:   -1.25 KCAL/MOL
REMARK 927      BINDING AFFINITY PREDICTED BY RF-SCORE:    0.00 PKD
ROOT
HETATM    1  C   UNL     1     -10.412   9.743  73.387  1.00  0.00     7.290 C  
HETATM    2  C   UNL     1     -10.211   9.269  71.957  1.00  0.00     0.184 C  
ENDROOT
BRANCH   2   3
HETATM    3  O   UNL     1     -10.493   7.866  71.874  1.00  0.00    -0.211 OA 
BRANCH   3   4
HETATM    4  C   UNL     1     -11.091   7.461  70.708  1.00  0.00    -0.265 A  
HETATM    5  C   UNL     1     -12.124   6.533  70.838  1.00  0.00    -0.293 A  
HETATM    6  C   UNL     1     -12.688   5.929  69.706  1.00  0.00     4.638 A  
HETATM    7  C   UNL     1     -12.220   6.246  68.419  1.00  0.00     3.438 A  
HETATM    8  C   UNL     1     -11.275   7.276  68.298  1.00  0.00     0.192 A  
HETATM    9  C   UNL     1     -10.719   7.884  69.433  1.00  0.00    -0.174 A  
BRANCH   7  10
HETATM   10  C   UNL     1     -12.560   5.360  67.231  1.00  0.00     9.645 C  
BRANCH  10  11
HETATM   11  C   UNL     1     -11.461   4.885  66.309  1.00  0.00     1.586 A  
HETATM   12  C   UNL     1     -10.292   4.351  66.869  1.00  0.00     0.059 A  
HETATM   13  C   UNL     1      -9.205   3.892  66.080  1.00  0.00    -0.161 A  
HETATM   14 CL   UNL     1     -12.839   5.702  64.091  1.00  0.00     6.887 Cl 
HETATM   15  C   UNL     1      -9.399   3.764  64.706  1.00  0.00    -0.155 A  
HETATM   16  C   UNL     1     -10.564   4.280  64.127  1.00  0.00    -0.013 A  
HETATM   17  C   UNL     1     -11.550   4.895  64.914  1.00  0.00     1.463 A  
BRANCH  13  18
HETATM   18  C   UNL     1      -7.826   3.869  66.716  1.00  0.00    -0.089 C  
HETATM   19  C   UNL     1      -7.357   5.177  68.533  1.00  0.00    -0.070 C  
HETATM   20  C   UNL     1      -6.151   5.053  67.628  1.00  0.00    -0.027 C  
HETATM   21  O   UNL     1      -8.167   4.073  68.131  1.00  0.00    -0.090 OA 
HETATM   22  H   UNL     1      -7.025   0.874  67.908  1.00  0.00     0.000 HD 
HETATM   23  O   UNL     1      -6.866   4.932  66.363  1.00  0.00    -0.059 OA 
HETATM   24  C   UNL     1      -5.241   3.788  67.762  1.00  0.00    -0.008 C  
HETATM   25  O   UNL     1      -7.458   1.721  67.908  1.00  0.00    -0.052 OA 
HETATM   26  C   UNL     1      -5.602   2.696  66.723  1.00  0.00    -0.021 C  
HETATM   27  O   UNL     1      -5.253   3.306  69.106  1.00  0.00    -0.010 OA 
HETATM   28  H   UNL     1      -5.357   2.387  64.780  1.00  0.00     0.000 HD 
HETATM   29  H   UNL     1      -4.700   2.538  69.187  1.00  0.00     0.000 HD 
HETATM   30  O   UNL     1      -5.136   3.056  65.417  1.00  0.00    -0.007 OA 
HETATM   31  C   UNL     1      -7.113   2.473  66.714  1.00  0.00    -0.049 C  
BRANCH  20  32
HETATM   32  C   UNL     1      -5.255   6.281  67.910  1.00  0.00    -0.004 C  
HETATM   33  O   UNL     1      -5.562   6.944  69.140  1.00  0.00    -0.017 OA 
HETATM   34  H   UNL     1      -5.012   7.698  69.313  1.00  0.00     0.000 HD 
ENDBRANCH  20  32
ENDBRANCH  13  18
ENDBRANCH  10  11
ENDBRANCH   7  10
ENDBRANCH   3   4
ENDBRANCH   2   3
TORSDOF 6
ENDMDL
MODEL      276
REMARK 921   NORMALIZED FREE ENERGY PREDICTED BY IDOCK:   34.54 KCAL/MOL
REMARK 922        TOTAL FREE ENERGY PREDICTED BY IDOCK:   45.52 KCAL/MOL
REMARK 923 INTER-LIGAND FREE ENERGY PREDICTED BY IDOCK:   45.57 KCAL/MOL
REMARK 924 INTRA-LIGAND FREE ENERGY PREDICTED BY IDOCK:   -0.05 KCAL/MOL
REMARK 927      BINDING AFFINITY PREDICTED BY RF-SCORE:    0.00 PKD
ROOT
HETATM    1  C   UNL     1      -6.886  14.078  73.517  1.00  0.00     2.989 C  
HETATM    2  C   UNL     1      -7.488  15.225  72.722  1.00  0.00     6.665 C  
ENDROOT
BRANCH   2   3
HETATM    3  O   UNL     1      -8.892  14.998  72.543  1.00  0.00     5.365 OA 
BRANCH   3   4
HETATM    4  C   UNL     1      -9.214  14.093  71.563  1.00  0.00     6.939 A  
HETATM    5  C   UNL     1      -8.634  12.831  71.677  1.00  0.00    16.520 A  
HETATM    6  C   UNL     1      -8.761  11.890  70.647  1.00  0.00     6.609 A  
HETATM    7  C   UNL     1      -9.474  12.205  69.477  1.00  0.00     1.290 A  
HETATM    8  C   UNL     1     -10.162  13.427  69.434  1.00  0.00     0.452 A  
HETATM    9  C   UNL     1     -10.039  14.362  70.471  1.00  0.00     1.354 A  
BRANCH   7  10
HETATM   10  C   UNL     1      -9.325  11.353  68.226  1.00  0.00    -0.187 C  
BRANCH  10  11
HETATM   11  C   UNL     1      -9.420   9.847  68.327  1.00  0.00    -0.147 A  
HETATM   12  C   UNL     1      -8.476   9.064  67.649  1.00  0.00    -0.117 A  
HETATM   13  C   UNL     1      -8.496   7.645  67.677  1.00  0.00    -0.117 A  
HETATM   14 CL   UNL     1     -11.704   9.997  69.825  1.00  0.00    -0.193 Cl 
HETATM   15  C   UNL     1      -9.346   7.019  68.588  1.00  0.00    -0.136 A  
HETATM   16  C   UNL     1     -10.288   7.783  69.285  1.00  0.00    -0.220 A  
HETATM   17  C   UNL     1     -10.368   9.173  69.102  1.00  0.00    -0.212 A  
BRANCH  13  18
HETATM   18  C   UNL     1      -7.843   6.902  66.526  1.00  0.00    -0.106 C  
HETATM   19  C   UNL     1      -6.767   8.044  64.861  1.00  0.00    -0.051 C  
HETATM   20  C   UNL     1      -7.459   6.815  64.315  1.00  0.00    -0.100 C  
HETATM   21  O   UNL     1      -6.683   7.764  66.258  1.00  0.00    -0.052 OA 
HETATM   22  H   UNL     1      -5.412   4.876  67.533  1.00  0.00     0.000 HD 
HETATM   23  O   UNL     1      -8.577   6.787  65.250  1.00  0.00    -0.113 OA 
HETATM   24  C   UNL     1      -6.732   5.434  64.429  1.00  0.00    -0.046 C  
HETATM   25  O   UNL     1      -5.808   5.709  67.306  1.00  0.00    -0.016 OA 
HETATM   26  C   UNL     1      -7.202   4.628  65.666  1.00  0.00    -0.072 C  
HETATM   27  O   UNL     1      -5.317   5.611  64.380  1.00  0.00    -0.012 OA 
HETATM   28  H   UNL     1      -8.793   3.580  66.212  1.00  0.00     0.000 HD 
HETATM   29  H   UNL     1      -4.876   4.772  64.449  1.00  0.00     0.000 HD 
HETATM   30  O   UNL     1      -8.506   4.074  65.453  1.00  0.00    -0.108 OA 
HETATM   31  C   UNL     1      -7.191   5.527  66.901  1.00  0.00    -0.078 C  
BRANCH  20  32
HETATM   32  C   UNL     1      -7.700   7.072  62.810  1.00  0.00    -0.107 C  
HETATM   33  O   UNL     1      -8.680   8.080  62.550  1.00  0.00    -0.419 OA 
HETATM   34  H   UNL     1      -8.828   8.237  61.625  1.00  0.00     0.000 HD 
ENDBRANCH  20  32
ENDBRANCH  13  18
ENDBRANCH  10  11
ENDBRANCH   7  10
ENDBRANCH   3   4
ENDBRANCH   2   3
TORSDOF 6
ENDMDL
MODEL      277
REMARK 921   NORMALIZED FREE ENERGY PREDICTED BY IDOCK:   41.98 KCAL/MOL
REMARK 922        TOTAL FREE ENERGY PREDICTED BY IDOCK:   55.57 KCAL/MOL
REMARK 923 INTER-LIGAND FREE ENERGY PREDICTED BY IDOCK:   55.72 KCAL/MOL
REMARK 924 INTRA-LIGAND FREE ENERGY PREDICTED BY IDOCK:   -0.16 KCAL/MOL
REMARK 927      BINDING AFFINITY PREDICTED BY RF-SCORE:    0.00 PKD
ROOT
HETATM    1  C   UNL     1      -7.048  13.582  73.410  1.00  0.00     5.372 C  
HETATM    2  C   UNL     1      -7.695  14.712  72.625  1.00  0.00     6.017 C  
ENDROOT
BRANCH   2   3
HETATM    3  O   UNL     1      -9.108  14.489  72.543  1.00  0.00     5.334 OA 
BRANCH   3   4
HETATM    4  C   UNL     1      -9.492  13.502  71.671  1.00  0.00    11.397 A  
HETATM    5  C   UNL     1      -8.936  12.242  71.887  1.00  0.00    19.633 A  
HETATM    6  C   UNL     1      -9.127  11.209  70.960  1.00  0.00     6.140 A  
HETATM    7  C   UNL     1      -9.881  11.425  69.794  1.00  0.00     0.904 A  
HETATM    8  C   UNL     1     -10.543  12.655  69.657  1.00  0.00     0.572 A  
HETATM    9  C   UNL     1     -10.355  13.684  70.591  1.00  0.00     2.942 A  
BRANCH   7  10
HETATM   10  C   UNL     1      -9.803  10.451  68.629  1.00  0.00    -0.183 C  
BRANCH  10  11
HETATM   11  C   UNL     1      -9.937   8.967  68.881  1.00  0.00    -0.199 A  
HETATM   12  C   UNL     1      -9.051   8.090  68.240  1.00  0.00    -0.135 A  
HETATM   13  C   UNL     1      -9.112   6.682  68.408  1.00  0.00    -0.124 A  
HETATM   14 CL   UNL     1     -12.141   9.338  70.460  1.00  0.00    -0.136 Cl 
HETATM   15  C   UNL     1      -9.934   6.176  69.414  1.00  0.00    -0.205 A  
HETATM   16  C   UNL     1     -10.818   7.035  70.075  1.00  0.00    -0.290 A  
HETATM   17  C   UNL     1     -10.866   8.403  69.760  1.00  0.00    -0.183 A  
BRANCH  13  18
HETATM   18  C   UNL     1      -8.538   5.809  67.306  1.00  0.00    -0.109 C  
HETATM   19  C   UNL     1      -9.879   5.010  65.634  1.00  0.00    -0.085 C  
HETATM   20  C   UNL     1      -8.809   4.005  65.998  1.00  0.00    -0.120 C  
HETATM   21  O   UNL     1      -9.358   6.230  66.161  1.00  0.00    -0.155 OA 
HETATM   22  H   UNL     1      -6.219   7.377  65.519  1.00  0.00     0.000 HD 
HETATM   23  O   UNL     1      -8.691   4.345  67.411  1.00  0.00    -0.103 OA 
HETATM   24  C   UNL     1      -7.386   4.166  65.368  1.00  0.00    -0.072 C  
HETATM   25  O   UNL     1      -7.102   7.157  65.791  1.00  0.00    -0.066 OA 
HETATM   26  C   UNL     1      -6.410   4.910  66.314  1.00  0.00    -0.036 C  
HETATM   27  O   UNL     1      -7.478   4.765  64.076  1.00  0.00    -0.057 OA 
HETATM   28  H   UNL     1      -5.387   4.517  67.966  1.00  0.00     0.000 HD 
HETATM   29  H   UNL     1      -6.614   4.862  63.694  1.00  0.00     0.000 HD 
HETATM   30  O   UNL     1      -5.985   4.060  67.386  1.00  0.00    -0.022 OA 
HETATM   31  C   UNL     1      -7.081   6.171  66.858  1.00  0.00    -0.073 C  
BRANCH  20  32
HETATM   32  C   UNL     1      -9.336   2.618  65.565  1.00  0.00    -0.041 C  
HETATM   33  O   UNL     1      -9.798   2.577  64.212  1.00  0.00    -0.194 OA 
HETATM   34  H   UNL     1     -10.122   1.724  63.946  1.00  0.00     0.000 HD 
ENDBRANCH  20  32
ENDBRANCH  13  18
ENDBRANCH  10  11
ENDBRANCH   7  10
ENDBRANCH   3   4
ENDBRANCH   2   3
TORSDOF 6
ENDMDL
MODEL      278
REMARK 921   NORMALIZED FREE ENERGY PREDICTED BY IDOCK:   43.84 KCAL/MOL
REMARK 922        TOTAL FREE ENERGY PREDICTED BY IDOCK:   58.08 KCAL/MOL
REMARK 923 INTER-LIGAND FREE ENERGY PREDICTED BY IDOCK:   59.68 KCAL/MOL
REMARK 924 INTRA-LIGAND FREE ENERGY PREDICTED BY IDOCK:   -1.60 KCAL/MOL
REMARK 927      BINDING AFFINITY PREDICTED BY RF-SCORE:    0.00 PKD
ROOT
HETATM    1  C   UNL     1     -10.815  19.192  65.136  1.00  0.00     0.715 C  
HETATM    2  C   UNL     1     -11.408  19.794  66.400  1.00  0.00     0.537 C  
ENDROOT
BRANCH   2   3
HETATM    3  O   UNL     1     -12.683  19.196  66.662  1.00  0.00     4.863 OA 
BRANCH   3   4
HETATM    4  C   UNL     1     -12.801  18.594  67.889  1.00  0.00     7.025 A  
HETATM    5  C   UNL     1     -11.845  18.947  68.841  1.00  0.00     4.611 A  
HETATM    6  C   UNL     1     -11.773  18.270  70.066  1.00  0.00     5.919 A  
HETATM    7  C   UNL     1     -12.661  17.220  70.355  1.00  0.00     7.365 A  
HETATM    8  C   UNL     1     -13.699  16.966  69.446  1.00  0.00     7.787 A  
HETATM    9  C   UNL     1     -13.773  17.652  68.225  1.00  0.00     9.495 A  
BRANCH   7  10
HETATM   10  C   UNL     1     -12.377  16.258  71.498  1.00  0.00    -0.082 C  
BRANCH  10  11
HETATM   11  C   UNL     1     -11.842  14.876  71.201  1.00  0.00    -0.387 A  
HETATM   12  C   UNL     1     -10.652  14.754  70.470  1.00  0.00     0.182 A  
HETATM   13  C   UNL     1     -10.084  13.498  70.135  1.00  0.00     2.123 A  
HETATM   14 CL   UNL     1     -13.997  13.683  72.391  1.00  0.00    -0.669 Cl 
HETATM   15  C   UNL     1     -10.607  12.358  70.744  1.00  0.00     3.964 A  
HETATM   16  C   UNL     1     -11.787  12.458  71.489  1.00  0.00     1.390 A  
HETATM   17  C   UNL     1     -12.433  13.694  71.655  1.00  0.00    -0.173 A  
BRANCH  13  18
HETATM   18  C   UNL     1      -9.172  13.431  68.924  1.00  0.00     0.244 C  
HETATM   19  C   UNL     1      -7.373  14.833  68.738  1.00  0.00    -0.129 C  
HETATM   20  C   UNL     1      -7.995  14.567  67.385  1.00  0.00    -0.200 C  
HETATM   21  O   UNL     1      -7.874  13.757  69.532  1.00  0.00     0.316 OA 
HETATM   22  H   UNL     1      -7.670  10.484  68.623  1.00  0.00     0.000 HD 
HETATM   23  O   UNL     1      -9.373  14.402  67.831  1.00  0.00    -0.193 OA 
HETATM   24  C   UNL     1      -7.600  13.258  66.624  1.00  0.00     0.879 C  
HETATM   25  O   UNL     1      -7.808  11.354  68.978  1.00  0.00    -0.120 OA 
HETATM   26  C   UNL     1      -8.629  12.121  66.847  1.00  0.00    -0.191 C  
HETATM   27  O   UNL     1      -6.264  12.876  66.951  1.00  0.00    -0.476 OA 
HETATM   28  H   UNL     1     -10.455  11.659  66.231  1.00  0.00     0.000 HD 
HETATM   29  H   UNL     1      -6.025  12.081  66.489  1.00  0.00     0.000 HD 
HETATM   30  O   UNL     1      -9.825  12.356  66.095  1.00  0.00    -0.244 OA 
HETATM   31  C   UNL     1      -8.943  11.995  68.337  1.00  0.00    -0.153 C  
BRANCH  20  32
HETATM   32  C   UNL     1      -7.599  15.751  66.474  1.00  0.00     0.112 C  
HETATM   33  O   UNL     1      -7.624  15.434  65.079  1.00  0.00     5.169 OA 
HETATM   34  H   UNL     1      -7.381  16.162  64.520  1.00  0.00     0.000 HD 
ENDBRANCH  20  32
ENDBRANCH  13  18
ENDBRANCH  10  11
ENDBRANCH   7  10
ENDBRANCH   3   4
ENDBRANCH   2   3
TORSDOF 6
ENDMDL
