MODEL        1
REMARK 921   NORMALIZED FREE ENERGY PREDICTED BY IDOCK:   -5.88 KCAL/MOL
REMARK 922        TOTAL FREE ENERGY PREDICTED BY IDOCK:   -9.23 KCAL/MOL
REMARK 923 INTER-LIGAND FREE ENERGY PREDICTED BY IDOCK:   -8.29 KCAL/MOL
REMARK 924 INTRA-LIGAND FREE ENERGY PREDICTED BY IDOCK:   -0.94 KCAL/MOL
REMARK 927      BINDING AFFINITY PREDICTED BY RF-SCORE:    0.00 PKD
ROOT
HETATM    1  O   UNL     1     -12.932  11.711  62.996  1.00  0.00    -0.423 OA 
HETATM    2  N   UNL     1     -12.782  12.740  63.650  1.00  0.00    -0.242 N  
HETATM    3  O   UNL     1     -12.465  13.874  63.286  1.00  0.00    -0.817 OA 
HETATM    4  O   UNL     1     -13.025  12.551  65.036  1.00  0.00    -0.779 OA 
ENDROOT
BRANCH   4   5
HETATM    5  C   UNL     1     -12.822  13.744  65.794  1.00  0.00    -0.379 C  
BRANCH   5   6
HETATM    6  C   UNL     1     -11.748  13.478  66.879  1.00  0.00    -0.384 C  
BRANCH   6   7
HETATM    7  O   UNL     1     -11.018  12.255  66.686  1.00  0.00    -0.255 OA 
HETATM    8  O   UNL     1     -12.252  11.367  68.363  1.00  0.00    -0.571 OA 
HETATM    9  N   UNL     1     -11.380  11.168  67.520  1.00  0.00    -0.300 N  
HETATM   10  O   UNL     1     -10.778  10.135  67.244  1.00  0.00    -0.261 OA 
ENDBRANCH   6   7
BRANCH   6  11
HETATM   11  C   UNL     1     -10.814  14.689  67.154  1.00  0.00    -0.303 C  
BRANCH  11  12
HETATM   12  O   UNL     1     -11.336  15.828  66.461  1.00  0.00    -0.076 OA 
HETATM   13  O   UNL     1      -9.370  15.872  65.356  1.00  0.00    -0.323 OA 
HETATM   14  O   UNL     1     -11.206  16.799  64.487  1.00  0.00    -0.997 OA 
HETATM   15  N   UNL     1     -10.558  16.190  65.333  1.00  0.00    -0.398 N  
ENDBRANCH  11  12
BRANCH  11  16
HETATM   16  C   UNL     1     -10.635  14.988  68.657  1.00  0.00    -0.237 C  
BRANCH  16  17
HETATM   17  O   UNL     1     -11.733  15.741  69.170  1.00  0.00    -0.368 OA 
HETATM   18  N   UNL     1     -12.420  15.036  70.204  1.00  0.00    -0.329 N  
HETATM   19  O   UNL     1     -13.309  15.707  70.723  1.00  0.00    -0.535 OA 
HETATM   20  O   UNL     1     -12.065  13.881  70.425  1.00  0.00    -0.315 OA 
ENDBRANCH  16  17
ENDBRANCH  11  16
ENDBRANCH   6  11
ENDBRANCH   5   6
ENDBRANCH   4   5
TORSDOF 7
ENDMDL
MODEL        2
REMARK 921   NORMALIZED FREE ENERGY PREDICTED BY IDOCK:   -5.84 KCAL/MOL
REMARK 922        TOTAL FREE ENERGY PREDICTED BY IDOCK:   -9.17 KCAL/MOL
REMARK 923 INTER-LIGAND FREE ENERGY PREDICTED BY IDOCK:   -8.20 KCAL/MOL
REMARK 924 INTRA-LIGAND FREE ENERGY PREDICTED BY IDOCK:   -0.97 KCAL/MOL
REMARK 927      BINDING AFFINITY PREDICTED BY RF-SCORE:    0.00 PKD
ROOT
HETATM    1  O   UNL     1     -13.083  11.510  62.982  1.00  0.00    -0.296 OA 
HETATM    2  N   UNL     1     -12.834  12.597  63.497  1.00  0.00    -0.149 N  
HETATM    3  O   UNL     1     -12.457  13.652  62.984  1.00  0.00    -0.719 OA 
HETATM    4  O   UNL     1     -13.028  12.596  64.903  1.00  0.00    -0.830 OA 
ENDROOT
BRANCH   4   5
HETATM    5  C   UNL     1     -12.711  13.853  65.500  1.00  0.00    -0.499 C  
BRANCH   5   6
HETATM    6  C   UNL     1     -11.872  13.609  66.781  1.00  0.00    -0.413 C  
BRANCH   6   7
HETATM    7  O   UNL     1     -11.923  12.254  67.259  1.00  0.00    -0.546 OA 
HETATM    8  O   UNL     1     -12.028  13.102  69.356  1.00  0.00    -0.307 OA 
HETATM    9  N   UNL     1     -12.031  12.087  68.662  1.00  0.00    -0.299 N  
HETATM   10  O   UNL     1     -12.155  10.912  68.993  1.00  0.00    -0.417 OA 
ENDBRANCH   6   7
BRANCH   6  11
HETATM   11  C   UNL     1     -10.419  14.154  66.697  1.00  0.00    -0.278 C  
BRANCH  11  12
HETATM   12  O   UNL     1      -9.516  13.044  66.752  1.00  0.00    -0.238 OA 
HETATM   13  O   UNL     1      -8.497  14.145  68.436  1.00  0.00    -0.161 OA 
HETATM   14  O   UNL     1      -8.310  11.931  68.222  1.00  0.00    -0.149 OA 
HETATM   15  N   UNL     1      -8.705  13.051  67.915  1.00  0.00    -0.179 N  
ENDBRANCH  11  12
BRANCH  11  16
HETATM   16  C   UNL     1     -10.165  15.013  65.441  1.00  0.00    -0.381 C  
BRANCH  16  17
HETATM   17  O   UNL     1     -10.034  16.394  65.775  1.00  0.00    -0.399 OA 
HETATM   18  N   UNL     1     -10.879  17.215  64.970  1.00  0.00    -0.126 N  
HETATM   19  O   UNL     1     -10.850  18.397  65.308  1.00  0.00    -0.624 OA 
HETATM   20  O   UNL     1     -11.493  16.664  64.060  1.00  0.00    -1.192 OA 
ENDBRANCH  16  17
ENDBRANCH  11  16
ENDBRANCH   6  11
ENDBRANCH   5   6
ENDBRANCH   4   5
TORSDOF 7
ENDMDL
MODEL        3
REMARK 921   NORMALIZED FREE ENERGY PREDICTED BY IDOCK:   -5.75 KCAL/MOL
REMARK 922        TOTAL FREE ENERGY PREDICTED BY IDOCK:   -9.05 KCAL/MOL
REMARK 923 INTER-LIGAND FREE ENERGY PREDICTED BY IDOCK:   -8.26 KCAL/MOL
REMARK 924 INTRA-LIGAND FREE ENERGY PREDICTED BY IDOCK:   -0.79 KCAL/MOL
REMARK 927      BINDING AFFINITY PREDICTED BY RF-SCORE:    0.00 PKD
ROOT
HETATM    1  O   UNL     1     -13.269  12.245  64.291  1.00  0.00    -0.785 OA 
HETATM    2  N   UNL     1     -12.910  13.199  64.976  1.00  0.00    -0.395 N  
HETATM    3  O   UNL     1     -12.962  14.408  64.745  1.00  0.00    -0.616 OA 
HETATM    4  O   UNL     1     -12.360  12.803  66.224  1.00  0.00    -0.521 OA 
ENDROOT
BRANCH   4   5
HETATM    5  C   UNL     1     -11.920  13.914  67.005  1.00  0.00    -0.424 C  
BRANCH   5   6
HETATM    6  C   UNL     1     -11.872  13.497  68.497  1.00  0.00    -0.362 C  
BRANCH   6   7
HETATM    7  O   UNL     1     -10.840  12.543  68.801  1.00  0.00    -0.242 OA 
HETATM    8  O   UNL     1     -12.485  11.050  69.237  1.00  0.00    -0.400 OA 
HETATM    9  N   UNL     1     -11.274  11.245  69.167  1.00  0.00    -0.250 N  
HETATM   10  O   UNL     1     -10.344  10.460  69.329  1.00  0.00    -0.204 OA 
ENDBRANCH   6   7
BRANCH   6  11
HETATM   11  C   UNL     1     -11.881  14.694  69.487  1.00  0.00    -0.330 C  
BRANCH  11  12
HETATM   12  O   UNL     1     -11.979  15.906  68.731  1.00  0.00    -0.368 OA 
HETATM   13  O   UNL     1      -9.998  16.467  69.652  1.00  0.00    -0.177 OA 
HETATM   14  O   UNL     1     -10.673  17.368  67.724  1.00  0.00    -0.373 OA 
HETATM   15  N   UNL     1     -10.766  16.639  68.707  1.00  0.00    -0.324 N  
ENDBRANCH  11  12
BRANCH  11  16
HETATM   16  C   UNL     1     -13.009  14.604  70.537  1.00  0.00    -0.268 C  
BRANCH  16  17
HETATM   17  O   UNL     1     -12.927  15.671  71.480  1.00  0.00    -0.442 OA 
HETATM   18  N   UNL     1     -13.478  15.303  72.745  1.00  0.00    -0.486 N  
HETATM   19  O   UNL     1     -13.329  16.176  73.597  1.00  0.00    -0.651 OA 
HETATM   20  O   UNL     1     -14.030  14.208  72.817  1.00  0.00    -0.638 OA 
ENDBRANCH  16  17
ENDBRANCH  11  16
ENDBRANCH   6  11
ENDBRANCH   5   6
ENDBRANCH   4   5
TORSDOF 7
ENDMDL
MODEL        4
REMARK 921   NORMALIZED FREE ENERGY PREDICTED BY IDOCK:   -5.74 KCAL/MOL
REMARK 922        TOTAL FREE ENERGY PREDICTED BY IDOCK:   -9.03 KCAL/MOL
REMARK 923 INTER-LIGAND FREE ENERGY PREDICTED BY IDOCK:   -8.03 KCAL/MOL
REMARK 924 INTRA-LIGAND FREE ENERGY PREDICTED BY IDOCK:   -1.01 KCAL/MOL
REMARK 927      BINDING AFFINITY PREDICTED BY RF-SCORE:    0.00 PKD
ROOT
HETATM    1  O   UNL     1     -13.011  12.098  63.495  1.00  0.00    -0.794 OA 
HETATM    2  N   UNL     1     -12.158  12.206  64.372  1.00  0.00    -0.375 N  
HETATM    3  O   UNL     1     -10.969  11.882  64.369  1.00  0.00    -0.304 OA 
HETATM    4  O   UNL     1     -12.661  12.809  65.555  1.00  0.00    -0.611 OA 
ENDROOT
BRANCH   4   5
HETATM    5  C   UNL     1     -11.673  12.908  66.581  1.00  0.00    -0.390 C  
BRANCH   5   6
HETATM    6  C   UNL     1     -11.181  14.375  66.672  1.00  0.00    -0.339 C  
BRANCH   6   7
HETATM    7  O   UNL     1     -11.842  15.266  65.758  1.00  0.00    -0.038 OA 
HETATM    8  O   UNL     1      -9.799  15.758  64.914  1.00  0.00    -0.263 OA 
HETATM    9  N   UNL     1     -11.011  15.947  64.834  1.00  0.00    -0.452 N  
HETATM   10  O   UNL     1     -11.647  16.624  64.031  1.00  0.00    -1.197 OA 
ENDBRANCH   6   7
BRANCH   6  11
HETATM   11  C   UNL     1     -11.137  14.937  68.120  1.00  0.00    -0.283 C  
BRANCH  11  12
HETATM   12  O   UNL     1     -11.509  16.319  68.080  1.00  0.00    -0.272 OA 
HETATM   13  O   UNL     1      -9.337  16.765  68.495  1.00  0.00    -0.229 OA 
HETATM   14  O   UNL     1     -10.660  18.272  67.514  1.00  0.00    -0.405 OA 
HETATM   15  N   UNL     1     -10.392  17.189  68.024  1.00  0.00    -0.336 N  
ENDBRANCH  11  12
BRANCH  11  16
HETATM   16  C   UNL     1     -12.029  14.151  69.103  1.00  0.00    -0.349 C  
BRANCH  16  17
HETATM   17  O   UNL     1     -11.538  14.247  70.439  1.00  0.00    -0.264 OA 
HETATM   18  N   UNL     1     -12.434  14.971  71.281  1.00  0.00    -0.307 N  
HETATM   19  O   UNL     1     -12.074  14.982  72.456  1.00  0.00    -0.351 OA 
HETATM   20  O   UNL     1     -13.409  15.492  70.745  1.00  0.00    -0.465 OA 
ENDBRANCH  16  17
ENDBRANCH  11  16
ENDBRANCH   6  11
ENDBRANCH   5   6
ENDBRANCH   4   5
TORSDOF 7
ENDMDL
MODEL        5
REMARK 921   NORMALIZED FREE ENERGY PREDICTED BY IDOCK:   -5.74 KCAL/MOL
REMARK 922        TOTAL FREE ENERGY PREDICTED BY IDOCK:   -9.02 KCAL/MOL
REMARK 923 INTER-LIGAND FREE ENERGY PREDICTED BY IDOCK:   -8.04 KCAL/MOL
REMARK 924 INTRA-LIGAND FREE ENERGY PREDICTED BY IDOCK:   -0.98 KCAL/MOL
REMARK 927      BINDING AFFINITY PREDICTED BY RF-SCORE:    0.00 PKD
ROOT
HETATM    1  O   UNL     1     -13.129  11.996  63.106  1.00  0.00    -0.624 OA 
HETATM    2  N   UNL     1     -12.334  12.013  64.042  1.00  0.00    -0.416 N  
HETATM    3  O   UNL     1     -11.210  11.519  64.141  1.00  0.00    -0.358 OA 
HETATM    4  O   UNL     1     -12.826  12.728  65.166  1.00  0.00    -0.726 OA 
ENDROOT
BRANCH   4   5
HETATM    5  C   UNL     1     -11.910  12.721  66.262  1.00  0.00    -0.423 C  
BRANCH   5   6
HETATM    6  C   UNL     1     -11.371  14.157  66.482  1.00  0.00    -0.341 C  
BRANCH   6   7
HETATM    7  O   UNL     1     -11.935  15.132  65.588  1.00  0.00    -0.069 OA 
HETATM    8  O   UNL     1      -9.834  15.511  64.834  1.00  0.00    -0.249 OA 
HETATM    9  N   UNL     1     -11.026  15.790  64.723  1.00  0.00    -0.448 N  
HETATM   10  O   UNL     1     -11.583  16.545  63.931  1.00  0.00    -1.175 OA 
ENDBRANCH   6   7
BRANCH   6  11
HETATM   11  C   UNL     1     -11.404  14.624  67.964  1.00  0.00    -0.311 C  
BRANCH  11  12
HETATM   12  O   UNL     1     -11.084  13.505  68.797  1.00  0.00    -0.246 OA 
HETATM   13  O   UNL     1     -12.667  14.285  70.201  1.00  0.00    -0.331 OA 
HETATM   14  O   UNL     1     -12.062  12.136  70.221  1.00  0.00    -0.339 OA 
HETATM   15  N   UNL     1     -12.032  13.299  69.830  1.00  0.00    -0.334 N  
ENDBRANCH  11  12
BRANCH  11  16
HETATM   16  C   UNL     1     -10.460  15.813  68.246  1.00  0.00    -0.259 C  
BRANCH  16  17
HETATM   17  O   UNL     1     -11.160  17.055  68.189  1.00  0.00    -0.334 OA 
HETATM   18  N   UNL     1     -10.420  18.046  67.476  1.00  0.00    -0.387 N  
HETATM   19  O   UNL     1     -11.048  19.093  67.335  1.00  0.00    -0.426 OA 
HETATM   20  O   UNL     1      -9.282  17.748  67.122  1.00  0.00    -0.245 OA 
ENDBRANCH  16  17
ENDBRANCH  11  16
ENDBRANCH   6  11
ENDBRANCH   5   6
ENDBRANCH   4   5
TORSDOF 7
ENDMDL
MODEL        6
REMARK 921   NORMALIZED FREE ENERGY PREDICTED BY IDOCK:   -5.64 KCAL/MOL
REMARK 922        TOTAL FREE ENERGY PREDICTED BY IDOCK:   -8.88 KCAL/MOL
REMARK 923 INTER-LIGAND FREE ENERGY PREDICTED BY IDOCK:   -7.95 KCAL/MOL
REMARK 924 INTRA-LIGAND FREE ENERGY PREDICTED BY IDOCK:   -0.94 KCAL/MOL
REMARK 927      BINDING AFFINITY PREDICTED BY RF-SCORE:    0.00 PKD
ROOT
HETATM    1  O   UNL     1     -12.925  11.750  63.049  1.00  0.00    -0.487 OA 
HETATM    2  N   UNL     1     -12.692  12.779  63.678  1.00  0.00    -0.242 N  
HETATM    3  O   UNL     1     -12.308  13.882  63.284  1.00  0.00    -0.749 OA 
HETATM    4  O   UNL     1     -12.917  12.634  65.072  1.00  0.00    -0.812 OA 
ENDROOT
BRANCH   4   5
HETATM    5  C   UNL     1     -12.619  13.824  65.801  1.00  0.00    -0.480 C  
BRANCH   5   6
HETATM    6  C   UNL     1     -11.890  13.444  67.115  1.00  0.00    -0.382 C  
BRANCH   6   7
HETATM    7  O   UNL     1     -10.815  12.506  66.933  1.00  0.00    -0.239 OA 
HETATM    8  O   UNL     1     -11.921  11.115  68.335  1.00  0.00    -0.561 OA 
HETATM    9  N   UNL     1     -10.937  11.270  67.614  1.00  0.00    -0.240 N  
HETATM   10  O   UNL     1     -10.031  10.488  67.347  1.00  0.00    -0.170 OA 
ENDBRANCH   6   7
BRANCH   6  11
HETATM   11  C   UNL     1     -11.471  14.664  67.981  1.00  0.00    -0.324 C  
BRANCH  11  12
HETATM   12  O   UNL     1     -11.183  14.202  69.305  1.00  0.00    -0.255 OA 
HETATM   13  O   UNL     1     -12.748  15.670  70.000  1.00  0.00    -0.282 OA 
HETATM   14  O   UNL     1     -12.200  13.893  71.235  1.00  0.00    -0.345 OA 
HETATM   15  N   UNL     1     -12.138  14.634  70.259  1.00  0.00    -0.299 N  
ENDBRANCH  11  12
BRANCH  11  16
HETATM   16  C   UNL     1     -10.274  15.443  67.393  1.00  0.00    -0.249 C  
BRANCH  16  17
HETATM   17  O   UNL     1     -10.700  16.649  66.762  1.00  0.00    -0.253 OA 
HETATM   18  N   UNL     1     -10.526  16.595  65.346  1.00  0.00    -0.297 N  
HETATM   19  O   UNL     1     -10.976  17.587  64.777  1.00  0.00    -0.950 OA 
HETATM   20  O   UNL     1      -9.953  15.609  64.890  1.00  0.00    -0.331 OA 
ENDBRANCH  16  17
ENDBRANCH  11  16
ENDBRANCH   6  11
ENDBRANCH   5   6
ENDBRANCH   4   5
TORSDOF 7
ENDMDL
MODEL        7
REMARK 921   NORMALIZED FREE ENERGY PREDICTED BY IDOCK:   -5.64 KCAL/MOL
REMARK 922        TOTAL FREE ENERGY PREDICTED BY IDOCK:   -8.88 KCAL/MOL
REMARK 923 INTER-LIGAND FREE ENERGY PREDICTED BY IDOCK:   -7.99 KCAL/MOL
REMARK 924 INTRA-LIGAND FREE ENERGY PREDICTED BY IDOCK:   -0.89 KCAL/MOL
REMARK 927      BINDING AFFINITY PREDICTED BY RF-SCORE:    0.00 PKD
ROOT
HETATM    1  O   UNL     1     -12.884  11.797  62.970  1.00  0.00    -0.457 OA 
HETATM    2  N   UNL     1     -12.783  12.805  63.663  1.00  0.00    -0.242 N  
HETATM    3  O   UNL     1     -12.512  13.964  63.345  1.00  0.00    -0.833 OA 
HETATM    4  O   UNL     1     -13.029  12.554  65.038  1.00  0.00    -0.779 OA 
ENDROOT
BRANCH   4   5
HETATM    5  C   UNL     1     -12.884  13.724  65.843  1.00  0.00    -0.315 C  
BRANCH   5   6
HETATM    6  C   UNL     1     -11.681  13.532  66.802  1.00  0.00    -0.391 C  
BRANCH   6   7
HETATM    7  O   UNL     1     -10.952  12.312  66.584  1.00  0.00    -0.255 OA 
HETATM    8  O   UNL     1     -12.189  11.392  68.242  1.00  0.00    -0.588 OA 
HETATM    9  N   UNL     1     -11.317  11.209  67.395  1.00  0.00    -0.296 N  
HETATM   10  O   UNL     1     -10.716  10.181  67.098  1.00  0.00    -0.250 OA 
ENDBRANCH   6   7
BRANCH   6  11
HETATM   11  C   UNL     1     -10.747  14.771  66.899  1.00  0.00    -0.308 C  
BRANCH  11  12
HETATM   12  O   UNL     1     -11.357  15.853  66.188  1.00  0.00    -0.005 OA 
HETATM   13  O   UNL     1      -9.342  16.160  65.223  1.00  0.00    -0.255 OA 
HETATM   14  O   UNL     1     -11.215  16.876  64.241  1.00  0.00    -1.204 OA 
HETATM   15  N   UNL     1     -10.555  16.332  65.121  1.00  0.00    -0.365 N  
ENDBRANCH  11  12
BRANCH  11  16
HETATM   16  C   UNL     1     -10.425  15.175  68.353  1.00  0.00    -0.233 C  
BRANCH  16  17
HETATM   17  O   UNL     1     -10.884  16.495  68.638  1.00  0.00    -0.310 OA 
HETATM   18  N   UNL     1      -9.836  17.457  68.517  1.00  0.00    -0.303 N  
HETATM   19  O   UNL     1     -10.234  18.610  68.665  1.00  0.00    -0.375 OA 
HETATM   20  O   UNL     1      -8.704  17.028  68.306  1.00  0.00    -0.225 OA 
ENDBRANCH  16  17
ENDBRANCH  11  16
ENDBRANCH   6  11
ENDBRANCH   5   6
ENDBRANCH   4   5
TORSDOF 7
ENDMDL
MODEL        8
REMARK 921   NORMALIZED FREE ENERGY PREDICTED BY IDOCK:   -5.60 KCAL/MOL
REMARK 922        TOTAL FREE ENERGY PREDICTED BY IDOCK:   -8.83 KCAL/MOL
REMARK 923 INTER-LIGAND FREE ENERGY PREDICTED BY IDOCK:   -7.95 KCAL/MOL
REMARK 924 INTRA-LIGAND FREE ENERGY PREDICTED BY IDOCK:   -0.88 KCAL/MOL
REMARK 927      BINDING AFFINITY PREDICTED BY RF-SCORE:    0.00 PKD
ROOT
HETATM    1  O   UNL     1     -13.265  11.910  63.298  1.00  0.00    -0.602 OA 
HETATM    2  N   UNL     1     -12.181  12.118  63.838  1.00  0.00    -0.475 N  
HETATM    3  O   UNL     1     -11.045  12.123  63.363  1.00  0.00    -0.431 OA 
HETATM    4  O   UNL     1     -12.303  12.395  65.225  1.00  0.00    -0.563 OA 
ENDROOT
BRANCH   4   5
HETATM    5  C   UNL     1     -11.038  12.608  65.853  1.00  0.00    -0.289 C  
BRANCH   5   6
HETATM    6  C   UNL     1     -10.910  14.103  66.240  1.00  0.00    -0.300 C  
BRANCH   6   7
HETATM    7  O   UNL     1     -11.677  14.988  65.405  1.00  0.00    -0.287 OA 
HETATM    8  O   UNL     1      -9.766  16.148  65.047  1.00  0.00    -0.238 OA 
HETATM    9  N   UNL     1     -10.964  16.045  64.789  1.00  0.00    -0.443 N  
HETATM   10  O   UNL     1     -11.660  16.707  64.026  1.00  0.00    -1.197 OA 
ENDBRANCH   6   7
BRANCH   6  11
HETATM   11  C   UNL     1     -11.123  14.384  67.754  1.00  0.00    -0.287 C  
BRANCH  11  12
HETATM   12  O   UNL     1     -11.517  15.752  67.909  1.00  0.00    -0.316 OA 
HETATM   13  O   UNL     1      -9.448  16.100  68.738  1.00  0.00    -0.210 OA 
HETATM   14  O   UNL     1     -10.635  17.771  67.852  1.00  0.00    -0.386 OA 
HETATM   15  N   UNL     1     -10.425  16.610  68.191  1.00  0.00    -0.305 N  
ENDBRANCH  11  12
BRANCH  11  16
HETATM   16  C   UNL     1     -12.149  13.435  68.408  1.00  0.00    -0.235 C  
BRANCH  16  17
HETATM   17  O   UNL     1     -11.611  12.816  69.575  1.00  0.00    -0.284 OA 
HETATM   18  N   UNL     1     -11.752  11.396  69.534  1.00  0.00    -0.316 N  
HETATM   19  O   UNL     1     -11.210  10.839  70.486  1.00  0.00    -0.282 OA 
HETATM   20  O   UNL     1     -12.391  10.924  68.597  1.00  0.00    -0.501 OA 
ENDBRANCH  16  17
ENDBRANCH  11  16
ENDBRANCH   6  11
ENDBRANCH   5   6
ENDBRANCH   4   5
TORSDOF 7
ENDMDL
MODEL        9
REMARK 921   NORMALIZED FREE ENERGY PREDICTED BY IDOCK:   -5.57 KCAL/MOL
REMARK 922        TOTAL FREE ENERGY PREDICTED BY IDOCK:   -8.78 KCAL/MOL
REMARK 923 INTER-LIGAND FREE ENERGY PREDICTED BY IDOCK:   -8.03 KCAL/MOL
REMARK 924 INTRA-LIGAND FREE ENERGY PREDICTED BY IDOCK:   -0.75 KCAL/MOL
REMARK 927      BINDING AFFINITY PREDICTED BY RF-SCORE:    0.00 PKD
ROOT
HETATM    1  O   UNL     1     -12.601  11.401  70.902  1.00  0.00    -0.367 OA 
HETATM    2  N   UNL     1     -12.152  11.576  69.772  1.00  0.00    -0.315 N  
HETATM    3  O   UNL     1     -12.211  10.857  68.773  1.00  0.00    -0.518 OA 
HETATM    4  O   UNL     1     -11.472  12.815  69.637  1.00  0.00    -0.254 OA 
ENDROOT
BRANCH   4   5
HETATM    5  C   UNL     1     -10.928  13.001  68.329  1.00  0.00    -0.260 C  
BRANCH   5   6
HETATM    6  C   UNL     1     -11.580  14.250  67.683  1.00  0.00    -0.368 C  
BRANCH   6   7
HETATM    7  O   UNL     1     -10.858  15.470  67.920  1.00  0.00    -0.288 OA 
HETATM    8  O   UNL     1     -12.288  15.871  69.628  1.00  0.00    -0.252 OA 
HETATM    9  N   UNL     1     -11.303  16.263  69.006  1.00  0.00    -0.325 N  
HETATM   10  O   UNL     1     -10.591  17.243  69.203  1.00  0.00    -0.320 OA 
ENDBRANCH   6   7
BRANCH   6  11
HETATM   11  C   UNL     1     -11.954  14.064  66.186  1.00  0.00    -0.420 C  
BRANCH  11  12
HETATM   12  O   UNL     1     -11.119  14.921  65.401  1.00  0.00    -0.333 OA 
HETATM   13  O   UNL     1     -12.835  15.011  63.940  1.00  0.00    -0.679 OA 
HETATM   14  O   UNL     1     -11.293  16.623  64.012  1.00  0.00    -1.120 OA 
HETATM   15  N   UNL     1     -11.825  15.573  64.359  1.00  0.00    -0.322 N  
ENDBRANCH  11  12
BRANCH  11  16
HETATM   16  C   UNL     1     -11.846  12.599  65.712  1.00  0.00    -0.444 C  
BRANCH  16  17
HETATM   17  O   UNL     1     -10.646  12.380  64.974  1.00  0.00    -0.280 OA 
HETATM   18  N   UNL     1     -10.916  12.000  63.625  1.00  0.00    -0.413 N  
HETATM   19  O   UNL     1      -9.895  11.900  62.948  1.00  0.00    -0.306 OA 
HETATM   20  O   UNL     1     -12.091  11.807  63.322  1.00  0.00    -0.452 OA 
ENDBRANCH  16  17
ENDBRANCH  11  16
ENDBRANCH   6  11
ENDBRANCH   5   6
ENDBRANCH   4   5
TORSDOF 7
ENDMDL
MODEL       10
REMARK 921   NORMALIZED FREE ENERGY PREDICTED BY IDOCK:   -5.54 KCAL/MOL
REMARK 922        TOTAL FREE ENERGY PREDICTED BY IDOCK:   -8.75 KCAL/MOL
REMARK 923 INTER-LIGAND FREE ENERGY PREDICTED BY IDOCK:   -7.70 KCAL/MOL
REMARK 924 INTRA-LIGAND FREE ENERGY PREDICTED BY IDOCK:   -1.05 KCAL/MOL
REMARK 927      BINDING AFFINITY PREDICTED BY RF-SCORE:    0.00 PKD
ROOT
HETATM    1  O   UNL     1     -11.485  15.282  71.858  1.00  0.00    -0.410 OA 
HETATM    2  N   UNL     1     -11.555  15.039  70.656  1.00  0.00    -0.292 N  
HETATM    3  O   UNL     1     -11.833  13.992  70.071  1.00  0.00    -0.288 OA 
HETATM    4  O   UNL     1     -11.267  16.172  69.850  1.00  0.00    -0.328 OA 
ENDROOT
BRANCH   4   5
HETATM    5  C   UNL     1     -11.321  15.878  68.454  1.00  0.00    -0.361 C  
BRANCH   5   6
HETATM    6  C   UNL     1     -10.617  17.014  67.668  1.00  0.00    -0.333 C  
BRANCH   6   7
HETATM    7  O   UNL     1      -9.952  17.974  68.507  1.00  0.00    -0.350 OA 
HETATM    8  O   UNL     1     -11.122  19.583  67.426  1.00  0.00    -0.433 OA 
HETATM    9  N   UNL     1     -10.311  19.331  68.315  1.00  0.00    -0.404 N  
HETATM   10  O   UNL     1      -9.770  20.085  69.118  1.00  0.00    -0.221 OA 
ENDBRANCH   6   7
BRANCH   6  11
HETATM   11  C   UNL     1      -9.713  16.513  66.508  1.00  0.00    -0.272 C  
BRANCH  11  12
HETATM   12  O   UNL     1     -10.268  16.975  65.271  1.00  0.00    -0.601 OA 
HETATM   13  O   UNL     1     -10.783  14.816  64.867  1.00  0.00    -0.401 OA 
HETATM   14  O   UNL     1     -11.893  16.476  63.870  1.00  0.00    -1.059 OA 
HETATM   15  N   UNL     1     -11.052  15.991  64.619  1.00  0.00    -0.433 N  
ENDBRANCH  11  12
BRANCH  11  16
HETATM   16  C   UNL     1      -8.241  16.953  66.653  1.00  0.00    -0.257 C  
BRANCH  16  17
HETATM   17  O   UNL     1      -7.882  17.901  65.650  1.00  0.00    -0.534 OA 
HETATM   18  N   UNL     1      -7.161  19.005  66.199  1.00  0.00    -0.248 N  
HETATM   19  O   UNL     1      -6.761  19.783  65.337  1.00  0.00    -0.266 OA 
HETATM   20  O   UNL     1      -7.051  19.048  67.422  1.00  0.00    -0.211 OA 
ENDBRANCH  16  17
ENDBRANCH  11  16
ENDBRANCH   6  11
ENDBRANCH   5   6
ENDBRANCH   4   5
TORSDOF 7
ENDMDL
MODEL       11
REMARK 921   NORMALIZED FREE ENERGY PREDICTED BY IDOCK:   -5.54 KCAL/MOL
REMARK 922        TOTAL FREE ENERGY PREDICTED BY IDOCK:   -8.75 KCAL/MOL
REMARK 923 INTER-LIGAND FREE ENERGY PREDICTED BY IDOCK:   -7.85 KCAL/MOL
REMARK 924 INTRA-LIGAND FREE ENERGY PREDICTED BY IDOCK:   -0.90 KCAL/MOL
REMARK 927      BINDING AFFINITY PREDICTED BY RF-SCORE:    0.00 PKD
ROOT
HETATM    1  O   UNL     1     -10.292  19.788  67.833  1.00  0.00    -0.416 OA 
HETATM    2  N   UNL     1     -10.383  18.914  66.975  1.00  0.00    -0.380 N  
HETATM    3  O   UNL     1     -10.484  19.009  65.751  1.00  0.00    -0.530 OA 
HETATM    4  O   UNL     1     -10.360  17.604  67.521  1.00  0.00    -0.337 OA 
ENDROOT
BRANCH   4   5
HETATM    5  C   UNL     1     -10.494  16.592  66.523  1.00  0.00    -0.262 C  
BRANCH   5   6
HETATM    6  C   UNL     1     -10.850  15.248  67.208  1.00  0.00    -0.318 C  
BRANCH   6   7
HETATM    7  O   UNL     1     -11.943  15.341  68.137  1.00  0.00    -0.271 OA 
HETATM    8  O   UNL     1     -10.458  14.874  69.781  1.00  0.00    -0.212 OA 
HETATM    9  N   UNL     1     -11.624  15.147  69.504  1.00  0.00    -0.298 N  
HETATM   10  O   UNL     1     -12.585  15.324  70.246  1.00  0.00    -0.370 OA 
ENDBRANCH   6   7
BRANCH   6  11
HETATM   11  C   UNL     1     -11.012  14.060  66.220  1.00  0.00    -0.300 C  
BRANCH  11  12
HETATM   12  O   UNL     1     -12.001  13.167  66.744  1.00  0.00    -0.384 OA 
HETATM   13  O   UNL     1     -10.382  11.597  66.728  1.00  0.00    -0.212 OA 
HETATM   14  O   UNL     1     -12.150  11.421  68.080  1.00  0.00    -0.629 OA 
HETATM   15  N   UNL     1     -11.449  11.954  67.226  1.00  0.00    -0.321 N  
ENDBRANCH  11  12
BRANCH  11  16
HETATM   16  C   UNL     1     -11.371  14.506  64.787  1.00  0.00    -0.396 C  
BRANCH  16  17
HETATM   17  O   UNL     1     -12.517  13.809  64.299  1.00  0.00    -0.629 OA 
HETATM   18  N   UNL     1     -12.151  12.700  63.479  1.00  0.00    -0.534 N  
HETATM   19  O   UNL     1     -13.121  12.032  63.128  1.00  0.00    -0.624 OA 
HETATM   20  O   UNL     1     -10.958  12.565  63.219  1.00  0.00    -0.425 OA 
ENDBRANCH  16  17
ENDBRANCH  11  16
ENDBRANCH   6  11
ENDBRANCH   5   6
ENDBRANCH   4   5
TORSDOF 7
ENDMDL
MODEL       12
REMARK 921   NORMALIZED FREE ENERGY PREDICTED BY IDOCK:   -5.51 KCAL/MOL
REMARK 922        TOTAL FREE ENERGY PREDICTED BY IDOCK:   -8.70 KCAL/MOL
REMARK 923 INTER-LIGAND FREE ENERGY PREDICTED BY IDOCK:   -7.79 KCAL/MOL
REMARK 924 INTRA-LIGAND FREE ENERGY PREDICTED BY IDOCK:   -0.91 KCAL/MOL
REMARK 927      BINDING AFFINITY PREDICTED BY RF-SCORE:    0.00 PKD
ROOT
HETATM    1  O   UNL     1     -11.390  15.234  72.668  1.00  0.00    -0.412 OA 
HETATM    2  N   UNL     1     -11.974  15.455  71.610  1.00  0.00    -0.346 N  
HETATM    3  O   UNL     1     -13.150  15.757  71.400  1.00  0.00    -0.493 OA 
HETATM    4  O   UNL     1     -11.125  15.337  70.478  1.00  0.00    -0.286 OA 
ENDROOT
BRANCH   4   5
HETATM    5  C   UNL     1     -11.816  15.568  69.250  1.00  0.00    -0.353 C  
BRANCH   5   6
HETATM    6  C   UNL     1     -11.496  14.415  68.265  1.00  0.00    -0.305 C  
BRANCH   6   7
HETATM    7  O   UNL     1     -12.243  13.212  68.515  1.00  0.00    -0.248 OA 
HETATM    8  O   UNL     1     -10.260  12.135  68.700  1.00  0.00    -0.220 OA 
HETATM    9  N   UNL     1     -11.484  12.041  68.761  1.00  0.00    -0.274 N  
HETATM   10  O   UNL     1     -12.182  11.074  69.050  1.00  0.00    -0.483 OA 
ENDBRANCH   6   7
BRANCH   6  11
HETATM   11  C   UNL     1     -11.532  14.834  66.769  1.00  0.00    -0.338 C  
BRANCH  11  12
HETATM   12  O   UNL     1     -10.191  14.830  66.266  1.00  0.00    -0.277 OA 
HETATM   13  O   UNL     1     -10.698  16.813  65.318  1.00  0.00    -0.576 OA 
HETATM   14  O   UNL     1      -8.583  16.248  65.758  1.00  0.00    -0.348 OA 
HETATM   15  N   UNL     1      -9.799  16.084  65.735  1.00  0.00    -0.331 N  
ENDBRANCH  11  12
BRANCH  11  16
HETATM   16  C   UNL     1     -12.449  13.938  65.910  1.00  0.00    -0.481 C  
BRANCH  16  17
HETATM   17  O   UNL     1     -11.705  12.912  65.255  1.00  0.00    -0.329 OA 
HETATM   18  N   UNL     1     -11.819  13.001  63.835  1.00  0.00    -0.443 N  
HETATM   19  O   UNL     1     -11.109  12.185  63.252  1.00  0.00    -0.410 OA 
HETATM   20  O   UNL     1     -12.598  13.839  63.387  1.00  0.00    -0.842 OA 
ENDBRANCH  16  17
ENDBRANCH  11  16
ENDBRANCH   6  11
ENDBRANCH   5   6
ENDBRANCH   4   5
TORSDOF 7
ENDMDL
MODEL       13
REMARK 921   NORMALIZED FREE ENERGY PREDICTED BY IDOCK:   -5.50 KCAL/MOL
REMARK 922        TOTAL FREE ENERGY PREDICTED BY IDOCK:   -8.70 KCAL/MOL
REMARK 923 INTER-LIGAND FREE ENERGY PREDICTED BY IDOCK:   -7.75 KCAL/MOL
REMARK 924 INTRA-LIGAND FREE ENERGY PREDICTED BY IDOCK:   -0.95 KCAL/MOL
REMARK 927      BINDING AFFINITY PREDICTED BY RF-SCORE:    0.00 PKD
ROOT
HETATM    1  O   UNL     1     -11.560  15.938  71.983  1.00  0.00    -0.423 OA 
HETATM    2  N   UNL     1     -12.088  15.841  70.878  1.00  0.00    -0.399 N  
HETATM    3  O   UNL     1     -13.264  15.630  70.576  1.00  0.00    -0.434 OA 
HETATM    4  O   UNL     1     -11.167  16.009  69.812  1.00  0.00    -0.301 OA 
ENDROOT
BRANCH   4   5
HETATM    5  C   UNL     1     -11.782  15.868  68.531  1.00  0.00    -0.292 C  
BRANCH   5   6
HETATM    6  C   UNL     1     -11.154  14.654  67.799  1.00  0.00    -0.298 C  
BRANCH   6   7
HETATM    7  O   UNL     1     -11.972  13.471  67.829  1.00  0.00    -0.354 OA 
HETATM    8  O   UNL     1     -10.188  12.378  68.692  1.00  0.00    -0.218 OA 
HETATM    9  N   UNL     1     -11.366  12.302  68.350  1.00  0.00    -0.267 N  
HETATM   10  O   UNL     1     -12.144  11.356  68.425  1.00  0.00    -0.575 OA 
ENDBRANCH   6   7
BRANCH   6  11
HETATM   11  C   UNL     1     -10.633  14.977  66.371  1.00  0.00    -0.310 C  
BRANCH  11  12
HETATM   12  O   UNL     1     -11.745  14.959  65.469  1.00  0.00    -0.313 OA 
HETATM   13  O   UNL     1     -10.546  13.485  64.254  1.00  0.00    -0.412 OA 
HETATM   14  O   UNL     1     -12.770  13.576  64.095  1.00  0.00    -0.650 OA 
HETATM   15  N   UNL     1     -11.670  13.906  64.524  1.00  0.00    -0.393 N  
ENDBRANCH  11  12
BRANCH  11  16
HETATM   16  C   UNL     1      -9.877  16.320  66.292  1.00  0.00    -0.313 C  
BRANCH  16  17
HETATM   17  O   UNL     1     -10.531  17.233  65.412  1.00  0.00    -0.635 OA 
HETATM   18  N   UNL     1     -10.545  18.559  65.941  1.00  0.00    -0.410 N  
HETATM   19  O   UNL     1     -11.020  19.376  65.156  1.00  0.00    -0.430 OA 
HETATM   20  O   UNL     1     -10.114  18.711  67.082  1.00  0.00    -0.324 OA 
ENDBRANCH  16  17
ENDBRANCH  11  16
ENDBRANCH   6  11
ENDBRANCH   5   6
ENDBRANCH   4   5
TORSDOF 7
ENDMDL
MODEL       14
REMARK 921   NORMALIZED FREE ENERGY PREDICTED BY IDOCK:   -5.50 KCAL/MOL
REMARK 922        TOTAL FREE ENERGY PREDICTED BY IDOCK:   -8.68 KCAL/MOL
REMARK 923 INTER-LIGAND FREE ENERGY PREDICTED BY IDOCK:   -7.72 KCAL/MOL
REMARK 924 INTRA-LIGAND FREE ENERGY PREDICTED BY IDOCK:   -0.97 KCAL/MOL
REMARK 927      BINDING AFFINITY PREDICTED BY RF-SCORE:    0.00 PKD
ROOT
HETATM    1  O   UNL     1     -13.281  11.743  63.182  1.00  0.00    -0.538 OA 
HETATM    2  N   UNL     1     -12.490  12.590  63.586  1.00  0.00    -0.481 N  
HETATM    3  O   UNL     1     -12.413  13.793  63.330  1.00  0.00    -0.819 OA 
HETATM    4  O   UNL     1     -11.533  12.061  64.491  1.00  0.00    -0.324 OA 
ENDROOT
BRANCH   4   5
HETATM    5  C   UNL     1     -10.598  13.044  64.936  1.00  0.00    -0.337 C  
BRANCH   5   6
HETATM    6  C   UNL     1     -10.866  13.359  66.430  1.00  0.00    -0.289 C  
BRANCH   6   7
HETATM    7  O   UNL     1     -10.180  12.483  67.340  1.00  0.00    -0.211 OA 
HETATM    8  O   UNL     1     -12.212  11.709  67.973  1.00  0.00    -0.551 OA 
HETATM    9  N   UNL     1     -10.994  11.615  68.110  1.00  0.00    -0.211 N  
HETATM   10  O   UNL     1     -10.341  10.839  68.801  1.00  0.00    -0.174 OA 
ENDBRANCH   6   7
BRANCH   6  11
HETATM   11  C   UNL     1     -10.687  14.857  66.802  1.00  0.00    -0.312 C  
BRANCH  11  12
HETATM   12  O   UNL     1     -10.149  14.933  68.126  1.00  0.00    -0.217 OA 
HETATM   13  O   UNL     1     -12.029  16.054  68.668  1.00  0.00    -0.306 OA 
HETATM   14  O   UNL     1     -10.836  14.980  70.219  1.00  0.00    -0.237 OA 
HETATM   15  N   UNL     1     -11.101  15.362  69.084  1.00  0.00    -0.249 N  
ENDBRANCH  11  12
BRANCH  11  16
HETATM   16  C   UNL     1      -9.804  15.630  65.799  1.00  0.00    -0.351 C  
BRANCH  16  17
HETATM   17  O   UNL     1      -9.852  17.035  66.041  1.00  0.00    -0.403 OA 
HETATM   18  N   UNL     1     -10.743  17.695  65.142  1.00  0.00     0.033 N  
HETATM   19  O   UNL     1     -10.870  18.891  65.396  1.00  0.00    -0.553 OA 
HETATM   20  O   UNL     1     -11.239  17.017  64.246  1.00  0.00    -1.186 OA 
ENDBRANCH  16  17
ENDBRANCH  11  16
ENDBRANCH   6  11
ENDBRANCH   5   6
ENDBRANCH   4   5
TORSDOF 7
ENDMDL
MODEL       15
REMARK 921   NORMALIZED FREE ENERGY PREDICTED BY IDOCK:   -5.48 KCAL/MOL
REMARK 922        TOTAL FREE ENERGY PREDICTED BY IDOCK:   -8.66 KCAL/MOL
REMARK 923 INTER-LIGAND FREE ENERGY PREDICTED BY IDOCK:   -7.76 KCAL/MOL
REMARK 924 INTRA-LIGAND FREE ENERGY PREDICTED BY IDOCK:   -0.90 KCAL/MOL
REMARK 927      BINDING AFFINITY PREDICTED BY RF-SCORE:    0.00 PKD
ROOT
HETATM    1  O   UNL     1     -13.839  15.593  71.123  1.00  0.00    -0.583 OA 
HETATM    2  N   UNL     1     -12.662  15.818  70.853  1.00  0.00    -0.439 N  
HETATM    3  O   UNL     1     -11.689  15.956  71.595  1.00  0.00    -0.408 OA 
HETATM    4  O   UNL     1     -12.430  15.923  69.456  1.00  0.00    -0.150 OA 
ENDROOT
BRANCH   4   5
HETATM    5  C   UNL     1     -11.065  16.212  69.150  1.00  0.00    -0.329 C  
BRANCH   5   6
HETATM    6  C   UNL     1     -10.835  16.016  67.629  1.00  0.00    -0.311 C  
BRANCH   6   7
HETATM    7  O   UNL     1      -9.518  16.385  67.189  1.00  0.00    -0.226 OA 
HETATM    8  O   UNL     1     -10.505  17.869  65.793  1.00  0.00    -0.564 OA 
HETATM    9  N   UNL     1      -9.445  17.410  66.213  1.00  0.00    -0.252 N  
HETATM   10  O   UNL     1      -8.292  17.732  65.946  1.00  0.00    -0.524 OA 
ENDBRANCH   6   7
BRANCH   6  11
HETATM   11  C   UNL     1     -11.268  14.621  67.100  1.00  0.00    -0.344 C  
BRANCH  11  12
HETATM   12  O   UNL     1     -11.161  14.626  65.672  1.00  0.00    -0.328 OA 
HETATM   13  O   UNL     1     -13.290  13.881  65.656  1.00  0.00    -0.620 OA 
HETATM   14  O   UNL     1     -12.423  14.942  63.893  1.00  0.00    -0.806 OA 
HETATM   15  N   UNL     1     -12.412  14.468  65.025  1.00  0.00    -0.367 N  
ENDBRANCH  11  12
BRANCH  11  16
HETATM   16  C   UNL     1     -10.456  13.461  67.712  1.00  0.00    -0.243 C  
BRANCH  16  17
HETATM   17  O   UNL     1     -10.041  12.533  66.712  1.00  0.00    -0.219 OA 
HETATM   18  N   UNL     1     -10.884  11.382  66.676  1.00  0.00    -0.280 N  
HETATM   19  O   UNL     1     -10.600  10.616  65.757  1.00  0.00    -0.194 OA 
HETATM   20  O   UNL     1     -11.745  11.291  67.547  1.00  0.00    -0.574 OA 
ENDBRANCH  16  17
ENDBRANCH  11  16
ENDBRANCH   6  11
ENDBRANCH   5   6
ENDBRANCH   4   5
TORSDOF 7
ENDMDL
MODEL       16
REMARK 921   NORMALIZED FREE ENERGY PREDICTED BY IDOCK:   -5.47 KCAL/MOL
REMARK 922        TOTAL FREE ENERGY PREDICTED BY IDOCK:   -8.65 KCAL/MOL
REMARK 923 INTER-LIGAND FREE ENERGY PREDICTED BY IDOCK:   -7.98 KCAL/MOL
REMARK 924 INTRA-LIGAND FREE ENERGY PREDICTED BY IDOCK:   -0.67 KCAL/MOL
REMARK 927      BINDING AFFINITY PREDICTED BY RF-SCORE:    0.00 PKD
ROOT
HETATM    1  O   UNL     1     -12.783  10.524  69.632  1.00  0.00    -0.169 OA 
HETATM    2  N   UNL     1     -11.764  10.886  69.049  1.00  0.00    -0.316 N  
HETATM    3  O   UNL     1     -10.599  10.939  69.445  1.00  0.00    -0.220 OA 
HETATM    4  O   UNL     1     -12.011  11.294  67.712  1.00  0.00    -0.637 OA 
ENDROOT
BRANCH   4   5
HETATM    5  C   UNL     1     -10.828  11.740  67.048  1.00  0.00    -0.263 C  
BRANCH   5   6
HETATM    6  C   UNL     1     -11.218  12.758  65.946  1.00  0.00    -0.300 C  
BRANCH   6   7
HETATM    7  O   UNL     1     -12.467  12.462  65.298  1.00  0.00    -0.611 OA 
HETATM    8  O   UNL     1     -11.333  12.431  63.340  1.00  0.00    -0.452 OA 
HETATM    9  N   UNL     1     -12.419  12.281  63.894  1.00  0.00    -0.495 N  
HETATM   10  O   UNL     1     -13.501  11.949  63.420  1.00  0.00    -0.440 OA 
ENDBRANCH   6   7
BRANCH   6  11
HETATM   11  C   UNL     1     -11.120  14.242  66.394  1.00  0.00    -0.325 C  
BRANCH  11  12
HETATM   12  O   UNL     1     -11.902  15.038  65.497  1.00  0.00    -0.224 OA 
HETATM   13  O   UNL     1     -10.124  16.422  65.407  1.00  0.00    -0.543 OA 
HETATM   14  O   UNL     1     -11.633  16.371  63.763  1.00  0.00    -1.055 OA 
HETATM   15  N   UNL     1     -11.139  16.031  64.834  1.00  0.00    -0.421 N  
ENDBRANCH  11  12
BRANCH  11  16
HETATM   16  C   UNL     1     -11.557  14.465  67.857  1.00  0.00    -0.345 C  
BRANCH  16  17
HETATM   17  O   UNL     1     -11.584  15.853  68.185  1.00  0.00    -0.329 OA 
HETATM   18  N   UNL     1     -10.417  16.248  68.906  1.00  0.00    -0.254 N  
HETATM   19  O   UNL     1     -10.378  17.459  69.113  1.00  0.00    -0.342 OA 
HETATM   20  O   UNL     1      -9.634  15.361  69.234  1.00  0.00    -0.235 OA 
ENDBRANCH  16  17
ENDBRANCH  11  16
ENDBRANCH   6  11
ENDBRANCH   5   6
ENDBRANCH   4   5
TORSDOF 7
ENDMDL
MODEL       17
REMARK 921   NORMALIZED FREE ENERGY PREDICTED BY IDOCK:   -5.47 KCAL/MOL
REMARK 922        TOTAL FREE ENERGY PREDICTED BY IDOCK:   -8.65 KCAL/MOL
REMARK 923 INTER-LIGAND FREE ENERGY PREDICTED BY IDOCK:   -7.83 KCAL/MOL
REMARK 924 INTRA-LIGAND FREE ENERGY PREDICTED BY IDOCK:   -0.82 KCAL/MOL
REMARK 927      BINDING AFFINITY PREDICTED BY RF-SCORE:    0.00 PKD
ROOT
HETATM    1  O   UNL     1     -12.329  10.955  71.027  1.00  0.00    -0.347 OA 
HETATM    2  N   UNL     1     -12.332  12.147  70.734  1.00  0.00    -0.358 N  
HETATM    3  O   UNL     1     -12.664  13.129  71.400  1.00  0.00    -0.357 OA 
HETATM    4  O   UNL     1     -11.869  12.389  69.414  1.00  0.00    -0.301 OA 
ENDROOT
BRANCH   4   5
HETATM    5  C   UNL     1     -11.902  13.774  69.068  1.00  0.00    -0.357 C  
BRANCH   5   6
HETATM    6  C   UNL     1     -11.427  13.942  67.602  1.00  0.00    -0.324 C  
BRANCH   6   7
HETATM    7  O   UNL     1     -12.474  13.776  66.630  1.00  0.00    -0.386 OA 
HETATM    8  O   UNL     1     -11.128  12.290  65.578  1.00  0.00    -0.287 OA 
HETATM    9  N   UNL     1     -12.224  12.845  65.591  1.00  0.00    -0.463 N  
HETATM   10  O   UNL     1     -13.189  12.691  64.849  1.00  0.00    -0.819 OA 
ENDBRANCH   6   7
BRANCH   6  11
HETATM   11  C   UNL     1     -10.585  15.224  67.353  1.00  0.00    -0.282 C  
BRANCH  11  12
HETATM   12  O   UNL     1     -11.280  16.044  66.407  1.00  0.00    -0.057 OA 
HETATM   13  O   UNL     1      -9.245  16.564  65.585  1.00  0.00    -0.481 OA 
HETATM   14  O   UNL     1     -11.080  16.748  64.329  1.00  0.00    -1.106 OA 
HETATM   15  N   UNL     1     -10.449  16.486  65.348  1.00  0.00    -0.323 N  
ENDBRANCH  11  12
BRANCH  11  16
HETATM   16  C   UNL     1     -10.278  16.008  68.646  1.00  0.00    -0.231 C  
BRANCH  16  17
HETATM   17  O   UNL     1     -10.721  17.361  68.551  1.00  0.00    -0.348 OA 
HETATM   18  N   UNL     1      -9.625  18.273  68.494  1.00  0.00    -0.329 N  
HETATM   19  O   UNL     1      -9.986  19.434  68.315  1.00  0.00    -0.369 OA 
HETATM   20  O   UNL     1      -8.499  17.806  68.645  1.00  0.00    -0.298 OA 
ENDBRANCH  16  17
ENDBRANCH  11  16
ENDBRANCH   6  11
ENDBRANCH   5   6
ENDBRANCH   4   5
TORSDOF 7
ENDMDL
MODEL       18
REMARK 921   NORMALIZED FREE ENERGY PREDICTED BY IDOCK:   -5.46 KCAL/MOL
REMARK 922        TOTAL FREE ENERGY PREDICTED BY IDOCK:   -8.64 KCAL/MOL
REMARK 923 INTER-LIGAND FREE ENERGY PREDICTED BY IDOCK:   -7.83 KCAL/MOL
REMARK 924 INTRA-LIGAND FREE ENERGY PREDICTED BY IDOCK:   -0.81 KCAL/MOL
REMARK 927      BINDING AFFINITY PREDICTED BY RF-SCORE:    0.00 PKD
ROOT
HETATM    1  O   UNL     1     -12.686  13.979  63.487  1.00  0.00    -0.805 OA 
HETATM    2  N   UNL     1     -12.191  14.914  64.111  1.00  0.00    -0.392 N  
HETATM    3  O   UNL     1     -12.208  16.123  63.877  1.00  0.00    -0.935 OA 
HETATM    4  O   UNL     1     -11.506  14.491  65.281  1.00  0.00    -0.334 OA 
ENDROOT
BRANCH   4   5
HETATM    5  C   UNL     1     -10.909  15.579  65.988  1.00  0.00    -0.300 C  
BRANCH   5   6
HETATM    6  C   UNL     1     -10.846  15.228  67.497  1.00  0.00    -0.304 C  
BRANCH   6   7
HETATM    7  O   UNL     1      -9.978  14.123  67.800  1.00  0.00    -0.228 OA 
HETATM    8  O   UNL     1     -11.839  12.909  68.235  1.00  0.00    -0.329 OA 
HETATM    9  N   UNL     1     -10.612  12.909  68.165  1.00  0.00    -0.230 N  
HETATM   10  O   UNL     1      -9.818  11.988  68.327  1.00  0.00    -0.196 OA 
ENDBRANCH   6   7
BRANCH   6  11
HETATM   11  C   UNL     1     -10.590  16.452  68.419  1.00  0.00    -0.311 C  
BRANCH  11  12
HETATM   12  O   UNL     1     -11.280  17.582  67.873  1.00  0.00    -0.129 OA 
HETATM   13  O   UNL     1      -9.423  18.766  68.359  1.00  0.00    -0.317 OA 
HETATM   14  O   UNL     1     -10.849  19.448  66.783  1.00  0.00    -0.454 OA 
HETATM   15  N   UNL     1     -10.429  18.694  67.655  1.00  0.00    -0.410 N  
ENDBRANCH  11  12
BRANCH  11  16
HETATM   16  C   UNL     1     -11.005  16.205  69.884  1.00  0.00    -0.362 C  
BRANCH  16  17
HETATM   17  O   UNL     1     -12.351  15.741  69.971  1.00  0.00    -0.354 OA 
HETATM   18  N   UNL     1     -12.825  15.743  71.318  1.00  0.00    -0.480 N  
HETATM   19  O   UNL     1     -14.013  15.437  71.400  1.00  0.00    -0.504 OA 
HETATM   20  O   UNL     1     -12.013  16.020  72.197  1.00  0.00    -0.454 OA 
ENDBRANCH  16  17
ENDBRANCH  11  16
ENDBRANCH   6  11
ENDBRANCH   5   6
ENDBRANCH   4   5
TORSDOF 7
ENDMDL
MODEL       19
REMARK 921   NORMALIZED FREE ENERGY PREDICTED BY IDOCK:   -5.46 KCAL/MOL
REMARK 922        TOTAL FREE ENERGY PREDICTED BY IDOCK:   -8.63 KCAL/MOL
REMARK 923 INTER-LIGAND FREE ENERGY PREDICTED BY IDOCK:   -7.80 KCAL/MOL
REMARK 924 INTRA-LIGAND FREE ENERGY PREDICTED BY IDOCK:   -0.83 KCAL/MOL
REMARK 927      BINDING AFFINITY PREDICTED BY RF-SCORE:    0.00 PKD
ROOT
HETATM    1  O   UNL     1     -10.863  18.428  65.251  1.00  0.00    -0.624 OA 
HETATM    2  N   UNL     1     -10.871  17.265  64.857  1.00  0.00     0.038 N  
HETATM    3  O   UNL     1     -11.529  16.733  63.962  1.00  0.00    -1.198 OA 
HETATM    4  O   UNL     1      -9.962  16.438  65.569  1.00  0.00    -0.518 OA 
ENDROOT
BRANCH   4   5
HETATM    5  C   UNL     1      -9.996  15.081  65.127  1.00  0.00    -0.234 C  
BRANCH   5   6
HETATM    6  C   UNL     1     -10.869  14.251  66.103  1.00  0.00    -0.310 C  
BRANCH   6   7
HETATM    7  O   UNL     1     -11.450  13.078  65.508  1.00  0.00    -0.305 OA 
HETATM    8  O   UNL     1     -13.341  14.286  65.209  1.00  0.00    -0.660 OA 
HETATM    9  N   UNL     1     -12.779  13.206  65.036  1.00  0.00    -0.437 N  
HETATM   10  O   UNL     1     -13.181  12.196  64.467  1.00  0.00    -0.724 OA 
ENDBRANCH   6   7
BRANCH   6  11
HETATM   11  C   UNL     1     -10.181  13.948  67.463  1.00  0.00    -0.245 C  
BRANCH  11  12
HETATM   12  O   UNL     1     -10.971  14.525  68.508  1.00  0.00    -0.234 OA 
HETATM   13  O   UNL     1      -9.036  15.366  69.305  1.00  0.00    -0.231 OA 
HETATM   14  O   UNL     1     -10.999  16.307  69.804  1.00  0.00    -0.322 OA 
HETATM   15  N   UNL     1     -10.260  15.486  69.268  1.00  0.00    -0.235 N  
ENDBRANCH  11  12
BRANCH  11  16
HETATM   16  C   UNL     1      -9.957  12.440  67.706  1.00  0.00    -0.205 C  
BRANCH  16  17
HETATM   17  O   UNL     1     -10.425  12.048  68.995  1.00  0.00    -0.166 OA 
HETATM   18  N   UNL     1     -11.618  11.269  68.910  1.00  0.00    -0.290 N  
HETATM   19  O   UNL     1     -11.982  10.842  70.003  1.00  0.00    -0.292 OA 
HETATM   20  O   UNL     1     -12.125  11.142  67.799  1.00  0.00    -0.606 OA 
ENDBRANCH  16  17
ENDBRANCH  11  16
ENDBRANCH   6  11
ENDBRANCH   5   6
ENDBRANCH   4   5
TORSDOF 7
ENDMDL
MODEL       20
REMARK 921   NORMALIZED FREE ENERGY PREDICTED BY IDOCK:   -5.46 KCAL/MOL
REMARK 922        TOTAL FREE ENERGY PREDICTED BY IDOCK:   -8.63 KCAL/MOL
REMARK 923 INTER-LIGAND FREE ENERGY PREDICTED BY IDOCK:   -7.70 KCAL/MOL
REMARK 924 INTRA-LIGAND FREE ENERGY PREDICTED BY IDOCK:   -0.92 KCAL/MOL
REMARK 927      BINDING AFFINITY PREDICTED BY RF-SCORE:    0.00 PKD
ROOT
HETATM    1  O   UNL     1     -13.801  13.629  72.610  1.00  0.00    -0.715 OA 
HETATM    2  N   UNL     1     -13.252  12.912  71.778  1.00  0.00    -0.419 N  
HETATM    3  O   UNL     1     -13.078  11.692  71.770  1.00  0.00    -0.465 OA 
HETATM    4  O   UNL     1     -12.759  13.641  70.664  1.00  0.00    -0.298 OA 
ENDROOT
BRANCH   4   5
HETATM    5  C   UNL     1     -12.097  12.806  69.713  1.00  0.00    -0.237 C  
BRANCH   5   6
HETATM    6  C   UNL     1     -11.579  13.681  68.543  1.00  0.00    -0.335 C  
BRANCH   6   7
HETATM    7  O   UNL     1     -10.338  14.351  68.824  1.00  0.00    -0.234 OA 
HETATM    8  O   UNL     1     -11.467  16.306  68.654  1.00  0.00    -0.367 OA 
HETATM    9  N   UNL     1     -10.387  15.765  68.885  1.00  0.00    -0.214 N  
HETATM   10  O   UNL     1      -9.315  16.265  69.211  1.00  0.00    -0.251 OA 
ENDBRANCH   6   7
BRANCH   6  11
HETATM   11  C   UNL     1     -11.564  12.955  67.170  1.00  0.00    -0.363 C  
BRANCH  11  12
HETATM   12  O   UNL     1     -12.000  11.606  67.366  1.00  0.00    -0.621 OA 
HETATM   13  O   UNL     1     -10.120  10.994  66.281  1.00  0.00    -0.219 OA 
HETATM   14  O   UNL     1     -11.155   9.595  67.680  1.00  0.00    -0.214 OA 
HETATM   15  N   UNL     1     -10.991  10.653  67.080  1.00  0.00    -0.276 N  
ENDBRANCH  11  12
BRANCH  11  16
HETATM   16  C   UNL     1     -12.420  13.664  66.099  1.00  0.00    -0.395 C  
BRANCH  16  17
HETATM   17  O   UNL     1     -13.062  12.722  65.241  1.00  0.00    -0.658 OA 
HETATM   18  N   UNL     1     -12.408  12.628  63.976  1.00  0.00    -0.437 N  
HETATM   19  O   UNL     1     -12.889  11.752  63.260  1.00  0.00    -0.627 OA 
HETATM   20  O   UNL     1     -11.491  13.416  63.759  1.00  0.00    -0.358 OA 
ENDBRANCH  16  17
ENDBRANCH  11  16
ENDBRANCH   6  11
ENDBRANCH   5   6
ENDBRANCH   4   5
TORSDOF 7
ENDMDL
MODEL       21
REMARK 921   NORMALIZED FREE ENERGY PREDICTED BY IDOCK:   -5.45 KCAL/MOL
REMARK 922        TOTAL FREE ENERGY PREDICTED BY IDOCK:   -8.62 KCAL/MOL
REMARK 923 INTER-LIGAND FREE ENERGY PREDICTED BY IDOCK:   -7.78 KCAL/MOL
REMARK 924 INTRA-LIGAND FREE ENERGY PREDICTED BY IDOCK:   -0.83 KCAL/MOL
REMARK 927      BINDING AFFINITY PREDICTED BY RF-SCORE:    0.00 PKD
ROOT
HETATM    1  O   UNL     1     -12.063  16.323  72.345  1.00  0.00    -0.510 OA 
HETATM    2  N   UNL     1     -12.543  15.891  71.300  1.00  0.00    -0.434 N  
HETATM    3  O   UNL     1     -13.716  15.663  70.998  1.00  0.00    -0.582 OA 
HETATM    4  O   UNL     1     -11.559  15.630  70.311  1.00  0.00    -0.297 OA 
ENDROOT
BRANCH   4   5
HETATM    5  C   UNL     1     -12.119  15.101  69.108  1.00  0.00    -0.224 C  
BRANCH   5   6
HETATM    6  C   UNL     1     -11.147  15.376  67.933  1.00  0.00    -0.323 C  
BRANCH   6   7
HETATM    7  O   UNL     1      -9.758  15.297  68.297  1.00  0.00    -0.205 OA 
HETATM    8  O   UNL     1      -9.667  17.546  68.053  1.00  0.00    -0.268 OA 
HETATM    9  N   UNL     1      -9.054  16.525  68.356  1.00  0.00    -0.215 N  
HETATM   10  O   UNL     1      -7.900  16.393  68.754  1.00  0.00    -0.195 OA 
ENDBRANCH   6   7
BRANCH   6  11
HETATM   11  C   UNL     1     -11.468  14.568  66.645  1.00  0.00    -0.366 C  
BRANCH  11  12
HETATM   12  O   UNL     1     -10.967  15.295  65.518  1.00  0.00    -0.336 OA 
HETATM   13  O   UNL     1     -12.763  14.512  64.400  1.00  0.00    -0.655 OA 
HETATM   14  O   UNL     1     -11.713  16.370  63.745  1.00  0.00    -1.049 OA 
HETATM   15  N   UNL     1     -11.909  15.395  64.465  1.00  0.00    -0.332 N  
ENDBRANCH  11  12
BRANCH  11  16
HETATM   16  C   UNL     1     -10.905  13.132  66.674  1.00  0.00    -0.280 C  
BRANCH  16  17
HETATM   17  O   UNL     1     -11.879  12.201  67.142  1.00  0.00    -0.543 OA 
HETATM   18  N   UNL     1     -11.503  11.626  68.393  1.00  0.00    -0.270 N  
HETATM   19  O   UNL     1     -12.375  10.894  68.857  1.00  0.00    -0.486 OA 
HETATM   20  O   UNL     1     -10.389  11.907  68.826  1.00  0.00    -0.212 OA 
ENDBRANCH  16  17
ENDBRANCH  11  16
ENDBRANCH   6  11
ENDBRANCH   5   6
ENDBRANCH   4   5
TORSDOF 7
ENDMDL
MODEL       22
REMARK 921   NORMALIZED FREE ENERGY PREDICTED BY IDOCK:   -5.43 KCAL/MOL
REMARK 922        TOTAL FREE ENERGY PREDICTED BY IDOCK:   -8.59 KCAL/MOL
REMARK 923 INTER-LIGAND FREE ENERGY PREDICTED BY IDOCK:   -7.88 KCAL/MOL
REMARK 924 INTRA-LIGAND FREE ENERGY PREDICTED BY IDOCK:   -0.71 KCAL/MOL
REMARK 927      BINDING AFFINITY PREDICTED BY RF-SCORE:    0.00 PKD
ROOT
HETATM    1  O   UNL     1     -13.135  10.384  71.836  1.00  0.00    -0.441 OA 
HETATM    2  N   UNL     1     -12.490  10.813  70.883  1.00  0.00    -0.367 N  
HETATM    3  O   UNL     1     -11.889  10.210  69.993  1.00  0.00    -0.240 OA 
HETATM    4  O   UNL     1     -12.459  12.232  70.836  1.00  0.00    -0.371 OA 
ENDROOT
BRANCH   4   5
HETATM    5  C   UNL     1     -11.685  12.726  69.743  1.00  0.00    -0.282 C  
BRANCH   5   6
HETATM    6  C   UNL     1     -12.004  14.228  69.533  1.00  0.00    -0.336 C  
BRANCH   6   7
HETATM    7  O   UNL     1     -11.536  15.076  70.596  1.00  0.00    -0.276 OA 
HETATM    8  O   UNL     1     -13.701  15.603  70.998  1.00  0.00    -0.582 OA 
HETATM    9  N   UNL     1     -12.530  15.755  71.342  1.00  0.00    -0.438 N  
HETATM   10  O   UNL     1     -12.067  16.392  72.283  1.00  0.00    -0.501 OA 
ENDBRANCH   6   7
BRANCH   6  11
HETATM   11  C   UNL     1     -11.613  14.767  68.129  1.00  0.00    -0.332 C  
BRANCH  11  12
HETATM   12  O   UNL     1     -10.190  14.912  68.081  1.00  0.00    -0.221 OA 
HETATM   13  O   UNL     1     -10.574  16.958  67.214  1.00  0.00    -0.320 OA 
HETATM   14  O   UNL     1      -8.654  16.484  68.249  1.00  0.00    -0.188 OA 
HETATM   15  N   UNL     1      -9.780  16.244  67.824  1.00  0.00    -0.232 N  
ENDBRANCH  11  12
BRANCH  11  16
HETATM   16  C   UNL     1     -12.119  13.876  66.975  1.00  0.00    -0.415 C  
BRANCH  16  17
HETATM   17  O   UNL     1     -11.972  14.528  65.714  1.00  0.00    -0.360 OA 
HETATM   18  N   UNL     1     -12.527  13.754  64.651  1.00  0.00    -0.350 N  
HETATM   19  O   UNL     1     -12.494  14.341  63.572  1.00  0.00    -0.798 OA 
HETATM   20  O   UNL     1     -12.936  12.630  64.931  1.00  0.00    -0.830 OA 
ENDBRANCH  16  17
ENDBRANCH  11  16
ENDBRANCH   6  11
ENDBRANCH   5   6
ENDBRANCH   4   5
TORSDOF 7
ENDMDL
MODEL       23
REMARK 921   NORMALIZED FREE ENERGY PREDICTED BY IDOCK:   -5.43 KCAL/MOL
REMARK 922        TOTAL FREE ENERGY PREDICTED BY IDOCK:   -8.59 KCAL/MOL
REMARK 923 INTER-LIGAND FREE ENERGY PREDICTED BY IDOCK:   -8.17 KCAL/MOL
REMARK 924 INTRA-LIGAND FREE ENERGY PREDICTED BY IDOCK:   -0.42 KCAL/MOL
REMARK 927      BINDING AFFINITY PREDICTED BY RF-SCORE:    0.00 PKD
ROOT
HETATM    1  O   UNL     1     -14.287  15.581  71.563  1.00  0.00    -0.497 OA 
HETATM    2  N   UNL     1     -13.091  15.783  71.369  1.00  0.00    -0.474 N  
HETATM    3  O   UNL     1     -12.238  16.278  72.108  1.00  0.00    -0.476 OA 
HETATM    4  O   UNL     1     -12.664  15.361  70.083  1.00  0.00    -0.335 OA 
ENDROOT
BRANCH   4   5
HETATM    5  C   UNL     1     -11.279  15.624  69.852  1.00  0.00    -0.331 C  
BRANCH   5   6
HETATM    6  C   UNL     1     -10.873  15.033  68.478  1.00  0.00    -0.250 C  
BRANCH   6   7
HETATM    7  O   UNL     1     -11.789  14.043  67.978  1.00  0.00    -0.338 OA 
HETATM    8  O   UNL     1     -10.269  12.475  68.576  1.00  0.00    -0.228 OA 
HETATM    9  N   UNL     1     -11.381  12.692  68.098  1.00  0.00    -0.268 N  
HETATM   10  O   UNL     1     -12.243  11.900  67.730  1.00  0.00    -0.508 OA 
ENDBRANCH   6   7
BRANCH   6  11
HETATM   11  C   UNL     1     -10.517  16.104  67.411  1.00  0.00    -0.310 C  
BRANCH  11  12
HETATM   12  O   UNL     1      -9.532  16.983  67.964  1.00  0.00    -0.245 OA 
HETATM   13  O   UNL     1     -10.678  18.653  66.971  1.00  0.00    -0.408 OA 
HETATM   14  O   UNL     1      -9.359  19.042  68.729  1.00  0.00    -0.355 OA 
HETATM   15  N   UNL     1      -9.901  18.349  67.875  1.00  0.00    -0.315 N  
ENDBRANCH  11  12
BRANCH  11  16
HETATM   16  C   UNL     1     -10.030  15.495  66.079  1.00  0.00    -0.330 C  
BRANCH  16  17
HETATM   17  O   UNL     1     -11.093  14.843  65.387  1.00  0.00    -0.333 OA 
HETATM   18  N   UNL     1     -11.641  15.669  64.360  1.00  0.00    -0.338 N  
HETATM   19  O   UNL     1     -12.494  15.089  63.692  1.00  0.00    -0.667 OA 
HETATM   20  O   UNL     1     -11.223  16.822  64.287  1.00  0.00    -1.163 OA 
ENDBRANCH  16  17
ENDBRANCH  11  16
ENDBRANCH   6  11
ENDBRANCH   5   6
ENDBRANCH   4   5
TORSDOF 7
ENDMDL
MODEL       24
REMARK 921   NORMALIZED FREE ENERGY PREDICTED BY IDOCK:   -5.43 KCAL/MOL
REMARK 922        TOTAL FREE ENERGY PREDICTED BY IDOCK:   -8.59 KCAL/MOL
REMARK 923 INTER-LIGAND FREE ENERGY PREDICTED BY IDOCK:   -7.73 KCAL/MOL
REMARK 924 INTRA-LIGAND FREE ENERGY PREDICTED BY IDOCK:   -0.86 KCAL/MOL
REMARK 927      BINDING AFFINITY PREDICTED BY RF-SCORE:    0.00 PKD
ROOT
HETATM    1  O   UNL     1     -12.328  14.064  71.081  1.00  0.00    -0.338 OA 
HETATM    2  N   UNL     1     -12.173  14.586  69.979  1.00  0.00    -0.329 N  
HETATM    3  O   UNL     1     -12.046  15.772  69.672  1.00  0.00    -0.355 OA 
HETATM    4  O   UNL     1     -12.137  13.638  68.923  1.00  0.00    -0.347 OA 
ENDROOT
BRANCH   4   5
HETATM    5  C   UNL     1     -11.985  14.251  67.643  1.00  0.00    -0.365 C  
BRANCH   5   6
HETATM    6  C   UNL     1     -11.485  13.190  66.629  1.00  0.00    -0.348 C  
BRANCH   6   7
HETATM    7  O   UNL     1     -11.803  11.838  66.999  1.00  0.00    -0.599 OA 
HETATM    8  O   UNL     1      -9.576  11.465  67.169  1.00  0.00    -0.177 OA 
HETATM    9  N   UNL     1     -10.704  10.993  67.294  1.00  0.00    -0.249 N  
HETATM   10  O   UNL     1     -11.049   9.882  67.683  1.00  0.00    -0.267 OA 
ENDBRANCH   6   7
BRANCH   6  11
HETATM   11  C   UNL     1     -11.857  13.503  65.153  1.00  0.00    -0.343 C  
BRANCH  11  12
HETATM   12  O   UNL     1     -11.021  14.570  64.692  1.00  0.00    -0.382 OA 
HETATM   13  O   UNL     1     -12.887  15.441  63.773  1.00  0.00    -0.524 OA 
HETATM   14  O   UNL     1     -11.132  16.729  64.266  1.00  0.00    -1.106 OA 
HETATM   15  N   UNL     1     -11.759  15.676  64.202  1.00  0.00    -0.225 N  
ENDBRANCH  11  12
BRANCH  11  16
HETATM   16  C   UNL     1     -11.749  12.274  64.226  1.00  0.00    -0.381 C  
BRANCH  16  17
HETATM   17  O   UNL     1     -10.629  12.383  63.349  1.00  0.00    -0.436 OA 
HETATM   18  N   UNL     1      -9.819  11.208  63.378  1.00  0.00    -0.323 N  
HETATM   19  O   UNL     1      -8.904  11.245  62.559  1.00  0.00    -0.312 OA 
HETATM   20  O   UNL     1     -10.114  10.345  64.201  1.00  0.00    -0.322 OA 
ENDBRANCH  16  17
ENDBRANCH  11  16
ENDBRANCH   6  11
ENDBRANCH   5   6
ENDBRANCH   4   5
TORSDOF 7
ENDMDL
MODEL       25
REMARK 921   NORMALIZED FREE ENERGY PREDICTED BY IDOCK:   -5.41 KCAL/MOL
REMARK 922        TOTAL FREE ENERGY PREDICTED BY IDOCK:   -8.57 KCAL/MOL
REMARK 923 INTER-LIGAND FREE ENERGY PREDICTED BY IDOCK:   -7.58 KCAL/MOL
REMARK 924 INTRA-LIGAND FREE ENERGY PREDICTED BY IDOCK:   -0.99 KCAL/MOL
REMARK 927      BINDING AFFINITY PREDICTED BY RF-SCORE:    0.00 PKD
ROOT
HETATM    1  O   UNL     1     -12.429  11.593  63.189  1.00  0.00    -0.427 OA 
HETATM    2  N   UNL     1     -12.645  12.712  63.647  1.00  0.00    -0.384 N  
HETATM    3  O   UNL     1     -12.650  13.811  63.092  1.00  0.00    -0.793 OA 
HETATM    4  O   UNL     1     -12.935  12.689  65.037  1.00  0.00    -0.812 OA 
ENDROOT
BRANCH   4   5
HETATM    5  C   UNL     1     -13.158  13.994  65.571  1.00  0.00    -0.178 C  
BRANCH   5   6
HETATM    6  C   UNL     1     -12.036  14.324  66.589  1.00  0.00    -0.420 C  
BRANCH   6   7
HETATM    7  O   UNL     1     -11.937  13.381  67.670  1.00  0.00    -0.348 OA 
HETATM    8  O   UNL     1     -12.046  15.142  69.088  1.00  0.00    -0.290 OA 
HETATM    9  N   UNL     1     -11.976  13.920  68.979  1.00  0.00    -0.353 N  
HETATM   10  O   UNL     1     -11.973  13.055  69.850  1.00  0.00    -0.320 OA 
ENDBRANCH   6   7
BRANCH   6  11
HETATM   11  C   UNL     1     -10.659  14.624  65.936  1.00  0.00    -0.311 C  
BRANCH  11  12
HETATM   12  O   UNL     1     -10.142  15.831  66.506  1.00  0.00    -0.260 OA 
HETATM   13  O   UNL     1     -10.929  16.864  64.661  1.00  0.00    -0.894 OA 
HETATM   14  O   UNL     1     -10.588  17.989  66.559  1.00  0.00    -0.337 OA 
HETATM   15  N   UNL     1     -10.602  16.995  65.840  1.00  0.00    -0.282 N  
ENDBRANCH  11  12
BRANCH  11  16
HETATM   16  C   UNL     1      -9.651  13.464  66.087  1.00  0.00    -0.202 C  
BRANCH  16  17
HETATM   17  O   UNL     1      -9.944  12.401  65.182  1.00  0.00    -0.259 OA 
HETATM   18  N   UNL     1      -9.851  11.126  65.816  1.00  0.00    -0.224 N  
HETATM   19  O   UNL     1     -10.193  10.205  65.078  1.00  0.00    -0.309 OA 
HETATM   20  O   UNL     1      -9.437  11.105  66.973  1.00  0.00    -0.174 OA 
ENDBRANCH  16  17
ENDBRANCH  11  16
ENDBRANCH   6  11
ENDBRANCH   5   6
ENDBRANCH   4   5
TORSDOF 7
ENDMDL
MODEL       26
REMARK 921   NORMALIZED FREE ENERGY PREDICTED BY IDOCK:   -5.41 KCAL/MOL
REMARK 922        TOTAL FREE ENERGY PREDICTED BY IDOCK:   -8.56 KCAL/MOL
REMARK 923 INTER-LIGAND FREE ENERGY PREDICTED BY IDOCK:   -7.75 KCAL/MOL
REMARK 924 INTRA-LIGAND FREE ENERGY PREDICTED BY IDOCK:   -0.81 KCAL/MOL
REMARK 927      BINDING AFFINITY PREDICTED BY RF-SCORE:    0.00 PKD
ROOT
HETATM    1  O   UNL     1     -12.352  11.594  63.319  1.00  0.00    -0.452 OA 
HETATM    2  N   UNL     1     -12.500  12.686  63.861  1.00  0.00    -0.418 N  
HETATM    3  O   UNL     1     -12.514  13.818  63.378  1.00  0.00    -0.817 OA 
HETATM    4  O   UNL     1     -12.687  12.580  65.265  1.00  0.00    -0.654 OA 
ENDROOT
BRANCH   4   5
HETATM    5  C   UNL     1     -12.831  13.853  65.894  1.00  0.00    -0.339 C  
BRANCH   5   6
HETATM    6  C   UNL     1     -11.587  14.126  66.778  1.00  0.00    -0.391 C  
BRANCH   6   7
HETATM    7  O   UNL     1     -11.100  15.476  66.694  1.00  0.00    -0.293 OA 
HETATM    8  O   UNL     1      -9.817  14.803  64.955  1.00  0.00    -0.200 OA 
HETATM    9  N   UNL     1     -10.167  15.745  65.663  1.00  0.00    -0.355 N  
HETATM   10  O   UNL     1      -9.859  16.931  65.596  1.00  0.00    -0.549 OA 
ENDBRANCH   6   7
BRANCH   6  11
HETATM   11  C   UNL     1     -11.736  13.639  68.246  1.00  0.00    -0.363 C  
BRANCH  11  12
HETATM   12  O   UNL     1     -10.643  12.764  68.545  1.00  0.00    -0.244 OA 
HETATM   13  O   UNL     1     -12.202  11.165  68.859  1.00  0.00    -0.522 OA 
HETATM   14  O   UNL     1     -10.092  10.639  68.354  1.00  0.00    -0.156 OA 
HETATM   15  N   UNL     1     -11.026  11.400  68.586  1.00  0.00    -0.203 N  
ENDBRANCH  11  12
BRANCH  11  16
HETATM   16  C   UNL     1     -11.813  14.797  69.264  1.00  0.00    -0.318 C  
BRANCH  16  17
HETATM   17  O   UNL     1     -11.835  14.308  70.604  1.00  0.00    -0.300 OA 
HETATM   18  N   UNL     1     -12.987  14.764  71.313  1.00  0.00    -0.324 N  
HETATM   19  O   UNL     1     -13.072  14.276  72.438  1.00  0.00    -0.373 OA 
HETATM   20  O   UNL     1     -13.713  15.572  70.741  1.00  0.00    -0.475 OA 
ENDBRANCH  16  17
ENDBRANCH  11  16
ENDBRANCH   6  11
ENDBRANCH   5   6
ENDBRANCH   4   5
TORSDOF 7
ENDMDL
MODEL       27
REMARK 921   NORMALIZED FREE ENERGY PREDICTED BY IDOCK:   -5.40 KCAL/MOL
REMARK 922        TOTAL FREE ENERGY PREDICTED BY IDOCK:   -8.55 KCAL/MOL
REMARK 923 INTER-LIGAND FREE ENERGY PREDICTED BY IDOCK:   -7.71 KCAL/MOL
REMARK 924 INTRA-LIGAND FREE ENERGY PREDICTED BY IDOCK:   -0.84 KCAL/MOL
REMARK 927      BINDING AFFINITY PREDICTED BY RF-SCORE:    0.00 PKD
ROOT
HETATM    1  O   UNL     1      -8.418  16.912  65.794  1.00  0.00    -0.492 OA 
HETATM    2  N   UNL     1      -9.599  16.870  66.131  1.00  0.00    -0.272 N  
HETATM    3  O   UNL     1     -10.593  17.373  65.606  1.00  0.00    -0.534 OA 
HETATM    4  O   UNL     1      -9.807  16.110  67.312  1.00  0.00    -0.235 OA 
ENDROOT
BRANCH   4   5
HETATM    5  C   UNL     1     -11.177  16.088  67.714  1.00  0.00    -0.231 C  
BRANCH   5   6
HETATM    6  C   UNL     1     -11.779  14.698  67.385  1.00  0.00    -0.390 C  
BRANCH   6   7
HETATM    7  O   UNL     1     -11.114  14.016  66.308  1.00  0.00    -0.301 OA 
HETATM    8  O   UNL     1     -13.114  13.944  65.249  1.00  0.00    -0.777 OA 
HETATM    9  N   UNL     1     -11.916  13.674  65.191  1.00  0.00    -0.353 N  
HETATM   10  O   UNL     1     -11.270  13.173  64.276  1.00  0.00    -0.355 OA 
ENDBRANCH   6   7
BRANCH   6  11
HETATM   11  C   UNL     1     -11.980  13.787  68.628  1.00  0.00    -0.366 C  
BRANCH  11  12
HETATM   12  O   UNL     1     -10.866  12.891  68.716  1.00  0.00    -0.249 OA 
HETATM   13  O   UNL     1     -12.391  11.229  68.696  1.00  0.00    -0.534 OA 
HETATM   14  O   UNL     1     -10.281  10.869  68.063  1.00  0.00    -0.170 OA 
HETATM   15  N   UNL     1     -11.224  11.542  68.467  1.00  0.00    -0.233 N  
ENDBRANCH  11  12
BRANCH  11  16
HETATM   16  C   UNL     1     -12.157  14.580  69.940  1.00  0.00    -0.336 C  
BRANCH  16  17
HETATM   17  O   UNL     1     -12.371  13.709  71.048  1.00  0.00    -0.356 OA 
HETATM   18  N   UNL     1     -13.602  13.992  71.714  1.00  0.00    -0.378 N  
HETATM   19  O   UNL     1     -13.849  13.190  72.612  1.00  0.00    -0.691 OA 
HETATM   20  O   UNL     1     -14.230  14.977  71.334  1.00  0.00    -0.461 OA 
ENDBRANCH  16  17
ENDBRANCH  11  16
ENDBRANCH   6  11
ENDBRANCH   5   6
ENDBRANCH   4   5
TORSDOF 7
ENDMDL
MODEL       28
REMARK 921   NORMALIZED FREE ENERGY PREDICTED BY IDOCK:   -5.40 KCAL/MOL
REMARK 922        TOTAL FREE ENERGY PREDICTED BY IDOCK:   -8.55 KCAL/MOL
REMARK 923 INTER-LIGAND FREE ENERGY PREDICTED BY IDOCK:   -7.68 KCAL/MOL
REMARK 924 INTRA-LIGAND FREE ENERGY PREDICTED BY IDOCK:   -0.87 KCAL/MOL
REMARK 927      BINDING AFFINITY PREDICTED BY RF-SCORE:    0.00 PKD
ROOT
HETATM    1  O   UNL     1     -13.232  12.004  64.259  1.00  0.00    -0.710 OA 
HETATM    2  N   UNL     1     -12.834  12.961  64.917  1.00  0.00    -0.405 N  
HETATM    3  O   UNL     1     -12.777  14.157  64.626  1.00  0.00    -0.656 OA 
HETATM    4  O   UNL     1     -12.382  12.589  66.211  1.00  0.00    -0.570 OA 
ENDROOT
BRANCH   4   5
HETATM    5  C   UNL     1     -11.895  13.702  66.961  1.00  0.00    -0.408 C  
BRANCH   5   6
HETATM    6  C   UNL     1     -11.854  13.321  68.463  1.00  0.00    -0.349 C  
BRANCH   6   7
HETATM    7  O   UNL     1     -10.795  12.409  68.803  1.00  0.00    -0.228 OA 
HETATM    8  O   UNL     1     -12.387  11.014  69.605  1.00  0.00    -0.321 OA 
HETATM    9  N   UNL     1     -11.188  11.183  69.393  1.00  0.00    -0.249 N  
HETATM   10  O   UNL     1     -10.245  10.420  69.578  1.00  0.00    -0.227 OA 
ENDBRANCH   6   7
BRANCH   6  11
HETATM   11  C   UNL     1     -11.917  14.540  69.425  1.00  0.00    -0.322 C  
BRANCH  11  12
HETATM   12  O   UNL     1     -12.172  14.058  70.749  1.00  0.00    -0.329 OA 
HETATM   13  O   UNL     1     -13.816  15.600  70.836  1.00  0.00    -0.516 OA 
HETATM   14  O   UNL     1     -13.856  13.793  72.145  1.00  0.00    -0.472 OA 
HETATM   15  N   UNL     1     -13.397  14.533  71.282  1.00  0.00    -0.358 N  
ENDBRANCH  11  12
BRANCH  11  16
HETATM   16  C   UNL     1     -10.642  15.409  69.388  1.00  0.00    -0.251 C  
BRANCH  16  17
HETATM   17  O   UNL     1     -10.958  16.783  69.167  1.00  0.00    -0.301 OA 
HETATM   18  N   UNL     1     -10.452  17.246  67.915  1.00  0.00    -0.367 N  
HETATM   19  O   UNL     1     -10.796  18.399  67.664  1.00  0.00    -0.406 OA 
HETATM   20  O   UNL     1      -9.746  16.471  67.275  1.00  0.00    -0.240 OA 
ENDBRANCH  16  17
ENDBRANCH  11  16
ENDBRANCH   6  11
ENDBRANCH   5   6
ENDBRANCH   4   5
TORSDOF 7
ENDMDL
MODEL       29
REMARK 921   NORMALIZED FREE ENERGY PREDICTED BY IDOCK:   -5.39 KCAL/MOL
REMARK 922        TOTAL FREE ENERGY PREDICTED BY IDOCK:   -8.54 KCAL/MOL
REMARK 923 INTER-LIGAND FREE ENERGY PREDICTED BY IDOCK:   -7.52 KCAL/MOL
REMARK 924 INTRA-LIGAND FREE ENERGY PREDICTED BY IDOCK:   -1.01 KCAL/MOL
REMARK 927      BINDING AFFINITY PREDICTED BY RF-SCORE:    0.00 PKD
ROOT
HETATM    1  O   UNL     1     -11.354  12.288  63.119  1.00  0.00    -0.366 OA 
HETATM    2  N   UNL     1     -12.127  12.642  64.005  1.00  0.00    -0.424 N  
HETATM    3  O   UNL     1     -13.272  12.264  64.259  1.00  0.00    -0.785 OA 
HETATM    4  O   UNL     1     -11.575  13.642  64.849  1.00  0.00    -0.323 OA 
ENDROOT
BRANCH   4   5
HETATM    5  C   UNL     1     -12.487  14.069  65.860  1.00  0.00    -0.481 C  
BRANCH   5   6
HETATM    6  C   UNL     1     -11.963  13.609  67.244  1.00  0.00    -0.381 C  
BRANCH   6   7
HETATM    7  O   UNL     1     -10.869  12.678  67.171  1.00  0.00    -0.244 OA 
HETATM    8  O   UNL     1     -12.202  11.180  68.223  1.00  0.00    -0.613 OA 
HETATM    9  N   UNL     1     -11.106  11.388  67.705  1.00  0.00    -0.248 N  
HETATM   10  O   UNL     1     -10.163  10.621  67.533  1.00  0.00    -0.183 OA 
ENDBRANCH   6   7
BRANCH   6  11
HETATM   11  C   UNL     1     -11.683  14.774  68.233  1.00  0.00    -0.311 C  
BRANCH  11  12
HETATM   12  O   UNL     1     -11.487  14.222  69.539  1.00  0.00    -0.261 OA 
HETATM   13  O   UNL     1     -12.903  15.820  70.267  1.00  0.00    -0.348 OA 
HETATM   14  O   UNL     1     -12.590  13.938  71.426  1.00  0.00    -0.344 OA 
HETATM   15  N   UNL     1     -12.418  14.711  70.489  1.00  0.00    -0.329 N  
ENDBRANCH  11  12
BRANCH  11  16
HETATM   16  C   UNL     1     -10.482  15.649  67.816  1.00  0.00    -0.273 C  
BRANCH  16  17
HETATM   17  O   UNL     1     -10.913  16.872  67.222  1.00  0.00    -0.188 OA 
HETATM   18  N   UNL     1     -10.333  17.067  65.932  1.00  0.00    -0.340 N  
HETATM   19  O   UNL     1     -10.767  18.068  65.366  1.00  0.00    -0.632 OA 
HETATM   20  O   UNL     1      -9.490  16.251  65.568  1.00  0.00    -0.451 OA 
ENDBRANCH  16  17
ENDBRANCH  11  16
ENDBRANCH   6  11
ENDBRANCH   5   6
ENDBRANCH   4   5
TORSDOF 7
ENDMDL
MODEL       30
REMARK 921   NORMALIZED FREE ENERGY PREDICTED BY IDOCK:   -5.35 KCAL/MOL
REMARK 922        TOTAL FREE ENERGY PREDICTED BY IDOCK:   -8.48 KCAL/MOL
REMARK 923 INTER-LIGAND FREE ENERGY PREDICTED BY IDOCK:   -7.57 KCAL/MOL
REMARK 924 INTRA-LIGAND FREE ENERGY PREDICTED BY IDOCK:   -0.91 KCAL/MOL
REMARK 927      BINDING AFFINITY PREDICTED BY RF-SCORE:    0.00 PKD
ROOT
HETATM    1  O   UNL     1     -12.036  16.587  72.630  1.00  0.00    -0.502 OA 
HETATM    2  N   UNL     1     -12.528  16.055  71.639  1.00  0.00    -0.443 N  
HETATM    3  O   UNL     1     -13.692  15.723  71.410  1.00  0.00    -0.531 OA 
HETATM    4  O   UNL     1     -11.573  15.804  70.619  1.00  0.00    -0.325 OA 
ENDROOT
BRANCH   4   5
HETATM    5  C   UNL     1     -12.145  15.160  69.480  1.00  0.00    -0.283 C  
BRANCH   5   6
HETATM    6  C   UNL     1     -11.298  15.499  68.227  1.00  0.00    -0.357 C  
BRANCH   6   7
HETATM    7  O   UNL     1     -10.038  16.123  68.529  1.00  0.00    -0.228 OA 
HETATM    8  O   UNL     1     -10.738  17.901  67.314  1.00  0.00    -0.354 OA 
HETATM    9  N   UNL     1      -9.843  17.427  68.011  1.00  0.00    -0.276 N  
HETATM   10  O   UNL     1      -8.785  17.931  68.376  1.00  0.00    -0.280 OA 
ENDBRANCH   6   7
BRANCH   6  11
HETATM   11  C   UNL     1     -11.151  14.320  67.226  1.00  0.00    -0.306 C  
BRANCH  11  12
HETATM   12  O   UNL     1     -12.070  13.289  67.603  1.00  0.00    -0.335 OA 
HETATM   13  O   UNL     1     -10.334  11.865  67.385  1.00  0.00    -0.203 OA 
HETATM   14  O   UNL     1     -12.087  11.363  68.673  1.00  0.00    -0.518 OA 
HETATM   15  N   UNL     1     -11.427  12.065  67.914  1.00  0.00    -0.307 N  
ENDBRANCH  11  12
BRANCH  11  16
HETATM   16  C   UNL     1     -11.363  14.741  65.757  1.00  0.00    -0.336 C  
BRANCH  16  17
HETATM   17  O   UNL     1     -12.489  14.078  65.185  1.00  0.00    -0.437 OA 
HETATM   18  N   UNL     1     -12.094  13.093  64.230  1.00  0.00    -0.397 N  
HETATM   19  O   UNL     1     -13.045  12.447  63.797  1.00  0.00    -0.756 OA 
HETATM   20  O   UNL     1     -10.899  13.029  63.954  1.00  0.00    -0.395 OA 
ENDBRANCH  16  17
ENDBRANCH  11  16
ENDBRANCH   6  11
ENDBRANCH   5   6
ENDBRANCH   4   5
TORSDOF 7
ENDMDL
MODEL       31
REMARK 921   NORMALIZED FREE ENERGY PREDICTED BY IDOCK:   -5.33 KCAL/MOL
REMARK 922        TOTAL FREE ENERGY PREDICTED BY IDOCK:   -8.45 KCAL/MOL
REMARK 923 INTER-LIGAND FREE ENERGY PREDICTED BY IDOCK:   -7.52 KCAL/MOL
REMARK 924 INTRA-LIGAND FREE ENERGY PREDICTED BY IDOCK:   -0.94 KCAL/MOL
REMARK 927      BINDING AFFINITY PREDICTED BY RF-SCORE:    0.00 PKD
ROOT
HETATM    1  O   UNL     1     -11.207  13.031  63.765  1.00  0.00    -0.406 OA 
HETATM    2  N   UNL     1     -11.961  13.158  64.726  1.00  0.00    -0.367 N  
HETATM    3  O   UNL     1     -13.079  12.680  64.927  1.00  0.00    -0.850 OA 
HETATM    4  O   UNL     1     -11.421  13.989  65.742  1.00  0.00    -0.308 OA 
ENDROOT
BRANCH   4   5
HETATM    5  C   UNL     1     -12.314  14.156  66.844  1.00  0.00    -0.258 C  
BRANCH   5   6
HETATM    6  C   UNL     1     -11.658  13.569  68.120  1.00  0.00    -0.333 C  
BRANCH   6   7
HETATM    7  O   UNL     1     -10.467  12.807  67.863  1.00  0.00    -0.211 OA 
HETATM    8  O   UNL     1     -11.788  10.974  67.715  1.00  0.00    -0.605 OA 
HETATM    9  N   UNL     1     -10.645  11.420  67.635  1.00  0.00    -0.193 N  
HETATM   10  O   UNL     1      -9.600  10.848  67.339  1.00  0.00    -0.162 OA 
ENDBRANCH   6   7
BRANCH   6  11
HETATM   11  C   UNL     1     -11.466  14.603  69.264  1.00  0.00    -0.291 C  
BRANCH  11  12
HETATM   12  O   UNL     1     -11.827  15.897  68.769  1.00  0.00    -0.393 OA 
HETATM   13  O   UNL     1      -9.751  16.544  69.366  1.00  0.00    -0.225 OA 
HETATM   14  O   UNL     1     -10.899  17.645  67.800  1.00  0.00    -0.367 OA 
HETATM   15  N   UNL     1     -10.716  16.766  68.636  1.00  0.00    -0.342 N  
ENDBRANCH  11  12
BRANCH  11  16
HETATM   16  C   UNL     1     -12.263  14.254  70.538  1.00  0.00    -0.356 C  
BRANCH  16  17
HETATM   17  O   UNL     1     -12.354  12.843  70.723  1.00  0.00    -0.368 OA 
HETATM   18  N   UNL     1     -13.114  12.510  71.885  1.00  0.00    -0.407 N  
HETATM   19  O   UNL     1     -13.283  11.298  72.007  1.00  0.00    -0.506 OA 
HETATM   20  O   UNL     1     -13.475  13.438  72.603  1.00  0.00    -0.568 OA 
ENDBRANCH  16  17
ENDBRANCH  11  16
ENDBRANCH   6  11
ENDBRANCH   5   6
ENDBRANCH   4   5
TORSDOF 7
ENDMDL
MODEL       32
REMARK 921   NORMALIZED FREE ENERGY PREDICTED BY IDOCK:   -5.31 KCAL/MOL
REMARK 922        TOTAL FREE ENERGY PREDICTED BY IDOCK:   -8.42 KCAL/MOL
REMARK 923 INTER-LIGAND FREE ENERGY PREDICTED BY IDOCK:   -7.59 KCAL/MOL
REMARK 924 INTRA-LIGAND FREE ENERGY PREDICTED BY IDOCK:   -0.83 KCAL/MOL
REMARK 927      BINDING AFFINITY PREDICTED BY RF-SCORE:    0.00 PKD
ROOT
HETATM    1  O   UNL     1     -11.696  11.535  63.600  1.00  0.00    -0.376 OA 
HETATM    2  N   UNL     1     -12.070  12.519  64.233  1.00  0.00    -0.400 N  
HETATM    3  O   UNL     1     -13.164  12.767  64.743  1.00  0.00    -0.812 OA 
HETATM    4  O   UNL     1     -11.052  13.497  64.380  1.00  0.00    -0.370 OA 
ENDROOT
BRANCH   4   5
HETATM    5  C   UNL     1     -11.501  14.650  65.092  1.00  0.00    -0.375 C  
BRANCH   5   6
HETATM    6  C   UNL     1     -10.392  15.100  66.078  1.00  0.00    -0.311 C  
BRANCH   6   7
HETATM    7  O   UNL     1      -9.835  16.390  65.776  1.00  0.00    -0.421 OA 
HETATM    8  O   UNL     1      -7.875  15.632  66.619  1.00  0.00    -0.221 OA 
HETATM    9  N   UNL     1      -8.463  16.569  66.083  1.00  0.00    -0.319 N  
HETATM   10  O   UNL     1      -8.033  17.660  65.723  1.00  0.00    -0.549 OA 
ENDBRANCH   6   7
BRANCH   6  11
HETATM   11  C   UNL     1     -10.784  14.960  67.575  1.00  0.00    -0.276 C  
BRANCH  11  12
HETATM   12  O   UNL     1     -11.062  16.265  68.094  1.00  0.00    -0.346 OA 
HETATM   13  O   UNL     1      -9.574  15.776  69.717  1.00  0.00    -0.265 OA 
HETATM   14  O   UNL     1     -10.049  17.891  69.183  1.00  0.00    -0.336 OA 
HETATM   15  N   UNL     1     -10.137  16.671  69.088  1.00  0.00    -0.283 N  
ENDBRANCH  11  12
BRANCH  11  16
HETATM   16  C   UNL     1     -11.977  14.008  67.804  1.00  0.00    -0.357 C  
BRANCH  16  17
HETATM   17  O   UNL     1     -11.934  13.425  69.105  1.00  0.00    -0.317 OA 
HETATM   18  N   UNL     1     -11.905  11.999  69.046  1.00  0.00    -0.320 N  
HETATM   19  O   UNL     1     -11.772  11.483  70.153  1.00  0.00    -0.317 OA 
HETATM   20  O   UNL     1     -12.031  11.483  67.939  1.00  0.00    -0.618 OA 
ENDBRANCH  16  17
ENDBRANCH  11  16
ENDBRANCH   6  11
ENDBRANCH   5   6
ENDBRANCH   4   5
TORSDOF 7
ENDMDL
MODEL       33
REMARK 921   NORMALIZED FREE ENERGY PREDICTED BY IDOCK:   -5.30 KCAL/MOL
REMARK 922        TOTAL FREE ENERGY PREDICTED BY IDOCK:   -8.41 KCAL/MOL
REMARK 923 INTER-LIGAND FREE ENERGY PREDICTED BY IDOCK:   -7.31 KCAL/MOL
REMARK 924 INTRA-LIGAND FREE ENERGY PREDICTED BY IDOCK:   -1.10 KCAL/MOL
REMARK 927      BINDING AFFINITY PREDICTED BY RF-SCORE:    0.00 PKD
ROOT
HETATM    1  O   UNL     1     -13.140  13.193  65.013  1.00  0.00    -0.728 OA 
HETATM    2  N   UNL     1     -12.132  13.284  65.708  1.00  0.00    -0.416 N  
HETATM    3  O   UNL     1     -10.958  13.025  65.443  1.00  0.00    -0.271 OA 
HETATM    4  O   UNL     1     -12.407  13.771  67.013  1.00  0.00    -0.378 OA 
ENDROOT
BRANCH   4   5
HETATM    5  C   UNL     1     -11.236  13.848  67.826  1.00  0.00    -0.293 C  
BRANCH   5   6
HETATM    6  C   UNL     1     -11.254  15.183  68.615  1.00  0.00    -0.286 C  
BRANCH   6   7
HETATM    7  O   UNL     1     -10.907  15.043  70.003  1.00  0.00    -0.251 OA 
HETATM    8  O   UNL     1     -13.036  15.633  70.495  1.00  0.00    -0.436 OA 
HETATM    9  N   UNL     1     -11.944  15.284  70.937  1.00  0.00    -0.310 N  
HETATM   10  O   UNL     1     -11.602  15.064  72.095  1.00  0.00    -0.388 OA 
ENDBRANCH   6   7
BRANCH   6  11
HETATM   11  C   UNL     1     -10.474  16.335  67.922  1.00  0.00    -0.295 C  
BRANCH  11  12
HETATM   12  O   UNL     1     -11.158  16.681  66.713  1.00  0.00    -0.007 OA 
HETATM   13  O   UNL     1      -9.130  16.642  65.728  1.00  0.00    -0.503 OA 
HETATM   14  O   UNL     1     -10.998  16.355  64.540  1.00  0.00    -0.750 OA 
HETATM   15  N   UNL     1     -10.345  16.542  65.561  1.00  0.00    -0.323 N  
ENDBRANCH  11  12
BRANCH  11  16
HETATM   16  C   UNL     1     -10.289  17.572  68.827  1.00  0.00    -0.358 C  
BRANCH  16  17
HETATM   17  O   UNL     1      -9.043  18.218  68.574  1.00  0.00    -0.307 OA 
HETATM   18  N   UNL     1      -9.216  19.437  67.852  1.00  0.00    -0.312 N  
HETATM   19  O   UNL     1      -8.164  20.055  67.708  1.00  0.00    -0.304 OA 
HETATM   20  O   UNL     1     -10.351  19.699  67.461  1.00  0.00    -0.395 OA 
ENDBRANCH  16  17
ENDBRANCH  11  16
ENDBRANCH   6  11
ENDBRANCH   5   6
ENDBRANCH   4   5
TORSDOF 7
ENDMDL
MODEL       34
REMARK 921   NORMALIZED FREE ENERGY PREDICTED BY IDOCK:   -5.28 KCAL/MOL
REMARK 922        TOTAL FREE ENERGY PREDICTED BY IDOCK:   -8.39 KCAL/MOL
REMARK 923 INTER-LIGAND FREE ENERGY PREDICTED BY IDOCK:   -7.74 KCAL/MOL
REMARK 924 INTRA-LIGAND FREE ENERGY PREDICTED BY IDOCK:   -0.64 KCAL/MOL
REMARK 927      BINDING AFFINITY PREDICTED BY RF-SCORE:    0.00 PKD
ROOT
HETATM    1  O   UNL     1     -12.312  16.205  72.770  1.00  0.00    -0.450 OA 
HETATM    2  N   UNL     1     -12.666  15.911  71.631  1.00  0.00    -0.446 N  
HETATM    3  O   UNL     1     -13.776  15.592  71.201  1.00  0.00    -0.591 OA 
HETATM    4  O   UNL     1     -11.601  15.961  70.694  1.00  0.00    -0.344 OA 
ENDROOT
BRANCH   4   5
HETATM    5  C   UNL     1     -12.012  15.591  69.378  1.00  0.00    -0.336 C  
BRANCH   5   6
HETATM    6  C   UNL     1     -11.229  16.441  68.345  1.00  0.00    -0.324 C  
BRANCH   6   7
HETATM    7  O   UNL     1     -10.287  17.352  68.936  1.00  0.00    -0.335 OA 
HETATM    8  O   UNL     1     -10.879  18.846  67.341  1.00  0.00    -0.458 OA 
HETATM    9  N   UNL     1     -10.190  18.632  68.336  1.00  0.00    -0.382 N  
HETATM   10  O   UNL     1      -9.433  19.385  68.941  1.00  0.00    -0.391 OA 
ENDBRANCH   6   7
BRANCH   6  11
HETATM   11  C   UNL     1     -10.605  15.613  67.188  1.00  0.00    -0.308 C  
BRANCH  11  12
HETATM   12  O   UNL     1      -9.411  14.989  67.671  1.00  0.00    -0.191 OA 
HETATM   13  O   UNL     1      -8.304  16.343  66.247  1.00  0.00    -0.302 OA 
HETATM   14  O   UNL     1      -7.293  15.475  68.038  1.00  0.00    -0.116 OA 
HETATM   15  N   UNL     1      -8.234  15.674  67.277  1.00  0.00    -0.174 N  
ENDBRANCH  11  12
BRANCH  11  16
HETATM   16  C   UNL     1     -11.576  14.568  66.598  1.00  0.00    -0.375 C  
BRANCH  16  17
HETATM   17  O   UNL     1     -11.675  14.693  65.181  1.00  0.00    -0.357 OA 
HETATM   18  N   UNL     1     -12.372  13.591  64.600  1.00  0.00    -0.386 N  
HETATM   19  O   UNL     1     -12.550  13.729  63.391  1.00  0.00    -0.842 OA 
HETATM   20  O   UNL     1     -12.678  12.666  65.347  1.00  0.00    -0.635 OA 
ENDBRANCH  16  17
ENDBRANCH  11  16
ENDBRANCH   6  11
ENDBRANCH   5   6
ENDBRANCH   4   5
TORSDOF 7
ENDMDL
MODEL       35
REMARK 921   NORMALIZED FREE ENERGY PREDICTED BY IDOCK:   -5.26 KCAL/MOL
REMARK 922        TOTAL FREE ENERGY PREDICTED BY IDOCK:   -8.35 KCAL/MOL
REMARK 923 INTER-LIGAND FREE ENERGY PREDICTED BY IDOCK:   -7.63 KCAL/MOL
REMARK 924 INTRA-LIGAND FREE ENERGY PREDICTED BY IDOCK:   -0.72 KCAL/MOL
REMARK 927      BINDING AFFINITY PREDICTED BY RF-SCORE:    0.00 PKD
ROOT
HETATM    1  O   UNL     1     -14.215  15.668  71.228  1.00  0.00    -0.540 OA 
HETATM    2  N   UNL     1     -12.990  15.588  71.214  1.00  0.00    -0.477 N  
HETATM    3  O   UNL     1     -12.198  15.353  72.128  1.00  0.00    -0.321 OA 
HETATM    4  O   UNL     1     -12.440  15.800  69.922  1.00  0.00    -0.300 OA 
ENDROOT
BRANCH   4   5
HETATM    5  C   UNL     1     -11.014  15.734  69.917  1.00  0.00    -0.333 C  
BRANCH   5   6
HETATM    6  C   UNL     1     -10.484  16.313  68.581  1.00  0.00    -0.282 C  
BRANCH   6   7
HETATM    7  O   UNL     1      -9.472  17.321  68.745  1.00  0.00    -0.270 OA 
HETATM    8  O   UNL     1     -10.834  18.735  67.618  1.00  0.00    -0.426 OA 
HETATM    9  N   UNL     1      -9.766  18.600  68.212  1.00  0.00    -0.338 N  
HETATM   10  O   UNL     1      -8.898  19.430  68.461  1.00  0.00    -0.351 OA 
ENDBRANCH   6   7
BRANCH   6  11
HETATM   11  C   UNL     1     -10.082  15.233  67.539  1.00  0.00    -0.232 C  
BRANCH  11  12
HETATM   12  O   UNL     1     -10.829  14.042  67.811  1.00  0.00    -0.244 OA 
HETATM   13  O   UNL     1      -8.879  12.936  67.561  1.00  0.00    -0.171 OA 
HETATM   14  O   UNL     1     -10.559  12.065  68.745  1.00  0.00    -0.227 OA 
HETATM   15  N   UNL     1     -10.003  12.918  68.061  1.00  0.00    -0.230 N  
ENDBRANCH  11  12
BRANCH  11  16
HETATM   16  C   UNL     1     -10.282  15.692  66.080  1.00  0.00    -0.335 C  
BRANCH  16  17
HETATM   17  O   UNL     1     -11.338  14.969  65.449  1.00  0.00    -0.347 OA 
HETATM   18  N   UNL     1     -11.875  15.682  64.335  1.00  0.00    -0.295 N  
HETATM   19  O   UNL     1     -12.720  15.034  63.722  1.00  0.00    -0.741 OA 
HETATM   20  O   UNL     1     -11.457  16.821  64.145  1.00  0.00    -1.171 OA 
ENDBRANCH  16  17
ENDBRANCH  11  16
ENDBRANCH   6  11
ENDBRANCH   5   6
ENDBRANCH   4   5
TORSDOF 7
ENDMDL
MODEL       36
REMARK 921   NORMALIZED FREE ENERGY PREDICTED BY IDOCK:   -5.26 KCAL/MOL
REMARK 922        TOTAL FREE ENERGY PREDICTED BY IDOCK:   -8.35 KCAL/MOL
REMARK 923 INTER-LIGAND FREE ENERGY PREDICTED BY IDOCK:   -7.57 KCAL/MOL
REMARK 924 INTRA-LIGAND FREE ENERGY PREDICTED BY IDOCK:   -0.78 KCAL/MOL
REMARK 927      BINDING AFFINITY PREDICTED BY RF-SCORE:    0.00 PKD
ROOT
HETATM    1  O   UNL     1     -13.151  10.585  72.053  1.00  0.00    -0.467 OA 
HETATM    2  N   UNL     1     -12.551  10.903  71.029  1.00  0.00    -0.385 N  
HETATM    3  O   UNL     1     -11.986  10.201  70.189  1.00  0.00    -0.244 OA 
HETATM    4  O   UNL     1     -12.534  12.306  70.816  1.00  0.00    -0.346 OA 
ENDROOT
BRANCH   4   5
HETATM    5  C   UNL     1     -11.812  12.672  69.640  1.00  0.00    -0.311 C  
BRANCH   5   6
HETATM    6  C   UNL     1     -11.935  14.202  69.424  1.00  0.00    -0.337 C  
BRANCH   6   7
HETATM    7  O   UNL     1     -11.410  14.985  70.510  1.00  0.00    -0.267 OA 
HETATM    8  O   UNL     1     -13.541  15.588  70.978  1.00  0.00    -0.528 OA 
HETATM    9  N   UNL     1     -12.359  15.676  71.302  1.00  0.00    -0.395 N  
HETATM   10  O   UNL     1     -11.850  16.254  72.258  1.00  0.00    -0.510 OA 
ENDBRANCH   6   7
BRANCH   6  11
HETATM   11  C   UNL     1     -11.422  14.688  68.040  1.00  0.00    -0.324 C  
BRANCH  11  12
HETATM   12  O   UNL     1     -12.330  14.226  67.034  1.00  0.00    -0.386 OA 
HETATM   13  O   UNL     1     -10.509  13.437  65.962  1.00  0.00    -0.283 OA 
HETATM   14  O   UNL     1     -12.535  12.578  65.586  1.00  0.00    -0.648 OA 
HETATM   15  N   UNL     1     -11.725  13.332  66.116  1.00  0.00    -0.356 N  
ENDBRANCH  11  12
BRANCH  11  16
HETATM   16  C   UNL     1     -11.243  16.219  67.964  1.00  0.00    -0.260 C  
BRANCH  16  17
HETATM   17  O   UNL     1     -10.403  16.589  66.872  1.00  0.00    -0.295 OA 
HETATM   18  N   UNL     1     -10.031  17.966  66.934  1.00  0.00    -0.318 N  
HETATM   19  O   UNL     1      -9.230  18.278  66.055  1.00  0.00    -0.508 OA 
HETATM   20  O   UNL     1     -10.552  18.647  67.813  1.00  0.00    -0.406 OA 
ENDBRANCH  16  17
ENDBRANCH  11  16
ENDBRANCH   6  11
ENDBRANCH   5   6
ENDBRANCH   4   5
TORSDOF 7
ENDMDL
MODEL       37
REMARK 921   NORMALIZED FREE ENERGY PREDICTED BY IDOCK:   -5.25 KCAL/MOL
REMARK 922        TOTAL FREE ENERGY PREDICTED BY IDOCK:   -8.34 KCAL/MOL
REMARK 923 INTER-LIGAND FREE ENERGY PREDICTED BY IDOCK:   -7.53 KCAL/MOL
REMARK 924 INTRA-LIGAND FREE ENERGY PREDICTED BY IDOCK:   -0.81 KCAL/MOL
REMARK 927      BINDING AFFINITY PREDICTED BY RF-SCORE:    0.00 PKD
ROOT
HETATM    1  O   UNL     1      -7.067  18.241  66.801  1.00  0.00    -0.193 OA 
HETATM    2  N   UNL     1      -8.289  18.194  66.683  1.00  0.00    -0.255 N  
HETATM    3  O   UNL     1      -9.027  18.720  65.849  1.00  0.00    -0.462 OA 
HETATM    4  O   UNL     1      -8.907  17.396  67.681  1.00  0.00    -0.222 OA 
ENDROOT
BRANCH   4   5
HETATM    5  C   UNL     1     -10.329  17.368  67.556  1.00  0.00    -0.351 C  
BRANCH   5   6
HETATM    6  C   UNL     1     -10.849  15.976  67.996  1.00  0.00    -0.335 C  
BRANCH   6   7
HETATM    7  O   UNL     1     -11.957  16.032  68.911  1.00  0.00    -0.348 OA 
HETATM    8  O   UNL     1     -10.510  15.432  70.546  1.00  0.00    -0.280 OA 
HETATM    9  N   UNL     1     -11.666  15.746  70.268  1.00  0.00    -0.339 N  
HETATM   10  O   UNL     1     -12.636  15.895  71.005  1.00  0.00    -0.443 OA 
ENDBRANCH   6   7
BRANCH   6  11
HETATM   11  C   UNL     1     -11.103  14.995  66.818  1.00  0.00    -0.326 C  
BRANCH  11  12
HETATM   12  O   UNL     1     -10.638  15.608  65.611  1.00  0.00    -0.334 OA 
HETATM   13  O   UNL     1     -12.458  14.710  64.627  1.00  0.00    -0.527 OA 
HETATM   14  O   UNL     1     -11.440  16.498  63.762  1.00  0.00    -1.065 OA 
HETATM   15  N   UNL     1     -11.609  15.600  64.579  1.00  0.00    -0.342 N  
ENDBRANCH  11  12
BRANCH  11  16
HETATM   16  C   UNL     1     -10.448  13.614  67.027  1.00  0.00    -0.270 C  
BRANCH  16  17
HETATM   17  O   UNL     1     -10.777  13.071  68.304  1.00  0.00    -0.230 OA 
HETATM   18  N   UNL     1     -11.618  11.923  68.189  1.00  0.00    -0.320 N  
HETATM   19  O   UNL     1     -11.834  11.386  69.273  1.00  0.00    -0.298 OA 
HETATM   20  O   UNL     1     -12.024  11.636  67.066  1.00  0.00    -0.593 OA 
ENDBRANCH  16  17
ENDBRANCH  11  16
ENDBRANCH   6  11
ENDBRANCH   5   6
ENDBRANCH   4   5
TORSDOF 7
ENDMDL
MODEL       38
REMARK 921   NORMALIZED FREE ENERGY PREDICTED BY IDOCK:   -5.21 KCAL/MOL
REMARK 922        TOTAL FREE ENERGY PREDICTED BY IDOCK:   -8.28 KCAL/MOL
REMARK 923 INTER-LIGAND FREE ENERGY PREDICTED BY IDOCK:   -7.42 KCAL/MOL
REMARK 924 INTRA-LIGAND FREE ENERGY PREDICTED BY IDOCK:   -0.86 KCAL/MOL
REMARK 927      BINDING AFFINITY PREDICTED BY RF-SCORE:    0.00 PKD
ROOT
HETATM    1  O   UNL     1     -14.095  15.515  71.228  1.00  0.00    -0.548 OA 
HETATM    2  N   UNL     1     -13.136  14.799  70.952  1.00  0.00    -0.365 N  
HETATM    3  O   UNL     1     -12.454  14.070  71.674  1.00  0.00    -0.331 OA 
HETATM    4  O   UNL     1     -12.794  14.846  69.575  1.00  0.00     0.035 OA 
ENDROOT
BRANCH   4   5
HETATM    5  C   UNL     1     -11.661  14.034  69.265  1.00  0.00    -0.326 C  
BRANCH   5   6
HETATM    6  C   UNL     1     -11.295  14.224  67.771  1.00  0.00    -0.307 C  
BRANCH   6   7
HETATM    7  O   UNL     1     -12.421  14.136  66.881  1.00  0.00    -0.359 OA 
HETATM    8  O   UNL     1     -11.164  12.774  65.582  1.00  0.00    -0.287 OA 
HETATM    9  N   UNL     1     -12.258  13.310  65.742  1.00  0.00    -0.442 N  
HETATM   10  O   UNL     1     -13.283  13.214  65.073  1.00  0.00    -0.694 OA 
ENDBRANCH   6   7
BRANCH   6  11
HETATM   11  C   UNL     1     -10.415  15.473  67.490  1.00  0.00    -0.282 C  
BRANCH  11  12
HETATM   12  O   UNL     1     -11.126  16.336  66.596  1.00  0.00    -0.097 OA 
HETATM   13  O   UNL     1      -9.223  16.407  65.387  1.00  0.00    -0.326 OA 
HETATM   14  O   UNL     1     -11.205  16.836  64.452  1.00  0.00    -1.112 OA 
HETATM   15  N   UNL     1     -10.446  16.537  65.369  1.00  0.00    -0.323 N  
ENDBRANCH  11  12
BRANCH  11  16
HETATM   16  C   UNL     1     -10.001  16.225  68.774  1.00  0.00    -0.237 C  
BRANCH  16  17
HETATM   17  O   UNL     1     -10.656  17.488  68.869  1.00  0.00    -0.316 OA 
HETATM   18  N   UNL     1      -9.739  18.572  68.721  1.00  0.00    -0.367 N  
HETATM   19  O   UNL     1     -10.299  19.666  68.705  1.00  0.00    -0.420 OA 
HETATM   20  O   UNL     1      -8.546  18.289  68.651  1.00  0.00    -0.320 OA 
ENDBRANCH  16  17
ENDBRANCH  11  16
ENDBRANCH   6  11
ENDBRANCH   5   6
ENDBRANCH   4   5
TORSDOF 7
ENDMDL
MODEL       39
REMARK 921   NORMALIZED FREE ENERGY PREDICTED BY IDOCK:   -5.20 KCAL/MOL
REMARK 922        TOTAL FREE ENERGY PREDICTED BY IDOCK:   -8.27 KCAL/MOL
REMARK 923 INTER-LIGAND FREE ENERGY PREDICTED BY IDOCK:   -7.41 KCAL/MOL
REMARK 924 INTRA-LIGAND FREE ENERGY PREDICTED BY IDOCK:   -0.86 KCAL/MOL
REMARK 927      BINDING AFFINITY PREDICTED BY RF-SCORE:    0.00 PKD
ROOT
HETATM    1  O   UNL     1     -10.459  10.541  69.805  1.00  0.00    -0.244 OA 
HETATM    2  N   UNL     1     -11.196  11.033  68.954  1.00  0.00    -0.240 N  
HETATM    3  O   UNL     1     -12.405  10.883  68.766  1.00  0.00    -0.495 OA 
HETATM    4  O   UNL     1     -10.509  11.909  68.073  1.00  0.00    -0.196 OA 
ENDROOT
BRANCH   4   5
HETATM    5  C   UNL     1     -11.365  12.457  67.070  1.00  0.00    -0.327 C  
BRANCH   5   6
HETATM    6  C   UNL     1     -11.230  14.001  67.076  1.00  0.00    -0.313 C  
BRANCH   6   7
HETATM    7  O   UNL     1     -10.285  14.497  68.040  1.00  0.00    -0.227 OA 
HETATM    8  O   UNL     1     -12.012  15.569  69.037  1.00  0.00    -0.354 OA 
HETATM    9  N   UNL     1     -10.810  15.315  69.071  1.00  0.00    -0.233 N  
HETATM   10  O   UNL     1      -9.965  15.633  69.903  1.00  0.00    -0.283 OA 
ENDBRANCH   6   7
BRANCH   6  11
HETATM   11  C   UNL     1     -11.022  14.623  65.668  1.00  0.00    -0.335 C  
BRANCH  11  12
HETATM   12  O   UNL     1      -9.876  15.480  65.716  1.00  0.00    -0.318 OA 
HETATM   13  O   UNL     1     -11.141  16.988  64.615  1.00  0.00    -0.997 OA 
HETATM   14  O   UNL     1      -9.386  17.625  65.840  1.00  0.00    -0.520 OA 
HETATM   15  N   UNL     1     -10.174  16.818  65.356  1.00  0.00    -0.157 N  
ENDBRANCH  11  12
BRANCH  11  16
HETATM   16  C   UNL     1     -10.876  13.565  64.553  1.00  0.00    -0.410 C  
BRANCH  16  17
HETATM   17  O   UNL     1     -12.120  13.330  63.895  1.00  0.00    -0.441 OA 
HETATM   18  N   UNL     1     -12.245  11.973  63.471  1.00  0.00    -0.557 N  
HETATM   19  O   UNL     1     -13.349  11.729  62.988  1.00  0.00    -0.405 OA 
HETATM   20  O   UNL     1     -11.265  11.248  63.618  1.00  0.00    -0.358 OA 
ENDBRANCH  16  17
ENDBRANCH  11  16
ENDBRANCH   6  11
ENDBRANCH   5   6
ENDBRANCH   4   5
TORSDOF 7
ENDMDL
MODEL       40
REMARK 921   NORMALIZED FREE ENERGY PREDICTED BY IDOCK:   -5.20 KCAL/MOL
REMARK 922        TOTAL FREE ENERGY PREDICTED BY IDOCK:   -8.26 KCAL/MOL
REMARK 923 INTER-LIGAND FREE ENERGY PREDICTED BY IDOCK:   -7.41 KCAL/MOL
REMARK 924 INTRA-LIGAND FREE ENERGY PREDICTED BY IDOCK:   -0.85 KCAL/MOL
REMARK 927      BINDING AFFINITY PREDICTED BY RF-SCORE:    0.00 PKD
ROOT
HETATM    1  O   UNL     1     -12.645   7.103  71.106  1.00  0.00    -0.364 OA 
HETATM    2  N   UNL     1     -13.083   8.183  71.492  1.00  0.00    -0.311 N  
HETATM    3  O   UNL     1     -14.055   8.437  72.204  1.00  0.00    -0.396 OA 
HETATM    4  O   UNL     1     -12.318   9.284  71.026  1.00  0.00    -0.291 OA 
ENDROOT
BRANCH   4   5
HETATM    5  C   UNL     1     -12.848  10.539  71.455  1.00  0.00    -0.463 C  
BRANCH   5   6
HETATM    6  C   UNL     1     -12.210  11.673  70.613  1.00  0.00    -0.366 C  
BRANCH   6   7
HETATM    7  O   UNL     1     -12.526  11.605  69.212  1.00  0.00    -0.155 OA 
HETATM    8  O   UNL     1     -10.300  11.487  68.815  1.00  0.00    -0.203 OA 
HETATM    9  N   UNL     1     -11.428  11.483  68.326  1.00  0.00    -0.275 N  
HETATM   10  O   UNL     1     -11.774  11.344  67.156  1.00  0.00    -0.556 OA 
ENDBRANCH   6   7
BRANCH   6  11
HETATM   11  C   UNL     1     -12.427  13.095  71.201  1.00  0.00    -0.287 C  
BRANCH  11  12
HETATM   12  O   UNL     1     -12.800  13.974  70.134  1.00  0.00    -0.242 OA 
HETATM   13  O   UNL     1     -11.067  15.262  70.785  1.00  0.00    -0.309 OA 
HETATM   14  O   UNL     1     -11.872  15.371  68.706  1.00  0.00    -0.351 OA 
HETATM   15  N   UNL     1     -11.815  14.954  69.858  1.00  0.00    -0.292 N  
ENDBRANCH  11  12
BRANCH  11  16
HETATM   16  C   UNL     1     -13.471  13.128  72.337  1.00  0.00    -0.543 C  
BRANCH  16  17
HETATM   17  O   UNL     1     -13.977  14.447  72.538  1.00  0.00    -0.478 OA 
HETATM   18  N   UNL     1     -13.163  15.193  73.443  1.00  0.00    -0.455 N  
HETATM   19  O   UNL     1     -13.530  16.361  73.554  1.00  0.00    -0.608 OA 
HETATM   20  O   UNL     1     -12.243  14.594  73.993  1.00  0.00    -0.464 OA 
ENDBRANCH  16  17
ENDBRANCH  11  16
ENDBRANCH   6  11
ENDBRANCH   5   6
ENDBRANCH   4   5
TORSDOF 7
ENDMDL
MODEL       41
REMARK 921   NORMALIZED FREE ENERGY PREDICTED BY IDOCK:   -5.18 KCAL/MOL
REMARK 922        TOTAL FREE ENERGY PREDICTED BY IDOCK:   -8.24 KCAL/MOL
REMARK 923 INTER-LIGAND FREE ENERGY PREDICTED BY IDOCK:   -7.30 KCAL/MOL
REMARK 924 INTRA-LIGAND FREE ENERGY PREDICTED BY IDOCK:   -0.93 KCAL/MOL
REMARK 927      BINDING AFFINITY PREDICTED BY RF-SCORE:    0.00 PKD
ROOT
HETATM    1  O   UNL     1     -13.024  10.499  70.277  1.00  0.00    -0.266 OA 
HETATM    2  N   UNL     1     -11.948  10.712  69.724  1.00  0.00    -0.299 N  
HETATM    3  O   UNL     1     -10.801  10.663  70.172  1.00  0.00    -0.261 OA 
HETATM    4  O   UNL     1     -12.092  11.060  68.356  1.00  0.00    -0.594 OA 
ENDROOT
BRANCH   4   5
HETATM    5  C   UNL     1     -10.841  11.333  67.726  1.00  0.00    -0.235 C  
BRANCH   5   6
HETATM    6  C   UNL     1     -11.030  12.478  66.697  1.00  0.00    -0.266 C  
BRANCH   6   7
HETATM    7  O   UNL     1     -12.293  12.439  66.011  1.00  0.00    -0.627 OA 
HETATM    8  O   UNL     1     -11.127  12.288  64.076  1.00  0.00    -0.323 OA 
HETATM    9  N   UNL     1     -12.239  12.312  64.601  1.00  0.00    -0.402 N  
HETATM   10  O   UNL     1     -13.349  12.200  64.090  1.00  0.00    -0.750 OA 
ENDBRANCH   6   7
BRANCH   6  11
HETATM   11  C   UNL     1     -10.702  13.890  67.256  1.00  0.00    -0.284 C  
BRANCH  11  12
HETATM   12  O   UNL     1     -10.560  13.792  68.677  1.00  0.00    -0.246 OA 
HETATM   13  O   UNL     1     -12.093  15.441  68.798  1.00  0.00    -0.281 OA 
HETATM   14  O   UNL     1     -11.760  14.045  70.508  1.00  0.00    -0.274 OA 
HETATM   15  N   UNL     1     -11.569  14.494  69.382  1.00  0.00    -0.285 N  
ENDBRANCH  11  12
BRANCH  11  16
HETATM   16  C   UNL     1      -9.447  14.519  66.615  1.00  0.00    -0.283 C  
BRANCH  16  17
HETATM   17  O   UNL     1      -9.528  15.944  66.608  1.00  0.00    -0.215 OA 
HETATM   18  N   UNL     1     -10.290  16.424  65.501  1.00  0.00    -0.343 N  
HETATM   19  O   UNL     1     -10.451  17.642  65.531  1.00  0.00    -0.636 OA 
HETATM   20  O   UNL     1     -10.662  15.595  64.675  1.00  0.00    -0.431 OA 
ENDBRANCH  16  17
ENDBRANCH  11  16
ENDBRANCH   6  11
ENDBRANCH   5   6
ENDBRANCH   4   5
TORSDOF 7
ENDMDL
MODEL       42
REMARK 921   NORMALIZED FREE ENERGY PREDICTED BY IDOCK:   -5.17 KCAL/MOL
REMARK 922        TOTAL FREE ENERGY PREDICTED BY IDOCK:   -8.23 KCAL/MOL
REMARK 923 INTER-LIGAND FREE ENERGY PREDICTED BY IDOCK:   -7.58 KCAL/MOL
REMARK 924 INTRA-LIGAND FREE ENERGY PREDICTED BY IDOCK:   -0.65 KCAL/MOL
REMARK 927      BINDING AFFINITY PREDICTED BY RF-SCORE:    0.00 PKD
ROOT
HETATM    1  O   UNL     1     -11.269  16.868  64.208  1.00  0.00    -1.204 OA 
HETATM    2  N   UNL     1     -10.838  16.200  65.144  1.00  0.00    -0.406 N  
HETATM    3  O   UNL     1     -10.713  16.489  66.335  1.00  0.00    -0.261 OA 
HETATM    4  O   UNL     1     -10.437  14.896  64.750  1.00  0.00    -0.398 OA 
ENDROOT
BRANCH   4   5
HETATM    5  C   UNL     1      -9.912  14.134  65.837  1.00  0.00    -0.311 C  
BRANCH   5   6
HETATM    6  C   UNL     1     -11.030  13.221  66.403  1.00  0.00    -0.289 C  
BRANCH   6   7
HETATM    7  O   UNL     1     -11.601  12.331  65.429  1.00  0.00    -0.348 OA 
HETATM    8  O   UNL     1     -13.326  13.787  65.253  1.00  0.00    -0.710 OA 
HETATM    9  N   UNL     1     -12.829  12.737  64.850  1.00  0.00    -0.413 N  
HETATM   10  O   UNL     1     -13.215  11.976  63.969  1.00  0.00    -0.681 OA 
ENDBRANCH   6   7
BRANCH   6  11
HETATM   11  C   UNL     1     -10.643  12.490  67.718  1.00  0.00    -0.219 C  
BRANCH  11  12
HETATM   12  O   UNL     1      -9.500  13.144  68.279  1.00  0.00    -0.217 OA 
HETATM   13  O   UNL     1      -8.602  11.084  68.476  1.00  0.00    -0.145 OA 
HETATM   14  O   UNL     1      -7.312  12.903  68.386  1.00  0.00    -0.104 OA 
HETATM   15  N   UNL     1      -8.374  12.289  68.385  1.00  0.00    -0.165 N  
ENDBRANCH  11  12
BRANCH  11  16
HETATM   16  C   UNL     1     -11.800  12.425  68.738  1.00  0.00    -0.311 C  
BRANCH  16  17
HETATM   17  O   UNL     1     -11.792  11.190  69.453  1.00  0.00    -0.291 OA 
HETATM   18  N   UNL     1     -12.311  11.341  70.774  1.00  0.00    -0.386 N  
HETATM   19  O   UNL     1     -12.401  10.270  71.371  1.00  0.00    -0.355 OA 
HETATM   20  O   UNL     1     -12.576  12.481  71.145  1.00  0.00    -0.365 OA 
ENDBRANCH  16  17
ENDBRANCH  11  16
ENDBRANCH   6  11
ENDBRANCH   5   6
ENDBRANCH   4   5
TORSDOF 7
ENDMDL
MODEL       43
REMARK 921   NORMALIZED FREE ENERGY PREDICTED BY IDOCK:   -5.17 KCAL/MOL
REMARK 922        TOTAL FREE ENERGY PREDICTED BY IDOCK:   -8.22 KCAL/MOL
REMARK 923 INTER-LIGAND FREE ENERGY PREDICTED BY IDOCK:   -7.29 KCAL/MOL
REMARK 924 INTRA-LIGAND FREE ENERGY PREDICTED BY IDOCK:   -0.93 KCAL/MOL
REMARK 927      BINDING AFFINITY PREDICTED BY RF-SCORE:    0.00 PKD
ROOT
HETATM    1  O   UNL     1     -12.932  13.094  71.480  1.00  0.00    -0.366 OA 
HETATM    2  N   UNL     1     -12.332  13.955  70.841  1.00  0.00    -0.361 N  
HETATM    3  O   UNL     1     -11.666  14.915  71.231  1.00  0.00    -0.317 OA 
HETATM    4  O   UNL     1     -12.447  13.776  69.437  1.00  0.00    -0.255 OA 
ENDROOT
BRANCH   4   5
HETATM    5  C   UNL     1     -11.772  14.796  68.699  1.00  0.00    -0.325 C  
BRANCH   5   6
HETATM    6  C   UNL     1     -11.193  14.181  67.399  1.00  0.00    -0.318 C  
BRANCH   6   7
HETATM    7  O   UNL     1     -12.092  14.237  66.279  1.00  0.00    -0.415 OA 
HETATM    8  O   UNL     1     -11.926  11.982  66.157  1.00  0.00    -0.581 OA 
HETATM    9  N   UNL     1     -12.445  12.996  65.694  1.00  0.00    -0.450 N  
HETATM   10  O   UNL     1     -13.279  13.110  64.801  1.00  0.00    -0.670 OA 
ENDBRANCH   6   7
BRANCH   6  11
HETATM   11  C   UNL     1      -9.769  14.688  67.042  1.00  0.00    -0.243 C  
BRANCH  11  12
HETATM   12  O   UNL     1      -8.877  13.568  67.041  1.00  0.00    -0.219 OA 
HETATM   13  O   UNL     1      -7.651  14.730  68.536  1.00  0.00    -0.108 OA 
HETATM   14  O   UNL     1      -7.513  12.505  68.407  1.00  0.00    -0.114 OA 
HETATM   15  N   UNL     1      -7.932  13.616  68.096  1.00  0.00    -0.137 N  
ENDBRANCH  11  12
BRANCH  11  16
HETATM   16  C   UNL     1      -9.713  15.441  65.696  1.00  0.00    -0.331 C  
BRANCH  16  17
HETATM   17  O   UNL     1      -9.722  16.854  65.891  1.00  0.00    -0.467 OA 
HETATM   18  N   UNL     1     -10.774  17.482  65.158  1.00  0.00    -0.017 N  
HETATM   19  O   UNL     1     -10.857  18.686  65.389  1.00  0.00    -0.569 OA 
HETATM   20  O   UNL     1     -11.429  16.772  64.400  1.00  0.00    -1.024 OA 
ENDBRANCH  16  17
ENDBRANCH  11  16
ENDBRANCH   6  11
ENDBRANCH   5   6
ENDBRANCH   4   5
TORSDOF 7
ENDMDL
MODEL       44
REMARK 921   NORMALIZED FREE ENERGY PREDICTED BY IDOCK:   -5.16 KCAL/MOL
REMARK 922        TOTAL FREE ENERGY PREDICTED BY IDOCK:   -8.21 KCAL/MOL
REMARK 923 INTER-LIGAND FREE ENERGY PREDICTED BY IDOCK:   -7.36 KCAL/MOL
REMARK 924 INTRA-LIGAND FREE ENERGY PREDICTED BY IDOCK:   -0.85 KCAL/MOL
REMARK 927      BINDING AFFINITY PREDICTED BY RF-SCORE:    0.00 PKD
ROOT
HETATM    1  O   UNL     1     -14.196  15.549  72.278  1.00  0.00    -0.549 OA 
HETATM    2  N   UNL     1     -13.728  14.436  72.052  1.00  0.00    -0.400 N  
HETATM    3  O   UNL     1     -13.805  13.394  72.705  1.00  0.00    -0.720 OA 
HETATM    4  O   UNL     1     -12.995  14.385  70.838  1.00  0.00    -0.342 OA 
ENDROOT
BRANCH   4   5
HETATM    5  C   UNL     1     -12.429  13.096  70.594  1.00  0.00    -0.286 C  
BRANCH   5   6
HETATM    6  C   UNL     1     -11.562  13.158  69.311  1.00  0.00    -0.314 C  
BRANCH   6   7
HETATM    7  O   UNL     1     -10.594  14.221  69.315  1.00  0.00    -0.223 OA 
HETATM    8  O   UNL     1     -11.703  15.105  67.550  1.00  0.00    -0.322 OA 
HETATM    9  N   UNL     1     -10.771  15.235  68.341  1.00  0.00    -0.243 N  
HETATM   10  O   UNL     1      -9.963  16.151  68.455  1.00  0.00    -0.218 OA 
ENDBRANCH   6   7
BRANCH   6  11
HETATM   11  C   UNL     1     -10.941  11.793  68.903  1.00  0.00    -0.239 C  
BRANCH  11  12
HETATM   12  O   UNL     1     -11.621  10.755  69.617  1.00  0.00    -0.264 OA 
HETATM   13  O   UNL     1      -9.574  10.054  70.254  1.00  0.00    -0.196 OA 
HETATM   14  O   UNL     1     -11.393   9.545  71.444  1.00  0.00    -0.350 OA 
HETATM   15  N   UNL     1     -10.776  10.062  70.518  1.00  0.00    -0.305 N  
ENDBRANCH  11  12
BRANCH  11  16
HETATM   16  C   UNL     1     -10.983  11.539  67.381  1.00  0.00    -0.265 C  
BRANCH  16  17
HETATM   17  O   UNL     1     -12.158  12.095  66.795  1.00  0.00    -0.609 OA 
HETATM   18  N   UNL     1     -12.005  12.292  65.389  1.00  0.00    -0.387 N  
HETATM   19  O   UNL     1     -13.039  12.681  64.851  1.00  0.00    -0.850 OA 
HETATM   20  O   UNL     1     -10.895  12.074  64.911  1.00  0.00    -0.282 OA 
ENDBRANCH  16  17
ENDBRANCH  11  16
ENDBRANCH   6  11
ENDBRANCH   5   6
ENDBRANCH   4   5
TORSDOF 7
ENDMDL
MODEL       45
REMARK 921   NORMALIZED FREE ENERGY PREDICTED BY IDOCK:   -5.16 KCAL/MOL
REMARK 922        TOTAL FREE ENERGY PREDICTED BY IDOCK:   -8.21 KCAL/MOL
REMARK 923 INTER-LIGAND FREE ENERGY PREDICTED BY IDOCK:   -7.44 KCAL/MOL
REMARK 924 INTRA-LIGAND FREE ENERGY PREDICTED BY IDOCK:   -0.77 KCAL/MOL
REMARK 927      BINDING AFFINITY PREDICTED BY RF-SCORE:    0.00 PKD
ROOT
HETATM    1  O   UNL     1      -9.958  10.605  62.952  1.00  0.00    -0.300 OA 
HETATM    2  N   UNL     1      -9.846  10.668  64.173  1.00  0.00    -0.311 N  
HETATM    3  O   UNL     1      -9.955   9.788  65.028  1.00  0.00    -0.286 OA 
HETATM    4  O   UNL     1      -9.536  11.976  64.629  1.00  0.00    -0.124 OA 
ENDROOT
BRANCH   4   5
HETATM    5  C   UNL     1      -9.434  12.050  66.051  1.00  0.00    -0.219 C  
BRANCH   5   6
HETATM    6  C   UNL     1     -10.091  13.367  66.539  1.00  0.00    -0.280 C  
BRANCH   6   7
HETATM    7  O   UNL     1      -9.957  14.460  65.615  1.00  0.00    -0.332 OA 
HETATM    8  O   UNL     1      -9.839  15.835  67.409  1.00  0.00    -0.230 OA 
HETATM    9  N   UNL     1      -9.803  15.748  66.184  1.00  0.00    -0.290 N  
HETATM   10  O   UNL     1      -9.610  16.620  65.342  1.00  0.00    -0.454 OA 
ENDBRANCH   6   7
BRANCH   6  11
HETATM   11  C   UNL     1     -11.549  13.195  67.046  1.00  0.00    -0.359 C  
BRANCH  11  12
HETATM   12  O   UNL     1     -12.233  12.301  66.162  1.00  0.00    -0.647 OA 
HETATM   13  O   UNL     1     -13.251  14.135  65.333  1.00  0.00    -0.741 OA 
HETATM   14  O   UNL     1     -13.069  12.267  64.123  1.00  0.00    -0.749 OA 
HETATM   15  N   UNL     1     -12.909  12.974  65.113  1.00  0.00    -0.408 N  
ENDBRANCH  11  12
BRANCH  11  16
HETATM   16  C   UNL     1     -11.629  12.699  68.506  1.00  0.00    -0.323 C  
BRANCH  16  17
HETATM   17  O   UNL     1     -11.982  13.757  69.394  1.00  0.00    -0.312 OA 
HETATM   18  N   UNL     1     -12.283  13.271  70.703  1.00  0.00    -0.366 N  
HETATM   19  O   UNL     1     -12.496  14.177  71.505  1.00  0.00    -0.336 OA 
HETATM   20  O   UNL     1     -12.310  12.053  70.854  1.00  0.00    -0.373 OA 
ENDBRANCH  16  17
ENDBRANCH  11  16
ENDBRANCH   6  11
ENDBRANCH   5   6
ENDBRANCH   4   5
TORSDOF 7
ENDMDL
MODEL       46
REMARK 921   NORMALIZED FREE ENERGY PREDICTED BY IDOCK:   -5.15 KCAL/MOL
REMARK 922        TOTAL FREE ENERGY PREDICTED BY IDOCK:   -8.20 KCAL/MOL
REMARK 923 INTER-LIGAND FREE ENERGY PREDICTED BY IDOCK:   -7.36 KCAL/MOL
REMARK 924 INTRA-LIGAND FREE ENERGY PREDICTED BY IDOCK:   -0.84 KCAL/MOL
REMARK 927      BINDING AFFINITY PREDICTED BY RF-SCORE:    0.00 PKD
ROOT
HETATM    1  O   UNL     1      -6.596  18.795  64.830  1.00  0.00    -0.516 OA 
HETATM    2  N   UNL     1      -6.780  17.866  65.612  1.00  0.00    -0.225 N  
HETATM    3  O   UNL     1      -5.994  17.300  66.373  1.00  0.00    -0.194 OA 
HETATM    4  O   UNL     1      -8.123  17.405  65.612  1.00  0.00    -0.485 OA 
ENDROOT
BRANCH   4   5
HETATM    5  C   UNL     1      -8.324  16.306  66.502  1.00  0.00    -0.308 C  
BRANCH   5   6
HETATM    6  C   UNL     1      -9.713  16.449  67.176  1.00  0.00    -0.239 C  
BRANCH   6   7
HETATM    7  O   UNL     1     -10.409  17.657  66.824  1.00  0.00    -0.332 OA 
HETATM    8  O   UNL     1      -9.929  18.423  68.899  1.00  0.00    -0.381 OA 
HETATM    9  N   UNL     1     -10.449  18.670  67.813  1.00  0.00    -0.410 N  
HETATM   10  O   UNL     1     -10.982  19.702  67.417  1.00  0.00    -0.448 OA 
ENDBRANCH   6   7
BRANCH   6  11
HETATM   11  C   UNL     1     -10.611  15.188  67.045  1.00  0.00    -0.300 C  
BRANCH  11  12
HETATM   12  O   UNL     1     -11.778  15.378  67.852  1.00  0.00    -0.319 OA 
HETATM   13  O   UNL     1     -11.112  13.546  68.987  1.00  0.00    -0.252 OA 
HETATM   14  O   UNL     1     -12.458  15.061  69.924  1.00  0.00    -0.297 OA 
HETATM   15  N   UNL     1     -11.771  14.585  69.026  1.00  0.00    -0.294 N  
ENDBRANCH  11  12
BRANCH  11  16
HETATM   16  C   UNL     1     -10.993  14.865  65.585  1.00  0.00    -0.344 C  
BRANCH  16  17
HETATM   17  O   UNL     1     -12.242  14.178  65.516  1.00  0.00    -0.396 OA 
HETATM   18  N   UNL     1     -12.203  13.104  64.576  1.00  0.00    -0.399 N  
HETATM   19  O   UNL     1     -13.239  12.443  64.572  1.00  0.00    -0.834 OA 
HETATM   20  O   UNL     1     -11.185  12.990  63.898  1.00  0.00    -0.394 OA 
ENDBRANCH  16  17
ENDBRANCH  11  16
ENDBRANCH   6  11
ENDBRANCH   5   6
ENDBRANCH   4   5
TORSDOF 7
ENDMDL
MODEL       47
REMARK 921   NORMALIZED FREE ENERGY PREDICTED BY IDOCK:   -5.15 KCAL/MOL
REMARK 922        TOTAL FREE ENERGY PREDICTED BY IDOCK:   -8.20 KCAL/MOL
REMARK 923 INTER-LIGAND FREE ENERGY PREDICTED BY IDOCK:   -7.14 KCAL/MOL
REMARK 924 INTRA-LIGAND FREE ENERGY PREDICTED BY IDOCK:   -1.05 KCAL/MOL
REMARK 927      BINDING AFFINITY PREDICTED BY RF-SCORE:    0.00 PKD
ROOT
HETATM    1  O   UNL     1     -13.373  11.977  63.845  1.00  0.00    -0.669 OA 
HETATM    2  N   UNL     1     -12.242  12.454  63.882  1.00  0.00    -0.474 N  
HETATM    3  O   UNL     1     -11.178  12.013  63.445  1.00  0.00    -0.413 OA 
HETATM    4  O   UNL     1     -12.198  13.715  64.534  1.00  0.00    -0.410 OA 
ENDROOT
BRANCH   4   5
HETATM    5  C   UNL     1     -10.877  14.252  64.599  1.00  0.00    -0.368 C  
BRANCH   5   6
HETATM    6  C   UNL     1     -10.659  14.893  65.994  1.00  0.00    -0.315 C  
BRANCH   6   7
HETATM    7  O   UNL     1     -11.035  16.279  66.061  1.00  0.00    -0.172 OA 
HETATM    8  O   UNL     1      -8.866  16.787  65.662  1.00  0.00    -0.461 OA 
HETATM    9  N   UNL     1     -10.001  17.222  65.845  1.00  0.00    -0.223 N  
HETATM   10  O   UNL     1     -10.408  18.380  65.833  1.00  0.00    -0.545 OA 
ENDBRANCH   6   7
BRANCH   6  11
HETATM   11  C   UNL     1     -11.243  14.062  67.169  1.00  0.00    -0.313 C  
BRANCH  11  12
HETATM   12  O   UNL     1     -10.286  13.062  67.536  1.00  0.00    -0.221 OA 
HETATM   13  O   UNL     1     -11.946  11.567  67.217  1.00  0.00    -0.605 OA 
HETATM   14  O   UNL     1      -9.801  10.958  67.093  1.00  0.00    -0.179 OA 
HETATM   15  N   UNL     1     -10.729  11.746  67.251  1.00  0.00    -0.227 N  
ENDBRANCH  11  12
BRANCH  11  16
HETATM   16  C   UNL     1     -11.635  14.926  68.387  1.00  0.00    -0.325 C  
BRANCH  16  17
HETATM   17  O   UNL     1     -12.308  14.151  69.377  1.00  0.00    -0.326 OA 
HETATM   18  N   UNL     1     -11.810  14.420  70.688  1.00  0.00    -0.302 N  
HETATM   19  O   UNL     1     -12.442  13.833  71.563  1.00  0.00    -0.337 OA 
HETATM   20  O   UNL     1     -10.835  15.162  70.774  1.00  0.00    -0.258 OA 
ENDBRANCH  16  17
ENDBRANCH  11  16
ENDBRANCH   6  11
ENDBRANCH   5   6
ENDBRANCH   4   5
TORSDOF 7
ENDMDL
MODEL       48
REMARK 921   NORMALIZED FREE ENERGY PREDICTED BY IDOCK:   -5.15 KCAL/MOL
REMARK 922        TOTAL FREE ENERGY PREDICTED BY IDOCK:   -8.19 KCAL/MOL
REMARK 923 INTER-LIGAND FREE ENERGY PREDICTED BY IDOCK:   -7.50 KCAL/MOL
REMARK 924 INTRA-LIGAND FREE ENERGY PREDICTED BY IDOCK:   -0.70 KCAL/MOL
REMARK 927      BINDING AFFINITY PREDICTED BY RF-SCORE:    0.00 PKD
ROOT
HETATM    1  O   UNL     1     -13.841  15.628  71.221  1.00  0.00    -0.573 OA 
HETATM    2  N   UNL     1     -12.747  15.367  70.728  1.00  0.00    -0.436 N  
HETATM    3  O   UNL     1     -11.705  16.025  70.713  1.00  0.00    -0.379 OA 
HETATM    4  O   UNL     1     -12.719  14.099  70.091  1.00  0.00    -0.320 OA 
ENDROOT
BRANCH   4   5
HETATM    5  C   UNL     1     -11.453  13.813  69.496  1.00  0.00    -0.267 C  
BRANCH   5   6
HETATM    6  C   UNL     1     -11.322  12.282  69.293  1.00  0.00    -0.256 C  
BRANCH   6   7
HETATM    7  O   UNL     1     -12.343  11.519  69.958  1.00  0.00    -0.269 OA 
HETATM    8  O   UNL     1     -10.695  10.178  70.739  1.00  0.00    -0.282 OA 
HETATM    9  N   UNL     1     -11.901  10.418  70.732  1.00  0.00    -0.340 N  
HETATM   10  O   UNL     1     -12.813   9.865  71.338  1.00  0.00    -0.346 OA 
ENDBRANCH   6   7
BRANCH   6  11
HETATM   11  C   UNL     1     -11.134  11.855  67.811  1.00  0.00    -0.239 C  
BRANCH  11  12
HETATM   12  O   UNL     1     -11.563  10.496  67.674  1.00  0.00    -0.447 OA 
HETATM   13  O   UNL     1      -9.453  10.051  67.014  1.00  0.00    -0.157 OA 
HETATM   14  O   UNL     1     -10.759   8.453  67.865  1.00  0.00    -0.182 OA 
HETATM   15  N   UNL     1     -10.484   9.593  67.503  1.00  0.00    -0.245 N  
ENDBRANCH  11  12
BRANCH  11  16
HETATM   16  C   UNL     1     -11.876  12.773  66.816  1.00  0.00    -0.382 C  
BRANCH  16  17
HETATM   17  O   UNL     1     -12.154  12.094  65.593  1.00  0.00    -0.545 OA 
HETATM   18  N   UNL     1     -12.887  12.918  64.686  1.00  0.00    -0.318 N  
HETATM   19  O   UNL     1     -13.052  12.384  63.591  1.00  0.00    -0.748 OA 
HETATM   20  O   UNL     1     -13.264  14.010  65.102  1.00  0.00    -0.768 OA 
ENDBRANCH  16  17
ENDBRANCH  11  16
ENDBRANCH   6  11
ENDBRANCH   5   6
ENDBRANCH   4   5
TORSDOF 7
ENDMDL
MODEL       49
REMARK 921   NORMALIZED FREE ENERGY PREDICTED BY IDOCK:   -5.12 KCAL/MOL
REMARK 922        TOTAL FREE ENERGY PREDICTED BY IDOCK:   -8.16 KCAL/MOL
REMARK 923 INTER-LIGAND FREE ENERGY PREDICTED BY IDOCK:   -7.47 KCAL/MOL
REMARK 924 INTRA-LIGAND FREE ENERGY PREDICTED BY IDOCK:   -0.69 KCAL/MOL
REMARK 927      BINDING AFFINITY PREDICTED BY RF-SCORE:    0.00 PKD
ROOT
HETATM    1  O   UNL     1     -10.222  10.985  68.248  1.00  0.00    -0.165 OA 
HETATM    2  N   UNL     1      -9.609  12.047  68.318  1.00  0.00    -0.202 N  
HETATM    3  O   UNL     1      -8.396  12.264  68.338  1.00  0.00    -0.167 OA 
HETATM    4  O   UNL     1     -10.468  13.175  68.381  1.00  0.00    -0.243 OA 
ENDROOT
BRANCH   4   5
HETATM    5  C   UNL     1      -9.750  14.404  68.491  1.00  0.00    -0.225 C  
BRANCH   5   6
HETATM    6  C   UNL     1     -10.760  15.580  68.522  1.00  0.00    -0.259 C  
BRANCH   6   7
HETATM    7  O   UNL     1     -10.864  16.223  69.803  1.00  0.00    -0.318 OA 
HETATM    8  O   UNL     1     -12.612  14.853  70.241  1.00  0.00    -0.339 OA 
HETATM    9  N   UNL     1     -11.879  15.743  70.667  1.00  0.00    -0.360 N  
HETATM   10  O   UNL     1     -11.856  16.277  71.771  1.00  0.00    -0.487 OA 
ENDBRANCH   6   7
BRANCH   6  11
HETATM   11  C   UNL     1     -10.580  16.597  67.361  1.00  0.00    -0.295 C  
BRANCH  11  12
HETATM   12  O   UNL     1      -9.605  17.567  67.756  1.00  0.00    -0.260 OA 
HETATM   13  O   UNL     1     -11.127  19.123  67.164  1.00  0.00    -0.396 OA 
HETATM   14  O   UNL     1      -9.504  19.590  68.624  1.00  0.00    -0.375 OA 
HETATM   15  N   UNL     1     -10.139  18.876  67.854  1.00  0.00    -0.352 N  
ENDBRANCH  11  12
BRANCH  11  16
HETATM   16  C   UNL     1     -10.188  15.930  66.025  1.00  0.00    -0.334 C  
BRANCH  16  17
HETATM   17  O   UNL     1     -11.209  15.044  65.568  1.00  0.00    -0.344 OA 
HETATM   18  N   UNL     1     -11.832  15.526  64.377  1.00  0.00    -0.322 N  
HETATM   19  O   UNL     1     -12.647  14.730  63.916  1.00  0.00    -0.834 OA 
HETATM   20  O   UNL     1     -11.503  16.642  63.986  1.00  0.00    -1.192 OA 
ENDBRANCH  16  17
ENDBRANCH  11  16
ENDBRANCH   6  11
ENDBRANCH   5   6
ENDBRANCH   4   5
TORSDOF 7
ENDMDL
MODEL       50
REMARK 921   NORMALIZED FREE ENERGY PREDICTED BY IDOCK:   -5.12 KCAL/MOL
REMARK 922        TOTAL FREE ENERGY PREDICTED BY IDOCK:   -8.15 KCAL/MOL
REMARK 923 INTER-LIGAND FREE ENERGY PREDICTED BY IDOCK:   -7.43 KCAL/MOL
REMARK 924 INTRA-LIGAND FREE ENERGY PREDICTED BY IDOCK:   -0.71 KCAL/MOL
REMARK 927      BINDING AFFINITY PREDICTED BY RF-SCORE:    0.00 PKD
ROOT
HETATM    1  O   UNL     1     -10.510   8.140  66.860  1.00  0.00    -0.328 OA 
HETATM    2  N   UNL     1     -10.690   9.225  67.405  1.00  0.00    -0.253 N  
HETATM    3  O   UNL     1     -10.759   9.512  68.601  1.00  0.00    -0.220 OA 
HETATM    4  O   UNL     1     -10.833  10.289  66.476  1.00  0.00    -0.123 OA 
ENDROOT
BRANCH   4   5
HETATM    5  C   UNL     1     -11.071  11.544  67.115  1.00  0.00    -0.297 C  
BRANCH   5   6
HETATM    6  C   UNL     1     -11.357  12.617  66.033  1.00  0.00    -0.327 C  
BRANCH   6   7
HETATM    7  O   UNL     1     -12.545  12.364  65.265  1.00  0.00    -0.636 OA 
HETATM    8  O   UNL     1     -11.234  12.368  63.419  1.00  0.00    -0.456 OA 
HETATM    9  N   UNL     1     -12.370  12.223  63.866  1.00  0.00    -0.495 N  
HETATM   10  O   UNL     1     -13.409  11.925  63.284  1.00  0.00    -0.507 OA 
ENDBRANCH   6   7
BRANCH   6  11
HETATM   11  C   UNL     1     -11.291  14.078  66.560  1.00  0.00    -0.336 C  
BRANCH  11  12
HETATM   12  O   UNL     1     -11.957  14.927  65.620  1.00  0.00    -0.221 OA 
HETATM   13  O   UNL     1     -10.174  16.295  65.815  1.00  0.00    -0.345 OA 
HETATM   14  O   UNL     1     -11.477  16.346  64.003  1.00  0.00    -1.048 OA 
HETATM   15  N   UNL     1     -11.116  15.945  65.105  1.00  0.00    -0.344 N  
ENDBRANCH  11  12
BRANCH  11  16
HETATM   16  C   UNL     1     -11.889  14.240  67.974  1.00  0.00    -0.344 C  
BRANCH  16  17
HETATM   17  O   UNL     1     -11.281  15.326  68.671  1.00  0.00    -0.264 OA 
HETATM   18  N   UNL     1     -11.959  15.614  69.894  1.00  0.00    -0.361 N  
HETATM   19  O   UNL     1     -11.393  16.483  70.554  1.00  0.00    -0.311 OA 
HETATM   20  O   UNL     1     -12.996  14.995  70.119  1.00  0.00    -0.218 OA 
ENDBRANCH  16  17
ENDBRANCH  11  16
ENDBRANCH   6  11
ENDBRANCH   5   6
ENDBRANCH   4   5
TORSDOF 7
ENDMDL
MODEL       51
REMARK 921   NORMALIZED FREE ENERGY PREDICTED BY IDOCK:   -5.11 KCAL/MOL
REMARK 922        TOTAL FREE ENERGY PREDICTED BY IDOCK:   -8.14 KCAL/MOL
REMARK 923 INTER-LIGAND FREE ENERGY PREDICTED BY IDOCK:   -7.22 KCAL/MOL
REMARK 924 INTRA-LIGAND FREE ENERGY PREDICTED BY IDOCK:   -0.92 KCAL/MOL
REMARK 927      BINDING AFFINITY PREDICTED BY RF-SCORE:    0.00 PKD
ROOT
HETATM    1  O   UNL     1     -12.632  15.129  63.946  1.00  0.00    -0.794 OA 
HETATM    2  N   UNL     1     -12.433  14.315  64.844  1.00  0.00    -0.426 N  
HETATM    3  O   UNL     1     -13.106  13.348  65.204  1.00  0.00    -0.724 OA 
HETATM    4  O   UNL     1     -11.225  14.559  65.549  1.00  0.00    -0.317 OA 
ENDROOT
BRANCH   4   5
HETATM    5  C   UNL     1     -11.013  13.627  66.610  1.00  0.00    -0.292 C  
BRANCH   5   6
HETATM    6  C   UNL     1     -10.927  14.397  67.952  1.00  0.00    -0.262 C  
BRANCH   6   7
HETATM    7  O   UNL     1     -11.386  15.757  67.872  1.00  0.00    -0.338 OA 
HETATM    8  O   UNL     1      -9.321  16.390  68.551  1.00  0.00    -0.209 OA 
HETATM    9  N   UNL     1     -10.437  16.759  68.192  1.00  0.00    -0.315 N  
HETATM   10  O   UNL     1     -10.869  17.895  68.021  1.00  0.00    -0.347 OA 
ENDBRANCH   6   7
BRANCH   6  11
HETATM   11  C   UNL     1     -11.543  13.634  69.158  1.00  0.00    -0.309 C  
BRANCH  11  12
HETATM   12  O   UNL     1     -12.767  14.280  69.524  1.00  0.00    -0.127 OA 
HETATM   13  O   UNL     1     -11.891  14.439  71.597  1.00  0.00    -0.276 OA 
HETATM   14  O   UNL     1     -13.500  15.826  70.912  1.00  0.00    -0.568 OA 
HETATM   15  N   UNL     1     -12.701  14.902  70.796  1.00  0.00    -0.341 N  
ENDBRANCH  11  12
BRANCH  11  16
HETATM   16  C   UNL     1     -11.771  12.134  68.874  1.00  0.00    -0.327 C  
BRANCH  16  17
HETATM   17  O   UNL     1     -12.360  11.478  69.996  1.00  0.00    -0.269 OA 
HETATM   18  N   UNL     1     -11.484  10.499  70.555  1.00  0.00    -0.332 N  
HETATM   19  O   UNL     1     -11.937   9.991  71.579  1.00  0.00    -0.377 OA 
HETATM   20  O   UNL     1     -10.435  10.279  69.956  1.00  0.00    -0.268 OA 
ENDBRANCH  16  17
ENDBRANCH  11  16
ENDBRANCH   6  11
ENDBRANCH   5   6
ENDBRANCH   4   5
TORSDOF 7
ENDMDL
MODEL       52
REMARK 921   NORMALIZED FREE ENERGY PREDICTED BY IDOCK:   -5.10 KCAL/MOL
REMARK 922        TOTAL FREE ENERGY PREDICTED BY IDOCK:   -8.13 KCAL/MOL
REMARK 923 INTER-LIGAND FREE ENERGY PREDICTED BY IDOCK:   -7.33 KCAL/MOL
REMARK 924 INTRA-LIGAND FREE ENERGY PREDICTED BY IDOCK:   -0.80 KCAL/MOL
REMARK 927      BINDING AFFINITY PREDICTED BY RF-SCORE:    0.00 PKD
ROOT
HETATM    1  O   UNL     1     -10.940  19.147  65.095  1.00  0.00    -0.464 OA 
HETATM    2  N   UNL     1     -10.479  18.276  65.829  1.00  0.00    -0.331 N  
HETATM    3  O   UNL     1     -10.043  18.354  66.978  1.00  0.00    -0.328 OA 
HETATM    4  O   UNL     1     -10.468  16.994  65.220  1.00  0.00    -0.649 OA 
ENDROOT
BRANCH   4   5
HETATM    5  C   UNL     1      -9.905  15.991  66.066  1.00  0.00    -0.337 C  
BRANCH   5   6
HETATM    6  C   UNL     1     -10.845  14.758  66.086  1.00  0.00    -0.321 C  
BRANCH   6   7
HETATM    7  O   UNL     1     -10.968  14.101  64.814  1.00  0.00    -0.371 OA 
HETATM    8  O   UNL     1     -13.209  14.105  65.138  1.00  0.00    -0.743 OA 
HETATM    9  N   UNL     1     -12.286  13.813  64.380  1.00  0.00    -0.412 N  
HETATM   10  O   UNL     1     -12.321  13.331  63.252  1.00  0.00    -0.721 OA 
ENDBRANCH   6   7
BRANCH   6  11
HETATM   11  C   UNL     1     -10.554  13.762  67.242  1.00  0.00    -0.275 C  
BRANCH  11  12
HETATM   12  O   UNL     1      -9.380  14.201  67.934  1.00  0.00    -0.192 OA 
HETATM   13  O   UNL     1      -8.581  12.119  67.596  1.00  0.00    -0.149 OA 
HETATM   14  O   UNL     1      -7.206  13.842  67.948  1.00  0.00    -0.122 OA 
HETATM   15  N   UNL     1      -8.296  13.297  67.807  1.00  0.00    -0.157 N  
ENDBRANCH  11  12
BRANCH  11  16
HETATM   16  C   UNL     1     -11.742  13.598  68.215  1.00  0.00    -0.363 C  
BRANCH  16  17
HETATM   17  O   UNL     1     -12.066  14.833  68.850  1.00  0.00    -0.279 OA 
HETATM   18  N   UNL     1     -12.365  14.654  70.234  1.00  0.00    -0.334 N  
HETATM   19  O   UNL     1     -12.554  15.719  70.818  1.00  0.00    -0.436 OA 
HETATM   20  O   UNL     1     -12.415  13.500  70.651  1.00  0.00    -0.346 OA 
ENDBRANCH  16  17
ENDBRANCH  11  16
ENDBRANCH   6  11
ENDBRANCH   5   6
ENDBRANCH   4   5
TORSDOF 7
ENDMDL
MODEL       53
REMARK 921   NORMALIZED FREE ENERGY PREDICTED BY IDOCK:   -5.09 KCAL/MOL
REMARK 922        TOTAL FREE ENERGY PREDICTED BY IDOCK:   -8.11 KCAL/MOL
REMARK 923 INTER-LIGAND FREE ENERGY PREDICTED BY IDOCK:   -7.26 KCAL/MOL
REMARK 924 INTRA-LIGAND FREE ENERGY PREDICTED BY IDOCK:   -0.86 KCAL/MOL
REMARK 927      BINDING AFFINITY PREDICTED BY RF-SCORE:    0.00 PKD
ROOT
HETATM    1  O   UNL     1     -10.619   9.365  71.367  1.00  0.00    -0.331 OA 
HETATM    2  N   UNL     1     -11.518  10.188  71.216  1.00  0.00    -0.322 N  
HETATM    3  O   UNL     1     -12.639  10.243  71.724  1.00  0.00    -0.405 OA 
HETATM    4  O   UNL     1     -11.169  11.222  70.309  1.00  0.00    -0.191 OA 
ENDROOT
BRANCH   4   5
HETATM    5  C   UNL     1     -12.228  12.161  70.115  1.00  0.00    -0.231 C  
BRANCH   5   6
HETATM    6  C   UNL     1     -11.765  13.246  69.109  1.00  0.00    -0.329 C  
BRANCH   6   7
HETATM    7  O   UNL     1     -12.406  13.157  67.825  1.00  0.00    -0.161 OA 
HETATM    8  O   UNL     1     -10.562  12.070  67.088  1.00  0.00    -0.216 OA 
HETATM    9  N   UNL     1     -11.685  12.484  66.808  1.00  0.00    -0.386 N  
HETATM   10  O   UNL     1     -12.323  12.372  65.766  1.00  0.00    -0.644 OA 
ENDBRANCH   6   7
BRANCH   6  11
HETATM   11  C   UNL     1     -11.786  14.689  69.683  1.00  0.00    -0.313 C  
BRANCH  11  12
HETATM   12  O   UNL     1     -11.905  15.608  68.592  1.00  0.00    -0.372 OA 
HETATM   13  O   UNL     1     -10.069  16.615  69.432  1.00  0.00    -0.256 OA 
HETATM   14  O   UNL     1     -10.627  16.835  67.281  1.00  0.00    -0.320 OA 
HETATM   15  N   UNL     1     -10.756  16.422  68.429  1.00  0.00    -0.310 N  
ENDBRANCH  11  12
BRANCH  11  16
HETATM   16  C   UNL     1     -12.905  14.913  70.721  1.00  0.00    -0.372 C  
BRANCH  16  17
HETATM   17  O   UNL     1     -12.393  15.495  71.919  1.00  0.00    -0.328 OA 
HETATM   18  N   UNL     1     -12.871  14.819  73.082  1.00  0.00    -0.494 N  
HETATM   19  O   UNL     1     -12.366  15.246  74.117  1.00  0.00    -0.594 OA 
HETATM   20  O   UNL     1     -13.712  13.940  72.912  1.00  0.00    -0.680 OA 
ENDBRANCH  16  17
ENDBRANCH  11  16
ENDBRANCH   6  11
ENDBRANCH   5   6
ENDBRANCH   4   5
TORSDOF 7
ENDMDL
MODEL       54
REMARK 921   NORMALIZED FREE ENERGY PREDICTED BY IDOCK:   -5.09 KCAL/MOL
REMARK 922        TOTAL FREE ENERGY PREDICTED BY IDOCK:   -8.11 KCAL/MOL
REMARK 923 INTER-LIGAND FREE ENERGY PREDICTED BY IDOCK:   -7.04 KCAL/MOL
REMARK 924 INTRA-LIGAND FREE ENERGY PREDICTED BY IDOCK:   -1.08 KCAL/MOL
REMARK 927      BINDING AFFINITY PREDICTED BY RF-SCORE:    0.00 PKD
ROOT
HETATM    1  O   UNL     1     -10.594   9.781  67.302  1.00  0.00    -0.258 OA 
HETATM    2  N   UNL     1     -11.265  10.734  67.688  1.00  0.00    -0.317 N  
HETATM    3  O   UNL     1     -11.984  10.849  68.682  1.00  0.00    -0.484 OA 
HETATM    4  O   UNL     1     -11.167  11.860  66.828  1.00  0.00    -0.294 OA 
ENDROOT
BRANCH   4   5
HETATM    5  C   UNL     1     -11.972  12.955  67.267  1.00  0.00    -0.309 C  
BRANCH   5   6
HETATM    6  C   UNL     1     -11.256  14.283  66.913  1.00  0.00    -0.326 C  
BRANCH   6   7
HETATM    7  O   UNL     1     -10.244  14.668  67.859  1.00  0.00    -0.224 OA 
HETATM    8  O   UNL     1     -11.762  16.086  68.760  1.00  0.00    -0.385 OA 
HETATM    9  N   UNL     1     -10.623  15.629  68.829  1.00  0.00    -0.229 N  
HETATM   10  O   UNL     1      -9.740  15.847  69.653  1.00  0.00    -0.265 OA 
ENDBRANCH   6   7
BRANCH   6  11
HETATM   11  C   UNL     1     -10.754  14.358  65.445  1.00  0.00    -0.348 C  
BRANCH  11  12
HETATM   12  O   UNL     1     -11.885  14.241  64.574  1.00  0.00    -0.408 OA 
HETATM   13  O   UNL     1     -10.782  12.523  63.614  1.00  0.00    -0.430 OA 
HETATM   14  O   UNL     1     -13.003  12.695  63.472  1.00  0.00    -0.683 OA 
HETATM   15  N   UNL     1     -11.879  13.039  63.823  1.00  0.00    -0.473 N  
ENDBRANCH  11  12
BRANCH  11  16
HETATM   16  C   UNL     1      -9.953  15.642  65.142  1.00  0.00    -0.083 C  
BRANCH  16  17
HETATM   17  O   UNL     1     -10.756  16.808  65.317  1.00  0.00    -0.576 OA 
HETATM   18  N   UNL     1     -10.059  17.828  66.031  1.00  0.00    -0.288 N  
HETATM   19  O   UNL     1     -10.700  18.874  66.107  1.00  0.00    -0.405 OA 
HETATM   20  O   UNL     1      -8.953  17.540  66.482  1.00  0.00    -0.252 OA 
ENDBRANCH  16  17
ENDBRANCH  11  16
ENDBRANCH   6  11
ENDBRANCH   5   6
ENDBRANCH   4   5
TORSDOF 7
ENDMDL
MODEL       55
REMARK 921   NORMALIZED FREE ENERGY PREDICTED BY IDOCK:   -5.08 KCAL/MOL
REMARK 922        TOTAL FREE ENERGY PREDICTED BY IDOCK:   -8.10 KCAL/MOL
REMARK 923 INTER-LIGAND FREE ENERGY PREDICTED BY IDOCK:   -7.30 KCAL/MOL
REMARK 924 INTRA-LIGAND FREE ENERGY PREDICTED BY IDOCK:   -0.79 KCAL/MOL
REMARK 927      BINDING AFFINITY PREDICTED BY RF-SCORE:    0.00 PKD
ROOT
HETATM    1  O   UNL     1     -10.834   9.572  67.517  1.00  0.00    -0.280 OA 
HETATM    2  N   UNL     1     -11.425  10.620  67.766  1.00  0.00    -0.252 N  
HETATM    3  O   UNL     1     -12.304  10.859  68.595  1.00  0.00    -0.501 OA 
HETATM    4  O   UNL     1     -10.995  11.700  66.950  1.00  0.00    -0.263 OA 
ENDROOT
BRANCH   4   5
HETATM    5  C   UNL     1     -11.705  12.908  67.225  1.00  0.00    -0.373 C  
BRANCH   5   6
HETATM    6  C   UNL     1     -11.294  13.984  66.187  1.00  0.00    -0.321 C  
BRANCH   6   7
HETATM    7  O   UNL     1     -12.242  14.153  65.119  1.00  0.00    -0.395 OA 
HETATM    8  O   UNL     1     -10.798  13.026  63.789  1.00  0.00    -0.372 OA 
HETATM    9  N   UNL     1     -11.893  13.580  63.872  1.00  0.00    -0.428 N  
HETATM   10  O   UNL     1     -12.781  13.688  63.033  1.00  0.00    -0.681 OA 
ENDBRANCH   6   7
BRANCH   6  11
HETATM   11  C   UNL     1     -10.864  15.337  66.817  1.00  0.00    -0.312 C  
BRANCH  11  12
HETATM   12  O   UNL     1     -10.226  15.070  68.070  1.00  0.00    -0.225 OA 
HETATM   13  O   UNL     1     -11.657  16.573  68.953  1.00  0.00    -0.231 OA 
HETATM   14  O   UNL     1     -10.707  14.999  70.219  1.00  0.00    -0.218 OA 
HETATM   15  N   UNL     1     -10.937  15.600  69.175  1.00  0.00    -0.241 N  
ENDBRANCH  11  12
BRANCH  11  16
HETATM   16  C   UNL     1      -9.949  16.171  65.896  1.00  0.00    -0.356 C  
BRANCH  16  17
HETATM   17  O   UNL     1     -10.661  17.254  65.300  1.00  0.00    -0.667 OA 
HETATM   18  N   UNL     1     -10.439  18.480  65.997  1.00  0.00    -0.449 N  
HETATM   19  O   UNL     1     -10.968  19.441  65.442  1.00  0.00    -0.438 OA 
HETATM   20  O   UNL     1      -9.788  18.423  67.036  1.00  0.00    -0.301 OA 
ENDBRANCH  16  17
ENDBRANCH  11  16
ENDBRANCH   6  11
ENDBRANCH   5   6
ENDBRANCH   4   5
TORSDOF 7
ENDMDL
MODEL       56
REMARK 921   NORMALIZED FREE ENERGY PREDICTED BY IDOCK:   -5.07 KCAL/MOL
REMARK 922        TOTAL FREE ENERGY PREDICTED BY IDOCK:   -8.08 KCAL/MOL
REMARK 923 INTER-LIGAND FREE ENERGY PREDICTED BY IDOCK:   -7.18 KCAL/MOL
REMARK 924 INTRA-LIGAND FREE ENERGY PREDICTED BY IDOCK:   -0.90 KCAL/MOL
REMARK 927      BINDING AFFINITY PREDICTED BY RF-SCORE:    0.00 PKD
ROOT
HETATM    1  O   UNL     1      -6.728  14.461  69.447  1.00  0.00    -0.125 OA 
HETATM    2  N   UNL     1      -7.135  14.396  68.290  1.00  0.00    -0.100 N  
HETATM    3  O   UNL     1      -6.519  14.464  67.226  1.00  0.00    -0.295 OA 
HETATM    4  O   UNL     1      -8.540  14.209  68.212  1.00  0.00    -0.162 OA 
ENDROOT
BRANCH   4   5
HETATM    5  C   UNL     1      -9.012  14.163  66.865  1.00  0.00    -0.230 C  
BRANCH   5   6
HETATM    6  C   UNL     1     -10.421  14.804  66.799  1.00  0.00    -0.282 C  
BRANCH   6   7
HETATM    7  O   UNL     1     -10.682  15.509  65.573  1.00  0.00    -0.337 OA 
HETATM    8  O   UNL     1     -10.785  17.408  66.801  1.00  0.00    -0.236 OA 
HETATM    9  N   UNL     1     -10.840  16.913  65.677  1.00  0.00    -0.174 N  
HETATM   10  O   UNL     1     -10.974  17.460  64.587  1.00  0.00    -0.959 OA 
ENDBRANCH   6   7
BRANCH   6  11
HETATM   11  C   UNL     1     -11.575  13.836  67.182  1.00  0.00    -0.364 C  
BRANCH  11  12
HETATM   12  O   UNL     1     -12.130  14.265  68.429  1.00  0.00    -0.335 OA 
HETATM   13  O   UNL     1     -11.940  12.116  69.086  1.00  0.00    -0.299 OA 
HETATM   14  O   UNL     1     -12.018  13.777  70.575  1.00  0.00    -0.323 OA 
HETATM   15  N   UNL     1     -12.012  13.289  69.449  1.00  0.00    -0.313 N  
ENDBRANCH  11  12
BRANCH  11  16
HETATM   16  C   UNL     1     -12.666  13.733  66.095  1.00  0.00    -0.283 C  
BRANCH  16  17
HETATM   17  O   UNL     1     -12.552  12.516  65.360  1.00  0.00    -0.656 OA 
HETATM   18  N   UNL     1     -12.460  12.753  63.955  1.00  0.00    -0.378 N  
HETATM   19  O   UNL     1     -12.266  11.723  63.314  1.00  0.00    -0.489 OA 
HETATM   20  O   UNL     1     -12.600  13.912  63.573  1.00  0.00    -0.842 OA 
ENDBRANCH  16  17
ENDBRANCH  11  16
ENDBRANCH   6  11
ENDBRANCH   5   6
ENDBRANCH   4   5
TORSDOF 7
ENDMDL
MODEL       57
REMARK 921   NORMALIZED FREE ENERGY PREDICTED BY IDOCK:   -5.06 KCAL/MOL
REMARK 922        TOTAL FREE ENERGY PREDICTED BY IDOCK:   -8.07 KCAL/MOL
REMARK 923 INTER-LIGAND FREE ENERGY PREDICTED BY IDOCK:   -7.31 KCAL/MOL
REMARK 924 INTRA-LIGAND FREE ENERGY PREDICTED BY IDOCK:   -0.77 KCAL/MOL
REMARK 927      BINDING AFFINITY PREDICTED BY RF-SCORE:    0.00 PKD
ROOT
HETATM    1  O   UNL     1     -10.546  11.776  64.422  1.00  0.00    -0.276 OA 
HETATM    2  N   UNL     1     -11.228  12.352  65.266  1.00  0.00    -0.308 N  
HETATM    3  O   UNL     1     -12.449  12.494  65.339  1.00  0.00    -0.630 OA 
HETATM    4  O   UNL     1     -10.448  12.925  66.305  1.00  0.00    -0.262 OA 
ENDROOT
BRANCH   4   5
HETATM    5  C   UNL     1     -11.243  13.617  67.268  1.00  0.00    -0.309 C  
BRANCH   5   6
HETATM    6  C   UNL     1     -10.773  15.092  67.348  1.00  0.00    -0.289 C  
BRANCH   6   7
HETATM    7  O   UNL     1     -11.397  15.954  66.381  1.00  0.00    -0.007 OA 
HETATM    8  O   UNL     1      -9.460  15.879  65.210  1.00  0.00    -0.306 OA 
HETATM    9  N   UNL     1     -10.614  16.302  65.253  1.00  0.00    -0.379 N  
HETATM   10  O   UNL     1     -11.235  16.967  64.430  1.00  0.00    -1.167 OA 
ENDBRANCH   6   7
BRANCH   6  11
HETATM   11  C   UNL     1     -10.807  15.688  68.783  1.00  0.00    -0.262 C  
BRANCH  11  12
HETATM   12  O   UNL     1     -11.071  17.091  68.683  1.00  0.00    -0.272 OA 
HETATM   13  O   UNL     1      -8.832  17.361  68.649  1.00  0.00    -0.271 OA 
HETATM   14  O   UNL     1     -10.196  18.906  67.791  1.00  0.00    -0.351 OA 
HETATM   15  N   UNL     1      -9.921  17.845  68.342  1.00  0.00    -0.346 N  
ENDBRANCH  11  12
BRANCH  11  16
HETATM   16  C   UNL     1     -11.834  14.995  69.703  1.00  0.00    -0.324 C  
BRANCH  16  17
HETATM   17  O   UNL     1     -12.158  15.812  70.827  1.00  0.00    -0.375 OA 
HETATM   18  N   UNL     1     -13.161  15.211  71.646  1.00  0.00    -0.374 N  
HETATM   19  O   UNL     1     -13.384  15.856  72.669  1.00  0.00    -0.487 OA 
HETATM   20  O   UNL     1     -13.673  14.174  71.234  1.00  0.00    -0.311 OA 
ENDBRANCH  16  17
ENDBRANCH  11  16
ENDBRANCH   6  11
ENDBRANCH   5   6
ENDBRANCH   4   5
TORSDOF 7
ENDMDL
MODEL       58
REMARK 921   NORMALIZED FREE ENERGY PREDICTED BY IDOCK:   -5.06 KCAL/MOL
REMARK 922        TOTAL FREE ENERGY PREDICTED BY IDOCK:   -8.07 KCAL/MOL
REMARK 923 INTER-LIGAND FREE ENERGY PREDICTED BY IDOCK:   -7.32 KCAL/MOL
REMARK 924 INTRA-LIGAND FREE ENERGY PREDICTED BY IDOCK:   -0.75 KCAL/MOL
REMARK 927      BINDING AFFINITY PREDICTED BY RF-SCORE:    0.00 PKD
ROOT
HETATM    1  O   UNL     1      -6.631  18.553  65.172  1.00  0.00    -0.479 OA 
HETATM    2  N   UNL     1      -6.910  17.504  65.744  1.00  0.00    -0.166 N  
HETATM    3  O   UNL     1      -6.187  16.714  66.353  1.00  0.00    -0.266 OA 
HETATM    4  O   UNL     1      -8.293  17.191  65.674  1.00  0.00    -0.450 OA 
ENDROOT
BRANCH   4   5
HETATM    5  C   UNL     1      -8.607  15.955  66.318  1.00  0.00    -0.313 C  
BRANCH   5   6
HETATM    6  C   UNL     1     -10.009  16.067  66.971  1.00  0.00    -0.257 C  
BRANCH   6   7
HETATM    7  O   UNL     1     -10.656  17.330  66.746  1.00  0.00    -0.286 OA 
HETATM    8  O   UNL     1      -9.861  17.987  68.761  1.00  0.00    -0.349 OA 
HETATM    9  N   UNL     1     -10.497  18.307  67.759  1.00  0.00    -0.405 N  
HETATM   10  O   UNL     1     -11.002  19.386  67.464  1.00  0.00    -0.464 OA 
ENDBRANCH   6   7
BRANCH   6  11
HETATM   11  C   UNL     1     -10.942  14.861  66.673  1.00  0.00    -0.325 C  
BRANCH  11  12
HETATM   12  O   UNL     1     -11.004  14.677  65.254  1.00  0.00    -0.325 OA 
HETATM   13  O   UNL     1     -13.188  14.203  65.558  1.00  0.00    -0.688 OA 
HETATM   14  O   UNL     1     -12.425  14.925  63.588  1.00  0.00    -0.699 OA 
HETATM   15  N   UNL     1     -12.332  14.596  64.767  1.00  0.00    -0.407 N  
ENDBRANCH  11  12
BRANCH  11  16
HETATM   16  C   UNL     1     -10.501  13.562  67.381  1.00  0.00    -0.247 C  
BRANCH  16  17
HETATM   17  O   UNL     1     -10.081  12.576  66.440  1.00  0.00    -0.233 OA 
HETATM   18  N   UNL     1     -10.845  11.375  66.556  1.00  0.00    -0.281 N  
HETATM   19  O   UNL     1     -10.562  10.550  65.691  1.00  0.00    -0.177 OA 
HETATM   20  O   UNL     1     -11.648  11.311  67.484  1.00  0.00    -0.508 OA 
ENDBRANCH  16  17
ENDBRANCH  11  16
ENDBRANCH   6  11
ENDBRANCH   5   6
ENDBRANCH   4   5
TORSDOF 7
ENDMDL
MODEL       59
REMARK 921   NORMALIZED FREE ENERGY PREDICTED BY IDOCK:   -5.05 KCAL/MOL
REMARK 922        TOTAL FREE ENERGY PREDICTED BY IDOCK:   -8.06 KCAL/MOL
REMARK 923 INTER-LIGAND FREE ENERGY PREDICTED BY IDOCK:   -7.04 KCAL/MOL
REMARK 924 INTRA-LIGAND FREE ENERGY PREDICTED BY IDOCK:   -1.02 KCAL/MOL
REMARK 927      BINDING AFFINITY PREDICTED BY RF-SCORE:    0.00 PKD
ROOT
HETATM    1  O   UNL     1     -12.482  11.596  63.135  1.00  0.00    -0.427 OA 
HETATM    2  N   UNL     1     -12.568  12.723  63.616  1.00  0.00    -0.343 N  
HETATM    3  O   UNL     1     -12.392  13.825  63.094  1.00  0.00    -0.726 OA 
HETATM    4  O   UNL     1     -12.933  12.709  64.988  1.00  0.00    -0.812 OA 
ENDROOT
BRANCH   4   5
HETATM    5  C   UNL     1     -13.003  14.021  65.548  1.00  0.00    -0.316 C  
BRANCH   5   6
HETATM    6  C   UNL     1     -12.019  14.115  66.742  1.00  0.00    -0.447 C  
BRANCH   6   7
HETATM    7  O   UNL     1     -11.780  12.859  67.399  1.00  0.00    -0.340 OA 
HETATM    8  O   UNL     1     -12.176  13.919  69.359  1.00  0.00    -0.341 OA 
HETATM    9  N   UNL     1     -11.912  12.852  68.809  1.00  0.00    -0.298 N  
HETATM   10  O   UNL     1     -11.778  11.733  69.294  1.00  0.00    -0.283 OA 
ENDBRANCH   6   7
BRANCH   6  11
HETATM   11  C   UNL     1     -10.703  14.874  66.417  1.00  0.00    -0.316 C  
BRANCH  11  12
HETATM   12  O   UNL     1     -10.506  15.885  67.411  1.00  0.00    -0.293 OA 
HETATM   13  O   UNL     1     -10.082  17.284  65.694  1.00  0.00    -0.566 OA 
HETATM   14  O   UNL     1     -10.766  18.057  67.674  1.00  0.00    -0.415 OA 
HETATM   15  N   UNL     1     -10.448  17.191  66.865  1.00  0.00    -0.305 N  
ENDBRANCH  11  12
BRANCH  11  16
HETATM   16  C   UNL     1      -9.475  13.944  66.321  1.00  0.00    -0.215 C  
BRANCH  16  17
HETATM   17  O   UNL     1      -8.326  14.538  66.923  1.00  0.00    -0.194 OA 
HETATM   18  N   UNL     1      -7.877  13.792  68.055  1.00  0.00    -0.137 N  
HETATM   19  O   UNL     1      -6.834  14.235  68.528  1.00  0.00    -0.087 OA 
HETATM   20  O   UNL     1      -8.574  12.847  68.414  1.00  0.00    -0.174 OA 
ENDBRANCH  16  17
ENDBRANCH  11  16
ENDBRANCH   6  11
ENDBRANCH   5   6
ENDBRANCH   4   5
TORSDOF 7
ENDMDL
MODEL       60
REMARK 921   NORMALIZED FREE ENERGY PREDICTED BY IDOCK:   -5.05 KCAL/MOL
REMARK 922        TOTAL FREE ENERGY PREDICTED BY IDOCK:   -8.05 KCAL/MOL
REMARK 923 INTER-LIGAND FREE ENERGY PREDICTED BY IDOCK:   -6.97 KCAL/MOL
REMARK 924 INTRA-LIGAND FREE ENERGY PREDICTED BY IDOCK:   -1.09 KCAL/MOL
REMARK 927      BINDING AFFINITY PREDICTED BY RF-SCORE:    0.00 PKD
ROOT
HETATM    1  O   UNL     1     -12.877  14.477  70.705  1.00  0.00    -0.345 OA 
HETATM    2  N   UNL     1     -12.357  13.754  69.859  1.00  0.00    -0.308 N  
HETATM    3  O   UNL     1     -11.846  12.639  69.973  1.00  0.00    -0.329 OA 
HETATM    4  O   UNL     1     -12.373  14.328  68.561  1.00  0.00    -0.221 OA 
ENDROOT
BRANCH   4   5
HETATM    5  C   UNL     1     -11.743  13.496  67.587  1.00  0.00    -0.363 C  
BRANCH   5   6
HETATM    6  C   UNL     1     -11.176  14.385  66.451  1.00  0.00    -0.345 C  
BRANCH   6   7
HETATM    7  O   UNL     1     -12.063  14.531  65.329  1.00  0.00    -0.372 OA 
HETATM    8  O   UNL     1     -10.797  12.996  64.250  1.00  0.00    -0.363 OA 
HETATM    9  N   UNL     1     -11.788  13.721  64.200  1.00  0.00    -0.416 N  
HETATM   10  O   UNL     1     -12.632  13.835  63.316  1.00  0.00    -0.830 OA 
ENDBRANCH   6   7
BRANCH   6  11
HETATM   11  C   UNL     1     -10.607  15.746  66.938  1.00  0.00    -0.317 C  
BRANCH  11  12
HETATM   12  O   UNL     1      -9.391  15.499  67.653  1.00  0.00    -0.201 OA 
HETATM   13  O   UNL     1     -10.241  16.827  69.266  1.00  0.00    -0.288 OA 
HETATM   14  O   UNL     1      -8.670  15.310  69.726  1.00  0.00    -0.192 OA 
HETATM   15  N   UNL     1      -9.451  15.921  69.004  1.00  0.00    -0.232 N  
ENDBRANCH  11  12
BRANCH  11  16
HETATM   16  C   UNL     1     -10.381  16.755  65.792  1.00  0.00    -0.305 C  
BRANCH  16  17
HETATM   17  O   UNL     1     -10.634  18.092  66.220  1.00  0.00    -0.347 OA 
HETATM   18  N   UNL     1      -9.444  18.879  66.227  1.00  0.00    -0.326 N  
HETATM   19  O   UNL     1      -9.658  20.058  66.501  1.00  0.00    -0.379 OA 
HETATM   20  O   UNL     1      -8.388  18.300  65.985  1.00  0.00    -0.486 OA 
ENDBRANCH  16  17
ENDBRANCH  11  16
ENDBRANCH   6  11
ENDBRANCH   5   6
ENDBRANCH   4   5
TORSDOF 7
ENDMDL
MODEL       61
REMARK 921   NORMALIZED FREE ENERGY PREDICTED BY IDOCK:   -5.04 KCAL/MOL
REMARK 922        TOTAL FREE ENERGY PREDICTED BY IDOCK:   -8.04 KCAL/MOL
REMARK 923 INTER-LIGAND FREE ENERGY PREDICTED BY IDOCK:   -7.00 KCAL/MOL
REMARK 924 INTRA-LIGAND FREE ENERGY PREDICTED BY IDOCK:   -1.04 KCAL/MOL
REMARK 927      BINDING AFFINITY PREDICTED BY RF-SCORE:    0.00 PKD
ROOT
HETATM    1  O   UNL     1     -11.659  16.381  63.947  1.00  0.00    -1.100 OA 
HETATM    2  N   UNL     1     -12.079  15.287  64.314  1.00  0.00    -0.341 N  
HETATM    3  O   UNL     1     -12.543  14.353  63.659  1.00  0.00    -0.817 OA 
HETATM    4  O   UNL     1     -11.995  15.110  65.721  1.00  0.00    -0.051 OA 
ENDROOT
BRANCH   4   5
HETATM    5  C   UNL     1     -12.510  13.847  66.145  1.00  0.00    -0.436 C  
BRANCH   5   6
HETATM    6  C   UNL     1     -11.596  13.276  67.259  1.00  0.00    -0.359 C  
BRANCH   6   7
HETATM    7  O   UNL     1     -11.942  11.941  67.666  1.00  0.00    -0.575 OA 
HETATM    8  O   UNL     1     -11.960  12.701  69.799  1.00  0.00    -0.319 OA 
HETATM    9  N   UNL     1     -12.140  11.739  69.055  1.00  0.00    -0.276 N  
HETATM   10  O   UNL     1     -12.515  10.602  69.322  1.00  0.00    -0.304 OA 
ENDBRANCH   6   7
BRANCH   6  11
HETATM   11  C   UNL     1     -10.077  13.433  66.973  1.00  0.00    -0.247 C  
BRANCH  11  12
HETATM   12  O   UNL     1      -9.411  13.716  68.209  1.00  0.00    -0.208 OA 
HETATM   13  O   UNL     1      -9.324  15.856  67.503  1.00  0.00    -0.214 OA 
HETATM   14  O   UNL     1      -9.211  15.349  69.674  1.00  0.00    -0.264 OA 
HETATM   15  N   UNL     1      -9.313  15.104  68.476  1.00  0.00    -0.186 N  
ENDBRANCH  11  12
BRANCH  11  16
HETATM   16  C   UNL     1      -9.460  12.200  66.280  1.00  0.00    -0.232 C  
BRANCH  16  17
HETATM   17  O   UNL     1      -9.762  12.183  64.886  1.00  0.00    -0.191 OA 
HETATM   18  N   UNL     1     -10.230  10.903  64.462  1.00  0.00    -0.335 N  
HETATM   19  O   UNL     1     -10.586  10.896  63.286  1.00  0.00    -0.253 OA 
HETATM   20  O   UNL     1     -10.203   9.995  65.289  1.00  0.00    -0.296 OA 
ENDBRANCH  16  17
ENDBRANCH  11  16
ENDBRANCH   6  11
ENDBRANCH   5   6
ENDBRANCH   4   5
TORSDOF 7
ENDMDL
MODEL       62
REMARK 921   NORMALIZED FREE ENERGY PREDICTED BY IDOCK:   -5.04 KCAL/MOL
REMARK 922        TOTAL FREE ENERGY PREDICTED BY IDOCK:   -8.04 KCAL/MOL
REMARK 923 INTER-LIGAND FREE ENERGY PREDICTED BY IDOCK:   -7.21 KCAL/MOL
REMARK 924 INTRA-LIGAND FREE ENERGY PREDICTED BY IDOCK:   -0.82 KCAL/MOL
REMARK 927      BINDING AFFINITY PREDICTED BY RF-SCORE:    0.00 PKD
ROOT
HETATM    1  O   UNL     1     -10.907  19.183  67.606  1.00  0.00    -0.448 OA 
HETATM    2  N   UNL     1     -10.658  18.496  66.618  1.00  0.00    -0.380 N  
HETATM    3  O   UNL     1     -10.425  18.831  65.456  1.00  0.00    -0.569 OA 
HETATM    4  O   UNL     1     -10.643  17.106  66.905  1.00  0.00    -0.297 OA 
ENDROOT
BRANCH   4   5
HETATM    5  C   UNL     1     -10.381  16.312  65.748  1.00  0.00    -0.374 C  
BRANCH   5   6
HETATM    6  C   UNL     1     -10.894  14.870  65.996  1.00  0.00    -0.328 C  
BRANCH   6   7
HETATM    7  O   UNL     1     -11.051  14.094  64.796  1.00  0.00    -0.358 OA 
HETATM    8  O   UNL     1     -13.275  14.067  65.220  1.00  0.00    -0.782 OA 
HETATM    9  N   UNL     1     -12.376  13.731  64.451  1.00  0.00    -0.376 N  
HETATM   10  O   UNL     1     -12.444  13.145  63.375  1.00  0.00    -0.730 OA 
ENDBRANCH   6   7
BRANCH   6  11
HETATM   11  C   UNL     1     -10.114  14.103  67.100  1.00  0.00    -0.258 C  
BRANCH  11  12
HETATM   12  O   UNL     1     -10.458  12.716  67.016  1.00  0.00    -0.231 OA 
HETATM   13  O   UNL     1     -11.305  12.952  69.093  1.00  0.00    -0.261 OA 
HETATM   14  O   UNL     1     -12.005  11.322  67.738  1.00  0.00    -0.637 OA 
HETATM   15  N   UNL     1     -11.337  12.304  68.048  1.00  0.00    -0.270 N  
ENDBRANCH  11  12
BRANCH  11  16
HETATM   16  C   UNL     1      -8.586  14.301  67.011  1.00  0.00    -0.192 C  
BRANCH  16  17
HETATM   17  O   UNL     1      -7.894  13.060  67.131  1.00  0.00    -0.151 OA 
HETATM   18  N   UNL     1      -6.524  13.250  67.482  1.00  0.00    -0.166 N  
HETATM   19  O   UNL     1      -5.937  12.189  67.683  1.00  0.00    -0.078 OA 
HETATM   20  O   UNL     1      -6.111  14.406  67.520  1.00  0.00    -0.327 OA 
ENDBRANCH  16  17
ENDBRANCH  11  16
ENDBRANCH   6  11
ENDBRANCH   5   6
ENDBRANCH   4   5
TORSDOF 7
ENDMDL
MODEL       63
REMARK 921   NORMALIZED FREE ENERGY PREDICTED BY IDOCK:   -5.02 KCAL/MOL
REMARK 922        TOTAL FREE ENERGY PREDICTED BY IDOCK:   -8.02 KCAL/MOL
REMARK 923 INTER-LIGAND FREE ENERGY PREDICTED BY IDOCK:   -7.22 KCAL/MOL
REMARK 924 INTRA-LIGAND FREE ENERGY PREDICTED BY IDOCK:   -0.80 KCAL/MOL
REMARK 927      BINDING AFFINITY PREDICTED BY RF-SCORE:    0.00 PKD
ROOT
HETATM    1  O   UNL     1     -10.128   7.584  66.525  1.00  0.00    -0.213 OA 
HETATM    2  N   UNL     1      -9.794   8.742  66.287  1.00  0.00    -0.281 N  
HETATM    3  O   UNL     1      -9.349   9.244  65.254  1.00  0.00    -0.241 OA 
HETATM    4  O   UNL     1      -9.968   9.604  67.401  1.00  0.00    -0.166 OA 
ENDROOT
BRANCH   4   5
HETATM    5  C   UNL     1      -9.551  10.942  67.128  1.00  0.00    -0.165 C  
BRANCH   5   6
HETATM    6  C   UNL     1     -10.800  11.859  67.070  1.00  0.00    -0.259 C  
BRANCH   6   7
HETATM    7  O   UNL     1     -11.034  12.597  68.282  1.00  0.00    -0.225 OA 
HETATM    8  O   UNL     1     -12.595  11.045  68.810  1.00  0.00    -0.350 OA 
HETATM    9  N   UNL     1     -12.005  12.063  69.165  1.00  0.00    -0.296 N  
HETATM   10  O   UNL     1     -12.093  12.695  70.213  1.00  0.00    -0.349 OA 
ENDBRANCH   6   7
BRANCH   6  11
HETATM   11  C   UNL     1     -10.864  12.760  65.806  1.00  0.00    -0.272 C  
BRANCH  11  12
HETATM   12  O   UNL     1     -12.204  12.737  65.302  1.00  0.00    -0.437 OA 
HETATM   13  O   UNL     1     -11.285  12.277  63.294  1.00  0.00    -0.419 OA 
HETATM   14  O   UNL     1     -13.399  11.724  63.752  1.00  0.00    -0.503 OA 
HETATM   15  N   UNL     1     -12.292  12.194  63.996  1.00  0.00    -0.452 N  
ENDBRANCH  11  12
BRANCH  11  16
HETATM   16  C   UNL     1     -10.395  14.207  66.067  1.00  0.00    -0.309 C  
BRANCH  16  17
HETATM   17  O   UNL     1     -11.257  15.153  65.436  1.00  0.00    -0.346 OA 
HETATM   18  N   UNL     1     -10.587  16.386  65.176  1.00  0.00    -0.337 N  
HETATM   19  O   UNL     1     -11.284  17.179  64.547  1.00  0.00    -1.104 OA 
HETATM   20  O   UNL     1      -9.445  16.506  65.613  1.00  0.00    -0.497 OA 
ENDBRANCH  16  17
ENDBRANCH  11  16
ENDBRANCH   6  11
ENDBRANCH   5   6
ENDBRANCH   4   5
TORSDOF 7
ENDMDL
MODEL       64
REMARK 921   NORMALIZED FREE ENERGY PREDICTED BY IDOCK:   -5.02 KCAL/MOL
REMARK 922        TOTAL FREE ENERGY PREDICTED BY IDOCK:   -8.01 KCAL/MOL
REMARK 923 INTER-LIGAND FREE ENERGY PREDICTED BY IDOCK:   -6.88 KCAL/MOL
REMARK 924 INTRA-LIGAND FREE ENERGY PREDICTED BY IDOCK:   -1.13 KCAL/MOL
REMARK 927      BINDING AFFINITY PREDICTED BY RF-SCORE:    0.00 PKD
ROOT
HETATM    1  O   UNL     1      -7.960  16.570  66.334  1.00  0.00    -0.284 OA 
HETATM    2  N   UNL     1      -8.211  15.431  66.720  1.00  0.00    -0.242 N  
HETATM    3  O   UNL     1      -7.618  14.717  67.529  1.00  0.00    -0.166 OA 
HETATM    4  O   UNL     1      -9.378  14.891  66.116  1.00  0.00    -0.292 OA 
ENDROOT
BRANCH   4   5
HETATM    5  C   UNL     1      -9.649  13.557  66.547  1.00  0.00    -0.277 C  
BRANCH   5   6
HETATM    6  C   UNL     1     -11.178  13.388  66.739  1.00  0.00    -0.310 C  
BRANCH   6   7
HETATM    7  O   UNL     1     -11.787  12.490  65.796  1.00  0.00    -0.408 OA 
HETATM    8  O   UNL     1     -13.161  14.192  65.211  1.00  0.00    -0.760 OA 
HETATM    9  N   UNL     1     -12.831  13.026  65.003  1.00  0.00    -0.412 N  
HETATM   10  O   UNL     1     -13.247  12.233  64.163  1.00  0.00    -0.745 OA 
ENDBRANCH   6   7
BRANCH   6  11
HETATM   11  C   UNL     1     -11.600  13.084  68.204  1.00  0.00    -0.341 C  
BRANCH  11  12
HETATM   12  O   UNL     1     -10.709  12.099  68.736  1.00  0.00    -0.227 OA 
HETATM   13  O   UNL     1     -12.548  10.845  69.100  1.00  0.00    -0.361 OA 
HETATM   14  O   UNL     1     -10.531   9.908  68.901  1.00  0.00    -0.193 OA 
HETATM   15  N   UNL     1     -11.330  10.839  68.925  1.00  0.00    -0.263 N  
ENDBRANCH  11  12
BRANCH  11  16
HETATM   16  C   UNL     1     -11.634  14.341  69.098  1.00  0.00    -0.305 C  
BRANCH  16  17
HETATM   17  O   UNL     1     -11.774  15.529  68.320  1.00  0.00    -0.360 OA 
HETATM   18  N   UNL     1     -10.737  16.469  68.600  1.00  0.00    -0.314 N  
HETATM   19  O   UNL     1     -10.787  17.457  67.871  1.00  0.00    -0.375 OA 
HETATM   20  O   UNL     1      -9.965  16.195  69.514  1.00  0.00    -0.250 OA 
ENDBRANCH  16  17
ENDBRANCH  11  16
ENDBRANCH   6  11
ENDBRANCH   5   6
ENDBRANCH   4   5
TORSDOF 7
ENDMDL
MODEL       65
REMARK 921   NORMALIZED FREE ENERGY PREDICTED BY IDOCK:   -5.01 KCAL/MOL
REMARK 922        TOTAL FREE ENERGY PREDICTED BY IDOCK:   -8.01 KCAL/MOL
REMARK 923 INTER-LIGAND FREE ENERGY PREDICTED BY IDOCK:   -6.99 KCAL/MOL
REMARK 924 INTRA-LIGAND FREE ENERGY PREDICTED BY IDOCK:   -1.02 KCAL/MOL
REMARK 927      BINDING AFFINITY PREDICTED BY RF-SCORE:    0.00 PKD
ROOT
HETATM    1  O   UNL     1     -12.005  12.796  63.186  1.00  0.00    -0.504 OA 
HETATM    2  N   UNL     1     -12.335  13.596  64.057  1.00  0.00    -0.372 N  
HETATM    3  O   UNL     1     -12.784  14.739  63.957  1.00  0.00    -0.786 OA 
HETATM    4  O   UNL     1     -12.159  13.084  65.369  1.00  0.00    -0.390 OA 
ENDROOT
BRANCH   4   5
HETATM    5  C   UNL     1     -12.517  14.028  66.378  1.00  0.00    -0.355 C  
BRANCH   5   6
HETATM    6  C   UNL     1     -11.228  14.563  67.052  1.00  0.00    -0.337 C  
BRANCH   6   7
HETATM    7  O   UNL     1     -11.071  15.989  66.956  1.00  0.00    -0.222 OA 
HETATM    8  O   UNL     1      -9.854  15.631  65.081  1.00  0.00    -0.337 OA 
HETATM    9  N   UNL     1     -10.333  16.466  65.844  1.00  0.00    -0.352 N  
HETATM   10  O   UNL     1     -10.311  17.691  65.779  1.00  0.00    -0.558 OA 
ENDBRANCH   6   7
BRANCH   6  11
HETATM   11  C   UNL     1     -11.007  14.039  68.498  1.00  0.00    -0.256 C  
BRANCH  11  12
HETATM   12  O   UNL     1     -12.175  14.339  69.271  1.00  0.00    -0.316 OA 
HETATM   13  O   UNL     1     -10.796  15.488  70.637  1.00  0.00    -0.324 OA 
HETATM   14  O   UNL     1     -12.979  15.947  70.545  1.00  0.00    -0.438 OA 
HETATM   15  N   UNL     1     -11.951  15.353  70.236  1.00  0.00    -0.328 N  
ENDBRANCH  11  12
BRANCH  11  16
HETATM   16  C   UNL     1     -10.678  12.532  68.554  1.00  0.00    -0.239 C  
BRANCH  16  17
HETATM   17  O   UNL     1      -9.782  12.158  67.509  1.00  0.00    -0.181 OA 
HETATM   18  N   UNL     1     -10.165  10.925  66.900  1.00  0.00    -0.219 N  
HETATM   19  O   UNL     1      -9.461  10.636  65.935  1.00  0.00    -0.180 OA 
HETATM   20  O   UNL     1     -11.104  10.318  67.408  1.00  0.00    -0.291 OA 
ENDBRANCH  16  17
ENDBRANCH  11  16
ENDBRANCH   6  11
ENDBRANCH   5   6
ENDBRANCH   4   5
TORSDOF 7
ENDMDL
MODEL       66
REMARK 921   NORMALIZED FREE ENERGY PREDICTED BY IDOCK:   -5.00 KCAL/MOL
REMARK 922        TOTAL FREE ENERGY PREDICTED BY IDOCK:   -7.99 KCAL/MOL
REMARK 923 INTER-LIGAND FREE ENERGY PREDICTED BY IDOCK:   -6.96 KCAL/MOL
REMARK 924 INTRA-LIGAND FREE ENERGY PREDICTED BY IDOCK:   -1.02 KCAL/MOL
REMARK 927      BINDING AFFINITY PREDICTED BY RF-SCORE:    0.00 PKD
ROOT
HETATM    1  O   UNL     1      -6.500  18.662  67.689  1.00  0.00    -0.201 OA 
HETATM    2  N   UNL     1      -7.015  17.966  66.817  1.00  0.00    -0.179 N  
HETATM    3  O   UNL     1      -6.998  18.086  65.591  1.00  0.00    -0.450 OA 
HETATM    4  O   UNL     1      -7.729  16.860  67.349  1.00  0.00    -0.162 OA 
ENDROOT
BRANCH   4   5
HETATM    5  C   UNL     1      -8.349  16.071  66.333  1.00  0.00    -0.309 C  
BRANCH   5   6
HETATM    6  C   UNL     1      -9.871  16.366  66.320  1.00  0.00    -0.314 C  
BRANCH   6   7
HETATM    7  O   UNL     1     -10.676  15.251  65.900  1.00  0.00    -0.311 OA 
HETATM    8  O   UNL     1     -11.421  16.552  64.204  1.00  0.00    -1.059 OA 
HETATM    9  N   UNL     1     -11.458  15.444  64.735  1.00  0.00    -0.379 N  
HETATM   10  O   UNL     1     -12.052  14.428  64.387  1.00  0.00    -0.460 OA 
ENDBRANCH   6   7
BRANCH   6  11
HETATM   11  C   UNL     1     -10.399  17.019  67.628  1.00  0.00    -0.332 C  
BRANCH  11  12
HETATM   12  O   UNL     1     -10.832  18.350  67.326  1.00  0.00    -0.389 OA 
HETATM   13  O   UNL     1      -9.695  18.980  69.169  1.00  0.00    -0.346 OA 
HETATM   14  O   UNL     1     -10.135  20.430  67.529  1.00  0.00    -0.411 OA 
HETATM   15  N   UNL     1     -10.151  19.335  68.083  1.00  0.00    -0.389 N  
ENDBRANCH  11  12
BRANCH  11  16
HETATM   16  C   UNL     1     -11.527  16.207  68.298  1.00  0.00    -0.259 C  
BRANCH  16  17
HETATM   17  O   UNL     1     -11.001  15.162  69.113  1.00  0.00    -0.235 OA 
HETATM   18  N   UNL     1     -11.813  14.929  70.264  1.00  0.00    -0.287 N  
HETATM   19  O   UNL     1     -11.427  13.969  70.927  1.00  0.00    -0.064 OA 
HETATM   20  O   UNL     1     -12.751  15.699  70.453  1.00  0.00    -0.425 OA 
ENDBRANCH  16  17
ENDBRANCH  11  16
ENDBRANCH   6  11
ENDBRANCH   5   6
ENDBRANCH   4   5
TORSDOF 7
ENDMDL
MODEL       67
REMARK 921   NORMALIZED FREE ENERGY PREDICTED BY IDOCK:   -5.00 KCAL/MOL
REMARK 922        TOTAL FREE ENERGY PREDICTED BY IDOCK:   -7.98 KCAL/MOL
REMARK 923 INTER-LIGAND FREE ENERGY PREDICTED BY IDOCK:   -7.35 KCAL/MOL
REMARK 924 INTRA-LIGAND FREE ENERGY PREDICTED BY IDOCK:   -0.63 KCAL/MOL
REMARK 927      BINDING AFFINITY PREDICTED BY RF-SCORE:    0.00 PKD
ROOT
HETATM    1  O   UNL     1     -13.765  15.658  70.974  1.00  0.00    -0.582 OA 
HETATM    2  N   UNL     1     -12.543  15.730  70.873  1.00  0.00    -0.436 N  
HETATM    3  O   UNL     1     -11.675  15.796  71.744  1.00  0.00    -0.393 OA 
HETATM    4  O   UNL     1     -12.104  15.729  69.522  1.00  0.00    -0.353 OA 
ENDROOT
BRANCH   4   5
HETATM    5  C   UNL     1     -10.685  15.841  69.409  1.00  0.00    -0.266 C  
BRANCH   5   6
HETATM    6  C   UNL     1     -10.341  16.653  68.135  1.00  0.00    -0.303 C  
BRANCH   6   7
HETATM    7  O   UNL     1      -9.431  17.742  68.368  1.00  0.00    -0.277 OA 
HETATM    8  O   UNL     1     -10.915  19.081  67.304  1.00  0.00    -0.459 OA 
HETATM    9  N   UNL     1      -9.843  19.015  67.903  1.00  0.00    -0.321 N  
HETATM   10  O   UNL     1      -9.061  19.910  68.209  1.00  0.00    -0.319 OA 
ENDBRANCH   6   7
BRANCH   6  11
HETATM   11  C   UNL     1      -9.919  15.778  66.922  1.00  0.00    -0.243 C  
BRANCH  11  12
HETATM   12  O   UNL     1     -10.025  16.569  65.734  1.00  0.00    -0.436 OA 
HETATM   13  O   UNL     1     -11.172  14.836  64.859  1.00  0.00    -0.372 OA 
HETATM   14  O   UNL     1     -11.416  16.906  64.059  1.00  0.00    -1.130 OA 
HETATM   15  N   UNL     1     -10.960  16.046  64.806  1.00  0.00    -0.443 N  
ENDBRANCH  11  12
BRANCH  11  16
HETATM   16  C   UNL     1      -8.501  15.184  67.067  1.00  0.00    -0.229 C  
BRANCH  16  17
HETATM   17  O   UNL     1      -8.533  13.758  67.054  1.00  0.00    -0.201 OA 
HETATM   18  N   UNL     1      -7.252  13.198  67.344  1.00  0.00    -0.144 N  
HETATM   19  O   UNL     1      -7.281  11.973  67.431  1.00  0.00    -0.122 OA 
HETATM   20  O   UNL     1      -6.310  13.979  67.447  1.00  0.00    -0.323 OA 
ENDBRANCH  16  17
ENDBRANCH  11  16
ENDBRANCH   6  11
ENDBRANCH   5   6
ENDBRANCH   4   5
TORSDOF 7
ENDMDL
MODEL       68
REMARK 921   NORMALIZED FREE ENERGY PREDICTED BY IDOCK:   -4.99 KCAL/MOL
REMARK 922        TOTAL FREE ENERGY PREDICTED BY IDOCK:   -7.98 KCAL/MOL
REMARK 923 INTER-LIGAND FREE ENERGY PREDICTED BY IDOCK:   -7.15 KCAL/MOL
REMARK 924 INTRA-LIGAND FREE ENERGY PREDICTED BY IDOCK:   -0.82 KCAL/MOL
REMARK 927      BINDING AFFINITY PREDICTED BY RF-SCORE:    0.00 PKD
ROOT
HETATM    1  O   UNL     1     -13.159  11.598  63.062  1.00  0.00    -0.436 OA 
HETATM    2  N   UNL     1     -12.868  12.633  63.656  1.00  0.00    -0.181 N  
HETATM    3  O   UNL     1     -12.446  13.706  63.222  1.00  0.00    -0.801 OA 
HETATM    4  O   UNL     1     -13.069  12.537  65.058  1.00  0.00    -0.765 OA 
ENDROOT
BRANCH   4   5
HETATM    5  C   UNL     1     -12.703  13.734  65.746  1.00  0.00    -0.446 C  
BRANCH   5   6
HETATM    6  C   UNL     1     -11.843  13.365  66.982  1.00  0.00    -0.394 C  
BRANCH   6   7
HETATM    7  O   UNL     1     -12.104  12.049  67.499  1.00  0.00    -0.555 OA 
HETATM    8  O   UNL     1     -11.819  12.914  69.572  1.00  0.00    -0.308 OA 
HETATM    9  N   UNL     1     -12.091  11.915  68.909  1.00  0.00    -0.241 N  
HETATM   10  O   UNL     1     -12.404  10.789  69.283  1.00  0.00    -0.368 OA 
ENDBRANCH   6   7
BRANCH   6  11
HETATM   11  C   UNL     1     -10.325  13.640  66.799  1.00  0.00    -0.268 C  
BRANCH  11  12
HETATM   12  O   UNL     1      -9.993  13.443  65.420  1.00  0.00    -0.269 OA 
HETATM   13  O   UNL     1      -9.213  11.422  66.048  1.00  0.00    -0.206 OA 
HETATM   14  O   UNL     1      -9.845  11.815  63.943  1.00  0.00    -0.287 OA 
HETATM   15  N   UNL     1      -9.655  12.100  65.121  1.00  0.00    -0.106 N  
ENDBRANCH  11  12
BRANCH  11  16
HETATM   16  C   UNL     1      -9.901  15.045  67.276  1.00  0.00    -0.228 C  
BRANCH  16  17
HETATM   17  O   UNL     1      -8.846  15.570  66.471  1.00  0.00    -0.267 OA 
HETATM   18  N   UNL     1      -8.789  16.994  66.537  1.00  0.00    -0.247 N  
HETATM   19  O   UNL     1      -7.828  17.457  65.927  1.00  0.00    -0.514 OA 
HETATM   20  O   UNL     1      -9.686  17.562  67.156  1.00  0.00    -0.264 OA 
ENDBRANCH  16  17
ENDBRANCH  11  16
ENDBRANCH   6  11
ENDBRANCH   5   6
ENDBRANCH   4   5
TORSDOF 7
ENDMDL
MODEL       69
REMARK 921   NORMALIZED FREE ENERGY PREDICTED BY IDOCK:   -4.99 KCAL/MOL
REMARK 922        TOTAL FREE ENERGY PREDICTED BY IDOCK:   -7.97 KCAL/MOL
REMARK 923 INTER-LIGAND FREE ENERGY PREDICTED BY IDOCK:   -7.04 KCAL/MOL
REMARK 924 INTRA-LIGAND FREE ENERGY PREDICTED BY IDOCK:   -0.92 KCAL/MOL
REMARK 927      BINDING AFFINITY PREDICTED BY RF-SCORE:    0.00 PKD
ROOT
HETATM    1  O   UNL     1      -9.721  20.214  67.113  1.00  0.00    -0.383 OA 
HETATM    2  N   UNL     1     -10.099  19.250  66.452  1.00  0.00    -0.395 N  
HETATM    3  O   UNL     1     -10.669  19.208  65.361  1.00  0.00    -0.503 OA 
HETATM    4  O   UNL     1      -9.811  18.008  67.078  1.00  0.00    -0.294 OA 
ENDROOT
BRANCH   4   5
HETATM    5  C   UNL     1     -10.277  16.892  66.320  1.00  0.00    -0.329 C  
BRANCH   5   6
HETATM    6  C   UNL     1     -10.545  15.704  67.279  1.00  0.00    -0.305 C  
BRANCH   6   7
HETATM    7  O   UNL     1     -11.494  15.999  68.317  1.00  0.00    -0.355 OA 
HETATM    8  O   UNL     1      -9.881  15.458  69.811  1.00  0.00    -0.268 OA 
HETATM    9  N   UNL     1     -11.032  15.858  69.649  1.00  0.00    -0.290 N  
HETATM   10  O   UNL     1     -11.864  16.206  70.481  1.00  0.00    -0.330 OA 
ENDBRANCH   6   7
BRANCH   6  11
HETATM   11  C   UNL     1     -10.856  14.365  66.554  1.00  0.00    -0.310 C  
BRANCH  11  12
HETATM   12  O   UNL     1     -11.075  14.642  65.166  1.00  0.00    -0.336 OA 
HETATM   13  O   UNL     1     -12.968  13.434  65.375  1.00  0.00    -0.625 OA 
HETATM   14  O   UNL     1     -12.741  14.957  63.759  1.00  0.00    -0.754 OA 
HETATM   15  N   UNL     1     -12.385  14.311  64.739  1.00  0.00    -0.439 N  
ENDBRANCH  11  12
BRANCH  11  16
HETATM   16  C   UNL     1      -9.751  13.304  66.739  1.00  0.00    -0.258 C  
BRANCH  16  17
HETATM   17  O   UNL     1     -10.305  12.024  67.035  1.00  0.00    -0.208 OA 
HETATM   18  N   UNL     1     -10.090  11.095  65.973  1.00  0.00    -0.236 N  
HETATM   19  O   UNL     1     -10.476   9.962  66.250  1.00  0.00    -0.193 OA 
HETATM   20  O   UNL     1      -9.581  11.531  64.943  1.00  0.00    -0.233 OA 
ENDBRANCH  16  17
ENDBRANCH  11  16
ENDBRANCH   6  11
ENDBRANCH   5   6
ENDBRANCH   4   5
TORSDOF 7
ENDMDL
MODEL       70
REMARK 921   NORMALIZED FREE ENERGY PREDICTED BY IDOCK:   -4.99 KCAL/MOL
REMARK 922        TOTAL FREE ENERGY PREDICTED BY IDOCK:   -7.97 KCAL/MOL
REMARK 923 INTER-LIGAND FREE ENERGY PREDICTED BY IDOCK:   -7.01 KCAL/MOL
REMARK 924 INTRA-LIGAND FREE ENERGY PREDICTED BY IDOCK:   -0.96 KCAL/MOL
REMARK 927      BINDING AFFINITY PREDICTED BY RF-SCORE:    0.00 PKD
ROOT
HETATM    1  O   UNL     1     -12.606  13.772  63.249  1.00  0.00    -0.830 OA 
HETATM    2  N   UNL     1     -12.144  14.241  64.286  1.00  0.00    -0.470 N  
HETATM    3  O   UNL     1     -11.146  14.941  64.466  1.00  0.00    -0.327 OA 
HETATM    4  O   UNL     1     -12.913  13.905  65.432  1.00  0.00    -0.722 OA 
ENDROOT
BRANCH   4   5
HETATM    5  C   UNL     1     -12.355  14.429  66.637  1.00  0.00    -0.213 C  
BRANCH   5   6
HETATM    6  C   UNL     1     -11.701  13.274  67.437  1.00  0.00    -0.373 C  
BRANCH   6   7
HETATM    7  O   UNL     1     -10.273  13.198  67.286  1.00  0.00    -0.239 OA 
HETATM    8  O   UNL     1     -10.578  11.154  66.360  1.00  0.00    -0.252 OA 
HETATM    9  N   UNL     1      -9.768  12.025  66.672  1.00  0.00    -0.204 N  
HETATM   10  O   UNL     1      -8.554  12.064  66.498  1.00  0.00    -0.177 OA 
ENDBRANCH   6   7
BRANCH   6  11
HETATM   11  C   UNL     1     -12.143  13.206  68.925  1.00  0.00    -0.194 C  
BRANCH  11  12
HETATM   12  O   UNL     1     -11.206  12.394  69.639  1.00  0.00    -0.166 OA 
HETATM   13  O   UNL     1     -12.730  10.741  69.468  1.00  0.00    -0.257 OA 
HETATM   14  O   UNL     1     -10.565  10.290  69.773  1.00  0.00    -0.242 OA 
HETATM   15  N   UNL     1     -11.541  11.017  69.618  1.00  0.00    -0.287 N  
ENDBRANCH  11  12
BRANCH  11  16
HETATM   16  C   UNL     1     -12.283  14.597  69.580  1.00  0.00    -0.258 C  
BRANCH  16  17
HETATM   17  O   UNL     1     -13.282  14.592  70.599  1.00  0.00    -0.334 OA 
HETATM   18  N   UNL     1     -13.047  15.608  71.573  1.00  0.00    -0.490 N  
HETATM   19  O   UNL     1     -13.948  15.681  72.406  1.00  0.00    -0.530 OA 
HETATM   20  O   UNL     1     -12.003  16.248  71.475  1.00  0.00    -0.445 OA 
ENDBRANCH  16  17
ENDBRANCH  11  16
ENDBRANCH   6  11
ENDBRANCH   5   6
ENDBRANCH   4   5
TORSDOF 7
ENDMDL
MODEL       71
REMARK 921   NORMALIZED FREE ENERGY PREDICTED BY IDOCK:   -4.98 KCAL/MOL
REMARK 922        TOTAL FREE ENERGY PREDICTED BY IDOCK:   -7.96 KCAL/MOL
REMARK 923 INTER-LIGAND FREE ENERGY PREDICTED BY IDOCK:   -7.07 KCAL/MOL
REMARK 924 INTRA-LIGAND FREE ENERGY PREDICTED BY IDOCK:   -0.89 KCAL/MOL
REMARK 927      BINDING AFFINITY PREDICTED BY RF-SCORE:    0.00 PKD
ROOT
HETATM    1  O   UNL     1     -12.930  13.386  71.407  1.00  0.00    -0.352 OA 
HETATM    2  N   UNL     1     -12.778  14.321  70.626  1.00  0.00    -0.345 N  
HETATM    3  O   UNL     1     -13.054  15.515  70.753  1.00  0.00    -0.478 OA 
HETATM    4  O   UNL     1     -12.184  13.922  69.400  1.00  0.00    -0.341 OA 
ENDROOT
BRANCH   4   5
HETATM    5  C   UNL     1     -12.035  15.008  68.485  1.00  0.00    -0.225 C  
BRANCH   5   6
HETATM    6  C   UNL     1     -11.305  14.504  67.214  1.00  0.00    -0.350 C  
BRANCH   6   7
HETATM    7  O   UNL     1     -12.179  14.267  66.098  1.00  0.00    -0.431 OA 
HETATM    8  O   UNL     1     -11.711  12.063  66.325  1.00  0.00    -0.504 OA 
HETATM    9  N   UNL     1     -12.350  12.915  65.710  1.00  0.00    -0.436 N  
HETATM   10  O   UNL     1     -13.171  12.778  64.809  1.00  0.00    -0.812 OA 
ENDBRANCH   6   7
BRANCH   6  11
HETATM   11  C   UNL     1     -10.061  15.349  66.824  1.00  0.00    -0.262 C  
BRANCH  11  12
HETATM   12  O   UNL     1     -10.090  16.569  67.572  1.00  0.00    -0.255 OA 
HETATM   13  O   UNL     1     -10.077  17.621  65.577  1.00  0.00    -0.566 OA 
HETATM   14  O   UNL     1     -10.872  18.623  67.406  1.00  0.00    -0.439 OA 
HETATM   15  N   UNL     1     -10.374  17.701  66.768  1.00  0.00    -0.339 N  
ENDBRANCH  11  12
BRANCH  11  16
HETATM   16  C   UNL     1      -8.728  14.600  67.038  1.00  0.00    -0.235 C  
BRANCH  16  17
HETATM   17  O   UNL     1      -8.238  14.781  68.365  1.00  0.00    -0.140 OA 
HETATM   18  N   UNL     1      -6.887  15.243  68.372  1.00  0.00    -0.107 N  
HETATM   19  O   UNL     1      -6.480  15.495  69.504  1.00  0.00    -0.144 OA 
HETATM   20  O   UNL     1      -6.313  15.310  67.288  1.00  0.00    -0.310 OA 
ENDBRANCH  16  17
ENDBRANCH  11  16
ENDBRANCH   6  11
ENDBRANCH   5   6
ENDBRANCH   4   5
TORSDOF 7
ENDMDL
MODEL       72
REMARK 921   NORMALIZED FREE ENERGY PREDICTED BY IDOCK:   -4.97 KCAL/MOL
REMARK 922        TOTAL FREE ENERGY PREDICTED BY IDOCK:   -7.94 KCAL/MOL
REMARK 923 INTER-LIGAND FREE ENERGY PREDICTED BY IDOCK:   -7.20 KCAL/MOL
REMARK 924 INTRA-LIGAND FREE ENERGY PREDICTED BY IDOCK:   -0.74 KCAL/MOL
REMARK 927      BINDING AFFINITY PREDICTED BY RF-SCORE:    0.00 PKD
ROOT
HETATM    1  O   UNL     1     -13.668  13.040  72.598  1.00  0.00    -0.621 OA 
HETATM    2  N   UNL     1     -13.108  12.383  71.724  1.00  0.00    -0.399 N  
HETATM    3  O   UNL     1     -12.957  11.165  71.620  1.00  0.00    -0.445 OA 
HETATM    4  O   UNL     1     -12.569  13.192  70.689  1.00  0.00    -0.290 OA 
ENDROOT
BRANCH   4   5
HETATM    5  C   UNL     1     -11.895  12.425  69.691  1.00  0.00    -0.311 C  
BRANCH   5   6
HETATM    6  C   UNL     1     -11.639  13.321  68.452  1.00  0.00    -0.337 C  
BRANCH   6   7
HETATM    7  O   UNL     1     -10.523  14.215  68.602  1.00  0.00    -0.240 OA 
HETATM    8  O   UNL     1     -12.024  15.897  68.812  1.00  0.00    -0.368 OA 
HETATM    9  N   UNL     1     -10.836  15.580  68.815  1.00  0.00    -0.244 N  
HETATM   10  O   UNL     1      -9.842  16.270  69.019  1.00  0.00    -0.234 OA 
ENDBRANCH   6   7
BRANCH   6  11
HETATM   11  C   UNL     1     -11.598  12.542  67.108  1.00  0.00    -0.368 C  
BRANCH  11  12
HETATM   12  O   UNL     1     -11.421  13.484  66.044  1.00  0.00    -0.312 OA 
HETATM   13  O   UNL     1     -13.113  12.410  65.009  1.00  0.00    -0.678 OA 
HETATM   14  O   UNL     1     -12.609  14.527  64.509  1.00  0.00    -0.644 OA 
HETATM   15  N   UNL     1     -12.485  13.463  65.108  1.00  0.00    -0.452 N  
ENDBRANCH  11  12
BRANCH  11  16
HETATM   16  C   UNL     1     -10.504  11.453  67.071  1.00  0.00    -0.236 C  
BRANCH  16  17
HETATM   17  O   UNL     1     -11.064  10.151  67.233  1.00  0.00    -0.244 OA 
HETATM   18  N   UNL     1     -10.239   9.145  66.646  1.00  0.00    -0.268 N  
HETATM   19  O   UNL     1     -10.656   8.009  66.860  1.00  0.00    -0.338 OA 
HETATM   20  O   UNL     1      -9.260   9.525  66.008  1.00  0.00    -0.168 OA 
ENDBRANCH  16  17
ENDBRANCH  11  16
ENDBRANCH   6  11
ENDBRANCH   5   6
ENDBRANCH   4   5
TORSDOF 7
ENDMDL
MODEL       73
REMARK 921   NORMALIZED FREE ENERGY PREDICTED BY IDOCK:   -4.96 KCAL/MOL
REMARK 922        TOTAL FREE ENERGY PREDICTED BY IDOCK:   -7.94 KCAL/MOL
REMARK 923 INTER-LIGAND FREE ENERGY PREDICTED BY IDOCK:   -7.14 KCAL/MOL
REMARK 924 INTRA-LIGAND FREE ENERGY PREDICTED BY IDOCK:   -0.79 KCAL/MOL
REMARK 927      BINDING AFFINITY PREDICTED BY RF-SCORE:    0.00 PKD
ROOT
HETATM    1  O   UNL     1     -12.069   8.895  71.406  1.00  0.00    -0.297 OA 
HETATM    2  N   UNL     1     -12.302  10.067  71.121  1.00  0.00    -0.347 N  
HETATM    3  O   UNL     1     -12.996  10.903  71.701  1.00  0.00    -0.433 OA 
HETATM    4  O   UNL     1     -11.646  10.483  69.932  1.00  0.00    -0.263 OA 
ENDROOT
BRANCH   4   5
HETATM    5  C   UNL     1     -11.943  11.838  69.590  1.00  0.00    -0.312 C  
BRANCH   5   6
HETATM    6  C   UNL     1     -11.272  12.176  68.234  1.00  0.00    -0.268 C  
BRANCH   6   7
HETATM    7  O   UNL     1     -11.456  11.167  67.227  1.00  0.00    -0.473 OA 
HETATM    8  O   UNL     1      -9.203  10.946  67.176  1.00  0.00    -0.148 OA 
HETATM    9  N   UNL     1     -10.280  10.547  66.738  1.00  0.00    -0.226 N  
HETATM   10  O   UNL     1     -10.515   9.639  65.946  1.00  0.00    -0.138 OA 
ENDBRANCH   6   7
BRANCH   6  11
HETATM   11  C   UNL     1     -11.594  13.603  67.710  1.00  0.00    -0.338 C  
BRANCH  11  12
HETATM   12  O   UNL     1     -10.502  14.465  68.045  1.00  0.00    -0.232 OA 
HETATM   13  O   UNL     1     -12.056  15.859  68.898  1.00  0.00    -0.315 OA 
HETATM   14  O   UNL     1      -9.933  15.936  69.584  1.00  0.00    -0.265 OA 
HETATM   15  N   UNL     1     -10.876  15.512  68.924  1.00  0.00    -0.241 N  
ENDBRANCH  11  12
BRANCH  11  16
HETATM   16  C   UNL     1     -11.885  13.640  66.194  1.00  0.00    -0.392 C  
BRANCH  16  17
HETATM   17  O   UNL     1     -11.569  14.915  65.637  1.00  0.00    -0.329 OA 
HETATM   18  N   UNL     1     -12.106  15.065  64.323  1.00  0.00    -0.408 N  
HETATM   19  O   UNL     1     -11.926  16.191  63.865  1.00  0.00    -0.947 OA 
HETATM   20  O   UNL     1     -12.645  14.081  63.822  1.00  0.00    -0.772 OA 
ENDBRANCH  16  17
ENDBRANCH  11  16
ENDBRANCH   6  11
ENDBRANCH   5   6
ENDBRANCH   4   5
TORSDOF 7
ENDMDL
MODEL       74
REMARK 921   NORMALIZED FREE ENERGY PREDICTED BY IDOCK:   -4.95 KCAL/MOL
REMARK 922        TOTAL FREE ENERGY PREDICTED BY IDOCK:   -7.92 KCAL/MOL
REMARK 923 INTER-LIGAND FREE ENERGY PREDICTED BY IDOCK:   -7.26 KCAL/MOL
REMARK 924 INTRA-LIGAND FREE ENERGY PREDICTED BY IDOCK:   -0.66 KCAL/MOL
REMARK 927      BINDING AFFINITY PREDICTED BY RF-SCORE:    0.00 PKD
ROOT
HETATM    1  O   UNL     1      -6.933  12.309  68.004  1.00  0.00    -0.078 OA 
HETATM    2  N   UNL     1      -7.514  13.360  67.746  1.00  0.00    -0.143 N  
HETATM    3  O   UNL     1      -7.072  14.431  67.330  1.00  0.00    -0.184 OA 
HETATM    4  O   UNL     1      -8.914  13.282  67.971  1.00  0.00    -0.177 OA 
ENDROOT
BRANCH   4   5
HETATM    5  C   UNL     1      -9.581  14.515  67.695  1.00  0.00    -0.214 C  
BRANCH   5   6
HETATM    6  C   UNL     1     -11.112  14.270  67.679  1.00  0.00    -0.292 C  
BRANCH   6   7
HETATM    7  O   UNL     1     -11.859  15.211  68.468  1.00  0.00    -0.329 OA 
HETATM    8  O   UNL     1     -12.006  13.610  70.062  1.00  0.00    -0.312 OA 
HETATM    9  N   UNL     1     -12.275  14.767  69.747  1.00  0.00    -0.310 N  
HETATM   10  O   UNL     1     -12.832  15.646  70.398  1.00  0.00    -0.406 OA 
ENDBRANCH   6   7
BRANCH   6  11
HETATM   11  C   UNL     1     -11.707  14.086  66.255  1.00  0.00    -0.387 C  
BRANCH  11  12
HETATM   12  O   UNL     1     -11.071  15.020  65.376  1.00  0.00    -0.344 OA 
HETATM   13  O   UNL     1     -12.900  14.813  64.072  1.00  0.00    -0.697 OA 
HETATM   14  O   UNL     1     -11.601  16.625  63.962  1.00  0.00    -1.197 OA 
HETATM   15  N   UNL     1     -11.947  15.526  64.384  1.00  0.00    -0.299 N  
ENDBRANCH  11  12
BRANCH  11  16
HETATM   16  C   UNL     1     -11.572  12.644  65.723  1.00  0.00    -0.387 C  
BRANCH  16  17
HETATM   17  O   UNL     1     -10.355  12.469  65.001  1.00  0.00    -0.288 OA 
HETATM   18  N   UNL     1     -10.591  12.024  63.665  1.00  0.00    -0.411 N  
HETATM   19  O   UNL     1      -9.560  11.959  63.000  1.00  0.00    -0.376 OA 
HETATM   20  O   UNL     1     -11.750  11.752  63.363  1.00  0.00    -0.427 OA 
ENDBRANCH  16  17
ENDBRANCH  11  16
ENDBRANCH   6  11
ENDBRANCH   5   6
ENDBRANCH   4   5
TORSDOF 7
ENDMDL
MODEL       75
REMARK 921   NORMALIZED FREE ENERGY PREDICTED BY IDOCK:   -4.95 KCAL/MOL
REMARK 922        TOTAL FREE ENERGY PREDICTED BY IDOCK:   -7.92 KCAL/MOL
REMARK 923 INTER-LIGAND FREE ENERGY PREDICTED BY IDOCK:   -7.18 KCAL/MOL
REMARK 924 INTRA-LIGAND FREE ENERGY PREDICTED BY IDOCK:   -0.73 KCAL/MOL
REMARK 927      BINDING AFFINITY PREDICTED BY RF-SCORE:    0.00 PKD
ROOT
HETATM    1  O   UNL     1     -13.581  15.601  70.667  1.00  0.00    -0.448 OA 
HETATM    2  N   UNL     1     -12.586  14.993  70.279  1.00  0.00    -0.336 N  
HETATM    3  O   UNL     1     -12.079  13.951  70.696  1.00  0.00    -0.332 OA 
HETATM    4  O   UNL     1     -11.956  15.621  69.173  1.00  0.00    -0.368 OA 
ENDROOT
BRANCH   4   5
HETATM    5  C   UNL     1     -10.785  14.926  68.743  1.00  0.00    -0.252 C  
BRANCH   5   6
HETATM    6  C   UNL     1     -10.686  15.007  67.198  1.00  0.00    -0.303 C  
BRANCH   6   7
HETATM    7  O   UNL     1      -9.437  15.540  66.724  1.00  0.00    -0.217 OA 
HETATM    8  O   UNL     1     -10.621  17.241  65.814  1.00  0.00    -0.438 OA 
HETATM    9  N   UNL     1      -9.507  16.760  66.008  1.00  0.00    -0.257 N  
HETATM   10  O   UNL     1      -8.401  17.199  65.708  1.00  0.00    -0.519 OA 
ENDBRANCH   6   7
BRANCH   6  11
HETATM   11  C   UNL     1     -11.085  13.694  66.470  1.00  0.00    -0.305 C  
BRANCH  11  12
HETATM   12  O   UNL     1     -11.124  13.952  65.062  1.00  0.00    -0.322 OA 
HETATM   13  O   UNL     1     -13.084  12.836  65.062  1.00  0.00    -0.811 OA 
HETATM   14  O   UNL     1     -12.594  14.313  63.461  1.00  0.00    -0.814 OA 
HETATM   15  N   UNL     1     -12.389  13.671  64.486  1.00  0.00    -0.379 N  
ENDBRANCH  11  12
BRANCH  11  16
HETATM   16  C   UNL     1     -10.145  12.513  66.790  1.00  0.00    -0.223 C  
BRANCH  16  17
HETATM   17  O   UNL     1     -10.721  11.640  67.760  1.00  0.00    -0.190 OA 
HETATM   18  N   UNL     1     -10.604  10.270  67.375  1.00  0.00    -0.251 N  
HETATM   19  O   UNL     1     -11.009   9.499  68.242  1.00  0.00    -0.182 OA 
HETATM   20  O   UNL     1     -10.148  10.040  66.258  1.00  0.00    -0.234 OA 
ENDBRANCH  16  17
ENDBRANCH  11  16
ENDBRANCH   6  11
ENDBRANCH   5   6
ENDBRANCH   4   5
TORSDOF 7
ENDMDL
MODEL       76
REMARK 921   NORMALIZED FREE ENERGY PREDICTED BY IDOCK:   -4.95 KCAL/MOL
REMARK 922        TOTAL FREE ENERGY PREDICTED BY IDOCK:   -7.91 KCAL/MOL
REMARK 923 INTER-LIGAND FREE ENERGY PREDICTED BY IDOCK:   -7.16 KCAL/MOL
REMARK 924 INTRA-LIGAND FREE ENERGY PREDICTED BY IDOCK:   -0.75 KCAL/MOL
REMARK 927      BINDING AFFINITY PREDICTED BY RF-SCORE:    0.00 PKD
ROOT
HETATM    1  O   UNL     1     -12.767  14.933  63.713  1.00  0.00    -0.754 OA 
HETATM    2  N   UNL     1     -11.784  15.454  64.234  1.00  0.00    -0.307 N  
HETATM    3  O   UNL     1     -11.439  16.636  64.273  1.00  0.00    -1.075 OA 
HETATM    4  O   UNL     1     -10.944  14.514  64.886  1.00  0.00    -0.373 OA 
ENDROOT
BRANCH   4   5
HETATM    5  C   UNL     1      -9.789  15.121  65.465  1.00  0.00    -0.321 C  
BRANCH   5   6
HETATM    6  C   UNL     1      -9.543  14.507  66.867  1.00  0.00    -0.250 C  
BRANCH   6   7
HETATM    7  O   UNL     1      -8.193  14.657  67.338  1.00  0.00    -0.174 OA 
HETATM    8  O   UNL     1      -7.934  12.433  67.008  1.00  0.00    -0.167 OA 
HETATM    9  N   UNL     1      -7.399  13.484  67.354  1.00  0.00    -0.149 N  
HETATM   10  O   UNL     1      -6.237  13.700  67.685  1.00  0.00    -0.188 OA 
ENDBRANCH   6   7
BRANCH   6  11
HETATM   11  C   UNL     1     -10.593  14.926  67.933  1.00  0.00    -0.254 C  
BRANCH  11  12
HETATM   12  O   UNL     1     -10.888  16.315  67.755  1.00  0.00    -0.328 OA 
HETATM   13  O   UNL     1     -10.305  16.566  69.919  1.00  0.00    -0.210 OA 
HETATM   14  O   UNL     1     -10.224  18.282  68.494  1.00  0.00    -0.381 OA 
HETATM   15  N   UNL     1     -10.425  17.119  68.827  1.00  0.00    -0.345 N  
ENDBRANCH  11  12
BRANCH  11  16
HETATM   16  C   UNL     1     -11.880  14.075  67.885  1.00  0.00    -0.376 C  
BRANCH  16  17
HETATM   17  O   UNL     1     -11.622  12.723  68.258  1.00  0.00    -0.290 OA 
HETATM   18  N   UNL     1     -11.854  11.822  67.176  1.00  0.00    -0.185 N  
HETATM   19  O   UNL     1     -11.546  10.664  67.451  1.00  0.00    -0.445 OA 
HETATM   20  O   UNL     1     -12.333  12.293  66.148  1.00  0.00    -0.588 OA 
ENDBRANCH  16  17
ENDBRANCH  11  16
ENDBRANCH   6  11
ENDBRANCH   5   6
ENDBRANCH   4   5
TORSDOF 7
ENDMDL
MODEL       77
REMARK 921   NORMALIZED FREE ENERGY PREDICTED BY IDOCK:   -4.93 KCAL/MOL
REMARK 922        TOTAL FREE ENERGY PREDICTED BY IDOCK:   -7.88 KCAL/MOL
REMARK 923 INTER-LIGAND FREE ENERGY PREDICTED BY IDOCK:   -6.73 KCAL/MOL
REMARK 924 INTRA-LIGAND FREE ENERGY PREDICTED BY IDOCK:   -1.15 KCAL/MOL
REMARK 927      BINDING AFFINITY PREDICTED BY RF-SCORE:    0.00 PKD
ROOT
HETATM    1  O   UNL     1      -6.513  15.527  66.973  1.00  0.00    -0.285 OA 
HETATM    2  N   UNL     1      -7.475  15.156  67.641  1.00  0.00    -0.163 N  
HETATM    3  O   UNL     1      -7.647  15.167  68.861  1.00  0.00    -0.125 OA 
HETATM    4  O   UNL     1      -8.533  14.646  66.844  1.00  0.00    -0.217 OA 
ENDROOT
BRANCH   4   5
HETATM    5  C   UNL     1      -9.637  14.191  67.628  1.00  0.00    -0.216 C  
BRANCH   5   6
HETATM    6  C   UNL     1     -10.870  15.084  67.334  1.00  0.00    -0.305 C  
BRANCH   6   7
HETATM    7  O   UNL     1     -12.026  14.352  66.892  1.00  0.00    -0.410 OA 
HETATM    8  O   UNL     1     -11.526  15.023  64.788  1.00  0.00    -0.400 OA 
HETATM    9  N   UNL     1     -12.280  14.362  65.499  1.00  0.00    -0.372 N  
HETATM   10  O   UNL     1     -13.229  13.650  65.183  1.00  0.00    -0.739 OA 
ENDBRANCH   6   7
BRANCH   6  11
HETATM   11  C   UNL     1     -11.204  16.092  68.468  1.00  0.00    -0.374 C  
BRANCH  11  12
HETATM   12  O   UNL     1     -10.916  15.470  69.725  1.00  0.00    -0.247 OA 
HETATM   13  O   UNL     1     -13.085  15.827  70.232  1.00  0.00    -0.311 OA 
HETATM   14  O   UNL     1     -11.908  14.227  71.251  1.00  0.00    -0.307 OA 
HETATM   15  N   UNL     1     -12.084  15.149  70.461  1.00  0.00    -0.315 N  
ENDBRANCH  11  12
BRANCH  11  16
HETATM   16  C   UNL     1     -10.454  17.433  68.329  1.00  0.00    -0.385 C  
BRANCH  16  17
HETATM   17  O   UNL     1     -11.068  18.273  67.354  1.00  0.00    -0.241 OA 
HETATM   18  N   UNL     1     -10.206  18.510  66.241  1.00  0.00    -0.406 N  
HETATM   19  O   UNL     1     -10.754  19.153  65.348  1.00  0.00    -0.503 OA 
HETATM   20  O   UNL     1      -9.060  18.076  66.319  1.00  0.00    -0.404 OA 
ENDBRANCH  16  17
ENDBRANCH  11  16
ENDBRANCH   6  11
ENDBRANCH   5   6
ENDBRANCH   4   5
TORSDOF 7
ENDMDL
MODEL       78
REMARK 921   NORMALIZED FREE ENERGY PREDICTED BY IDOCK:   -4.92 KCAL/MOL
REMARK 922        TOTAL FREE ENERGY PREDICTED BY IDOCK:   -7.87 KCAL/MOL
REMARK 923 INTER-LIGAND FREE ENERGY PREDICTED BY IDOCK:   -7.03 KCAL/MOL
REMARK 924 INTRA-LIGAND FREE ENERGY PREDICTED BY IDOCK:   -0.84 KCAL/MOL
REMARK 927      BINDING AFFINITY PREDICTED BY RF-SCORE:    0.00 PKD
ROOT
HETATM    1  O   UNL     1     -11.639  16.194  71.174  1.00  0.00    -0.419 OA 
HETATM    2  N   UNL     1     -12.075  15.413  70.332  1.00  0.00    -0.345 N  
HETATM    3  O   UNL     1     -12.886  14.493  70.446  1.00  0.00    -0.349 OA 
HETATM    4  O   UNL     1     -11.539  15.645  69.038  1.00  0.00    -0.342 OA 
ENDROOT
BRANCH   4   5
HETATM    5  C   UNL     1     -12.029  14.717  68.069  1.00  0.00    -0.257 C  
BRANCH   5   6
HETATM    6  C   UNL     1     -11.093  14.734  66.833  1.00  0.00    -0.339 C  
BRANCH   6   7
HETATM    7  O   UNL     1     -10.125  15.796  66.852  1.00  0.00    -0.254 OA 
HETATM    8  O   UNL     1     -11.032  16.528  64.912  1.00  0.00    -0.624 OA 
HETATM    9  N   UNL     1     -10.190  16.725  65.785  1.00  0.00    -0.323 N  
HETATM   10  O   UNL     1      -9.392  17.650  65.909  1.00  0.00    -0.520 OA 
ENDBRANCH   6   7
BRANCH   6  11
HETATM   11  C   UNL     1     -10.455  13.356  66.506  1.00  0.00    -0.283 C  
BRANCH  11  12
HETATM   12  O   UNL     1     -11.181  12.342  67.209  1.00  0.00    -0.268 OA 
HETATM   13  O   UNL     1      -9.196  11.739  68.092  1.00  0.00    -0.174 OA 
HETATM   14  O   UNL     1     -11.115  11.249  69.121  1.00  0.00    -0.220 OA 
HETATM   15  N   UNL     1     -10.418  11.728  68.233  1.00  0.00    -0.199 N  
ENDBRANCH  11  12
BRANCH  11  16
HETATM   16  C   UNL     1     -10.406  13.054  64.993  1.00  0.00    -0.318 C  
BRANCH  16  17
HETATM   17  O   UNL     1     -11.694  13.191  64.395  1.00  0.00    -0.344 OA 
HETATM   18  N   UNL     1     -12.008  12.079  63.556  1.00  0.00    -0.507 N  
HETATM   19  O   UNL     1     -13.152  12.134  63.109  1.00  0.00    -0.615 OA 
HETATM   20  O   UNL     1     -11.124  11.246  63.376  1.00  0.00    -0.329 OA 
ENDBRANCH  16  17
ENDBRANCH  11  16
ENDBRANCH   6  11
ENDBRANCH   5   6
ENDBRANCH   4   5
TORSDOF 7
ENDMDL
MODEL       79
REMARK 921   NORMALIZED FREE ENERGY PREDICTED BY IDOCK:   -4.92 KCAL/MOL
REMARK 922        TOTAL FREE ENERGY PREDICTED BY IDOCK:   -7.87 KCAL/MOL
REMARK 923 INTER-LIGAND FREE ENERGY PREDICTED BY IDOCK:   -6.93 KCAL/MOL
REMARK 924 INTRA-LIGAND FREE ENERGY PREDICTED BY IDOCK:   -0.93 KCAL/MOL
REMARK 927      BINDING AFFINITY PREDICTED BY RF-SCORE:    0.00 PKD
ROOT
HETATM    1  O   UNL     1     -12.263  15.874  70.720  1.00  0.00    -0.402 OA 
HETATM    2  N   UNL     1     -12.071  14.835  70.094  1.00  0.00    -0.307 N  
HETATM    3  O   UNL     1     -11.862  13.691  70.497  1.00  0.00    -0.291 OA 
HETATM    4  O   UNL     1     -12.109  15.028  68.687  1.00  0.00    -0.265 OA 
ENDROOT
BRANCH   4   5
HETATM    5  C   UNL     1     -11.858  13.822  67.964  1.00  0.00    -0.373 C  
BRANCH   5   6
HETATM    6  C   UNL     1     -10.581  14.004  67.104  1.00  0.00    -0.274 C  
BRANCH   6   7
HETATM    7  O   UNL     1      -9.614  12.953  67.271  1.00  0.00    -0.209 OA 
HETATM    8  O   UNL     1      -8.158  14.537  67.975  1.00  0.00    -0.122 OA 
HETATM    9  N   UNL     1      -8.345  13.340  67.768  1.00  0.00    -0.157 N  
HETATM   10  O   UNL     1      -7.600  12.386  67.966  1.00  0.00    -0.107 OA 
ENDBRANCH   6   7
BRANCH   6  11
HETATM   11  C   UNL     1     -10.865  14.315  65.609  1.00  0.00    -0.309 C  
BRANCH  11  12
HETATM   12  O   UNL     1     -12.220  13.951  65.321  1.00  0.00    -0.386 OA 
HETATM   13  O   UNL     1     -11.383  12.803  63.568  1.00  0.00    -0.462 OA 
HETATM   14  O   UNL     1     -13.361  12.275  64.458  1.00  0.00    -0.769 OA 
HETATM   15  N   UNL     1     -12.318  12.914  64.360  1.00  0.00    -0.401 N  
ENDBRANCH  11  12
BRANCH  11  16
HETATM   16  C   UNL     1     -10.596  15.788  65.234  1.00  0.00    -0.423 C  
BRANCH  16  17
HETATM   17  O   UNL     1     -10.208  16.551  66.375  1.00  0.00    -0.292 OA 
HETATM   18  N   UNL     1     -10.449  17.945  66.185  1.00  0.00    -0.367 N  
HETATM   19  O   UNL     1     -10.210  18.607  67.193  1.00  0.00    -0.339 OA 
HETATM   20  O   UNL     1     -10.832  18.301  65.074  1.00  0.00    -0.679 OA 
ENDBRANCH  16  17
ENDBRANCH  11  16
ENDBRANCH   6  11
ENDBRANCH   5   6
ENDBRANCH   4   5
TORSDOF 7
ENDMDL
MODEL       80
REMARK 921   NORMALIZED FREE ENERGY PREDICTED BY IDOCK:   -4.91 KCAL/MOL
REMARK 922        TOTAL FREE ENERGY PREDICTED BY IDOCK:   -7.85 KCAL/MOL
REMARK 923 INTER-LIGAND FREE ENERGY PREDICTED BY IDOCK:   -7.05 KCAL/MOL
REMARK 924 INTRA-LIGAND FREE ENERGY PREDICTED BY IDOCK:   -0.80 KCAL/MOL
REMARK 927      BINDING AFFINITY PREDICTED BY RF-SCORE:    0.00 PKD
ROOT
HETATM    1  O   UNL     1     -10.315  19.920  68.384  1.00  0.00    -0.450 OA 
HETATM    2  N   UNL     1     -10.263  19.426  67.260  1.00  0.00    -0.385 N  
HETATM    3  O   UNL     1      -9.817  19.888  66.209  1.00  0.00    -0.404 OA 
HETATM    4  O   UNL     1     -10.808  18.116  67.210  1.00  0.00    -0.353 OA 
ENDROOT
BRANCH   4   5
HETATM    5  C   UNL     1     -10.771  17.558  65.896  1.00  0.00    -0.119 C  
BRANCH   5   6
HETATM    6  C   UNL     1     -10.020  16.203  65.943  1.00  0.00    -0.356 C  
BRANCH   6   7
HETATM    7  O   UNL     1      -9.070  16.101  67.016  1.00  0.00    -0.197 OA 
HETATM    8  O   UNL     1      -7.640  17.299  65.733  1.00  0.00    -0.440 OA 
HETATM    9  N   UNL     1      -7.824  16.746  66.815  1.00  0.00    -0.217 N  
HETATM   10  O   UNL     1      -7.096  16.692  67.801  1.00  0.00    -0.127 OA 
ENDBRANCH   6   7
BRANCH   6  11
HETATM   11  C   UNL     1     -10.952  14.962  65.858  1.00  0.00    -0.338 C  
BRANCH  11  12
HETATM   12  O   UNL     1     -11.798  14.951  67.013  1.00  0.00    -0.327 OA 
HETATM   13  O   UNL     1     -11.107  12.826  67.317  1.00  0.00    -0.257 OA 
HETATM   14  O   UNL     1     -11.892  14.041  69.018  1.00  0.00    -0.312 OA 
HETATM   15  N   UNL     1     -11.568  13.833  67.852  1.00  0.00    -0.320 N  
ENDBRANCH  11  12
BRANCH  11  16
HETATM   16  C   UNL     1     -11.787  14.918  64.560  1.00  0.00    -0.396 C  
BRANCH  16  17
HETATM   17  O   UNL     1     -12.851  13.974  64.660  1.00  0.00    -0.661 OA 
HETATM   18  N   UNL     1     -12.560  12.772  63.947  1.00  0.00    -0.324 N  
HETATM   19  O   UNL     1     -13.423  11.911  64.101  1.00  0.00    -0.591 OA 
HETATM   20  O   UNL     1     -11.530  12.753  63.278  1.00  0.00    -0.476 OA 
ENDBRANCH  16  17
ENDBRANCH  11  16
ENDBRANCH   6  11
ENDBRANCH   5   6
ENDBRANCH   4   5
TORSDOF 7
ENDMDL
MODEL       81
REMARK 921   NORMALIZED FREE ENERGY PREDICTED BY IDOCK:   -4.90 KCAL/MOL
REMARK 922        TOTAL FREE ENERGY PREDICTED BY IDOCK:   -7.84 KCAL/MOL
REMARK 923 INTER-LIGAND FREE ENERGY PREDICTED BY IDOCK:   -6.90 KCAL/MOL
REMARK 924 INTRA-LIGAND FREE ENERGY PREDICTED BY IDOCK:   -0.94 KCAL/MOL
REMARK 927      BINDING AFFINITY PREDICTED BY RF-SCORE:    0.00 PKD
ROOT
HETATM    1  O   UNL     1     -12.642  13.298  70.976  1.00  0.00    -0.356 OA 
HETATM    2  N   UNL     1     -12.569  14.412  70.464  1.00  0.00    -0.342 N  
HETATM    3  O   UNL     1     -13.088  15.477  70.801  1.00  0.00    -0.478 OA 
HETATM    4  O   UNL     1     -11.745  14.432  69.308  1.00  0.00    -0.278 OA 
ENDROOT
BRANCH   4   5
HETATM    5  C   UNL     1     -11.686  15.724  68.702  1.00  0.00    -0.344 C  
BRANCH   5   6
HETATM    6  C   UNL     1     -10.973  15.607  67.330  1.00  0.00    -0.275 C  
BRANCH   6   7
HETATM    7  O   UNL     1      -9.870  16.515  67.169  1.00  0.00    -0.244 OA 
HETATM    8  O   UNL     1     -10.883  17.260  65.287  1.00  0.00    -0.576 OA 
HETATM    9  N   UNL     1      -9.927  17.381  66.050  1.00  0.00    -0.254 N  
HETATM   10  O   UNL     1      -8.999  18.183  66.021  1.00  0.00    -0.503 OA 
ENDBRANCH   6   7
BRANCH   6  11
HETATM   11  C   UNL     1     -10.605  14.151  66.931  1.00  0.00    -0.280 C  
BRANCH  11  12
HETATM   12  O   UNL     1     -11.235  13.852  65.681  1.00  0.00    -0.301 OA 
HETATM   13  O   UNL     1     -12.113  12.053  66.720  1.00  0.00    -0.613 OA 
HETATM   14  O   UNL     1     -13.079  12.927  64.907  1.00  0.00    -0.799 OA 
HETATM   15  N   UNL     1     -12.232  12.851  65.792  1.00  0.00    -0.458 N  
ENDBRANCH  11  12
BRANCH  11  16
HETATM   16  C   UNL     1      -9.083  13.908  66.858  1.00  0.00    -0.245 C  
BRANCH  16  17
HETATM   17  O   UNL     1      -8.771  12.524  67.004  1.00  0.00    -0.199 OA 
HETATM   18  N   UNL     1      -7.932  12.288  68.135  1.00  0.00    -0.147 N  
HETATM   19  O   UNL     1      -7.731  11.091  68.332  1.00  0.00    -0.105 OA 
HETATM   20  O   UNL     1      -7.514  13.273  68.737  1.00  0.00    -0.107 OA 
ENDBRANCH  16  17
ENDBRANCH  11  16
ENDBRANCH   6  11
ENDBRANCH   5   6
ENDBRANCH   4   5
TORSDOF 7
ENDMDL
MODEL       82
REMARK 921   NORMALIZED FREE ENERGY PREDICTED BY IDOCK:   -4.88 KCAL/MOL
REMARK 922        TOTAL FREE ENERGY PREDICTED BY IDOCK:   -7.82 KCAL/MOL
REMARK 923 INTER-LIGAND FREE ENERGY PREDICTED BY IDOCK:   -6.86 KCAL/MOL
REMARK 924 INTRA-LIGAND FREE ENERGY PREDICTED BY IDOCK:   -0.96 KCAL/MOL
REMARK 927      BINDING AFFINITY PREDICTED BY RF-SCORE:    0.00 PKD
ROOT
HETATM    1  O   UNL     1      -7.705  10.929  68.922  1.00  0.00    -0.118 OA 
HETATM    2  N   UNL     1      -8.388  11.318  67.978  1.00  0.00    -0.130 N  
HETATM    3  O   UNL     1      -8.769  10.718  66.972  1.00  0.00    -0.134 OA 
HETATM    4  O   UNL     1      -8.782  12.676  68.108  1.00  0.00    -0.180 OA 
ENDROOT
BRANCH   4   5
HETATM    5  C   UNL     1      -9.552  13.131  66.995  1.00  0.00    -0.241 C  
BRANCH   5   6
HETATM    6  C   UNL     1     -11.050  13.162  67.394  1.00  0.00    -0.275 C  
BRANCH   6   7
HETATM    7  O   UNL     1     -11.282  12.954  68.797  1.00  0.00    -0.249 OA 
HETATM    8  O   UNL     1     -12.061  10.897  68.263  1.00  0.00    -0.562 OA 
HETATM    9  N   UNL     1     -11.807  11.691  69.166  1.00  0.00    -0.316 N  
HETATM   10  O   UNL     1     -11.900  11.551  70.381  1.00  0.00    -0.346 OA 
ENDBRANCH   6   7
BRANCH   6  11
HETATM   11  C   UNL     1     -11.825  14.391  66.841  1.00  0.00    -0.410 C  
BRANCH  11  12
HETATM   12  O   UNL     1     -10.873  15.381  66.438  1.00  0.00    -0.314 OA 
HETATM   13  O   UNL     1     -11.383  16.444  68.361  1.00  0.00    -0.366 OA 
HETATM   14  O   UNL     1      -9.433  16.790  67.331  1.00  0.00    -0.232 OA 
HETATM   15  N   UNL     1     -10.540  16.282  67.480  1.00  0.00    -0.309 N  
ENDBRANCH  11  12
BRANCH  11  16
HETATM   16  C   UNL     1     -12.779  14.035  65.682  1.00  0.00    -0.481 C  
BRANCH  16  17
HETATM   17  O   UNL     1     -12.525  12.723  65.185  1.00  0.00    -0.491 OA 
HETATM   18  N   UNL     1     -12.361  12.717  63.767  1.00  0.00    -0.473 N  
HETATM   19  O   UNL     1     -12.047  11.611  63.332  1.00  0.00    -0.441 OA 
HETATM   20  O   UNL     1     -12.567  13.774  63.175  1.00  0.00    -0.793 OA 
ENDBRANCH  16  17
ENDBRANCH  11  16
ENDBRANCH   6  11
ENDBRANCH   5   6
ENDBRANCH   4   5
TORSDOF 7
ENDMDL
MODEL       83
REMARK 921   NORMALIZED FREE ENERGY PREDICTED BY IDOCK:   -4.86 KCAL/MOL
REMARK 922        TOTAL FREE ENERGY PREDICTED BY IDOCK:   -7.79 KCAL/MOL
REMARK 923 INTER-LIGAND FREE ENERGY PREDICTED BY IDOCK:   -6.87 KCAL/MOL
REMARK 924 INTRA-LIGAND FREE ENERGY PREDICTED BY IDOCK:   -0.92 KCAL/MOL
REMARK 927      BINDING AFFINITY PREDICTED BY RF-SCORE:    0.00 PKD
ROOT
HETATM    1  O   UNL     1      -7.330  17.887  65.621  1.00  0.00    -0.533 OA 
HETATM    2  N   UNL     1      -8.502  17.840  65.985  1.00  0.00    -0.103 N  
HETATM    3  O   UNL     1      -9.197  18.693  66.539  1.00  0.00    -0.308 OA 
HETATM    4  O   UNL     1      -9.116  16.593  65.698  1.00  0.00    -0.477 OA 
ENDROOT
BRANCH   4   5
HETATM    5  C   UNL     1     -10.470  16.534  66.147  1.00  0.00    -0.294 C  
BRANCH   5   6
HETATM    6  C   UNL     1     -10.948  15.059  66.124  1.00  0.00    -0.334 C  
BRANCH   6   7
HETATM    7  O   UNL     1     -11.074  14.510  64.802  1.00  0.00    -0.382 OA 
HETATM    8  O   UNL     1     -13.249  14.105  65.283  1.00  0.00    -0.760 OA 
HETATM    9  N   UNL     1     -12.361  14.044  64.435  1.00  0.00    -0.401 N  
HETATM   10  O   UNL     1     -12.416  13.668  63.268  1.00  0.00    -0.801 OA 
ENDBRANCH   6   7
BRANCH   6  11
HETATM   11  C   UNL     1     -10.158  14.125  67.081  1.00  0.00    -0.258 C  
BRANCH  11  12
HETATM   12  O   UNL     1     -11.035  13.711  68.135  1.00  0.00    -0.240 OA 
HETATM   13  O   UNL     1      -9.960  15.220  69.422  1.00  0.00    -0.234 OA 
HETATM   14  O   UNL     1     -12.029  14.542  69.917  1.00  0.00    -0.289 OA 
HETATM   15  N   UNL     1     -10.997  14.578  69.255  1.00  0.00    -0.256 N  
ENDBRANCH  11  12
BRANCH  11  16
HETATM   16  C   UNL     1      -9.539  12.906  66.365  1.00  0.00    -0.252 C  
BRANCH  16  17
HETATM   17  O   UNL     1      -9.910  11.685  67.003  1.00  0.00    -0.190 OA 
HETATM   18  N   UNL     1     -10.174  10.651  66.055  1.00  0.00    -0.250 N  
HETATM   19  O   UNL     1     -10.402   9.568  66.589  1.00  0.00    -0.243 OA 
HETATM   20  O   UNL     1     -10.160  10.964  64.867  1.00  0.00    -0.268 OA 
ENDBRANCH  16  17
ENDBRANCH  11  16
ENDBRANCH   6  11
ENDBRANCH   5   6
ENDBRANCH   4   5
TORSDOF 7
ENDMDL
MODEL       84
REMARK 921   NORMALIZED FREE ENERGY PREDICTED BY IDOCK:   -4.86 KCAL/MOL
REMARK 922        TOTAL FREE ENERGY PREDICTED BY IDOCK:   -7.79 KCAL/MOL
REMARK 923 INTER-LIGAND FREE ENERGY PREDICTED BY IDOCK:   -6.85 KCAL/MOL
REMARK 924 INTRA-LIGAND FREE ENERGY PREDICTED BY IDOCK:   -0.94 KCAL/MOL
REMARK 927      BINDING AFFINITY PREDICTED BY RF-SCORE:    0.00 PKD
ROOT
HETATM    1  O   UNL     1     -12.599  14.526  64.545  1.00  0.00    -0.644 OA 
HETATM    2  N   UNL     1     -12.388  13.706  65.434  1.00  0.00    -0.446 N  
HETATM    3  O   UNL     1     -12.740  12.529  65.531  1.00  0.00    -0.583 OA 
HETATM    4  O   UNL     1     -11.608  14.235  66.496  1.00  0.00    -0.349 OA 
ENDROOT
BRANCH   4   5
HETATM    5  C   UNL     1     -11.388  13.286  67.539  1.00  0.00    -0.296 C  
BRANCH   5   6
HETATM    6  C   UNL     1     -11.393  14.023  68.904  1.00  0.00    -0.280 C  
BRANCH   6   7
HETATM    7  O   UNL     1     -11.436  15.455  68.790  1.00  0.00    -0.301 OA 
HETATM    8  O   UNL     1      -9.352  15.491  69.673  1.00  0.00    -0.275 OA 
HETATM    9  N   UNL     1     -10.277  16.154  69.210  1.00  0.00    -0.241 N  
HETATM   10  O   UNL     1     -10.350  17.362  69.007  1.00  0.00    -0.343 OA 
ENDBRANCH   6   7
BRANCH   6  11
HETATM   11  C   UNL     1     -12.441  13.476  69.912  1.00  0.00    -0.134 C  
BRANCH  11  12
HETATM   12  O   UNL     1     -11.824  12.447  70.692  1.00  0.00    -0.219 OA 
HETATM   13  O   UNL     1     -13.137  11.005  69.560  1.00  0.00     0.032 OA 
HETATM   14  O   UNL     1     -11.236  10.330  70.518  1.00  0.00    -0.300 OA 
HETATM   15  N   UNL     1     -12.097  11.145  70.202  1.00  0.00    -0.335 N  
ENDBRANCH  11  12
BRANCH  11  16
HETATM   16  C   UNL     1     -13.041  14.573  70.818  1.00  0.00    -0.306 C  
BRANCH  16  17
HETATM   17  O   UNL     1     -12.828  14.280  72.197  1.00  0.00    -0.332 OA 
HETATM   18  N   UNL     1     -12.291  15.401  72.899  1.00  0.00    -0.372 N  
HETATM   19  O   UNL     1     -12.191  15.198  74.107  1.00  0.00    -0.607 OA 
HETATM   20  O   UNL     1     -11.988  16.387  72.232  1.00  0.00    -0.524 OA 
ENDBRANCH  16  17
ENDBRANCH  11  16
ENDBRANCH   6  11
ENDBRANCH   5   6
ENDBRANCH   4   5
TORSDOF 7
ENDMDL
MODEL       85
REMARK 921   NORMALIZED FREE ENERGY PREDICTED BY IDOCK:   -4.85 KCAL/MOL
REMARK 922        TOTAL FREE ENERGY PREDICTED BY IDOCK:   -7.77 KCAL/MOL
REMARK 923 INTER-LIGAND FREE ENERGY PREDICTED BY IDOCK:   -6.85 KCAL/MOL
REMARK 924 INTRA-LIGAND FREE ENERGY PREDICTED BY IDOCK:   -0.92 KCAL/MOL
REMARK 927      BINDING AFFINITY PREDICTED BY RF-SCORE:    0.00 PKD
ROOT
HETATM    1  O   UNL     1      -7.118  18.361  65.362  1.00  0.00    -0.531 OA 
HETATM    2  N   UNL     1      -7.468  17.438  66.092  1.00  0.00    -0.313 N  
HETATM    3  O   UNL     1      -6.980  17.029  67.146  1.00  0.00    -0.149 OA 
HETATM    4  O   UNL     1      -8.622  16.765  65.611  1.00  0.00    -0.415 OA 
ENDROOT
BRANCH   4   5
HETATM    5  C   UNL     1      -9.009  15.675  66.448  1.00  0.00    -0.326 C  
BRANCH   5   6
HETATM    6  C   UNL     1     -10.264  16.081  67.262  1.00  0.00    -0.277 C  
BRANCH   6   7
HETATM    7  O   UNL     1     -10.821  17.349  66.876  1.00  0.00    -0.175 OA 
HETATM    8  O   UNL     1      -9.986  18.192  68.804  1.00  0.00    -0.366 OA 
HETATM    9  N   UNL     1     -10.596  18.430  67.764  1.00  0.00    -0.411 N  
HETATM   10  O   UNL     1     -11.023  19.497  67.333  1.00  0.00    -0.477 OA 
ENDBRANCH   6   7
BRANCH   6  11
HETATM   11  C   UNL     1     -11.342  14.966  67.359  1.00  0.00    -0.347 C  
BRANCH  11  12
HETATM   12  O   UNL     1     -10.867  13.816  66.651  1.00  0.00    -0.285 OA 
HETATM   13  O   UNL     1     -12.864  13.821  65.602  1.00  0.00    -0.521 OA 
HETATM   14  O   UNL     1     -11.076  12.852  64.681  1.00  0.00    -0.298 OA 
HETATM   15  N   UNL     1     -11.685  13.475  65.545  1.00  0.00    -0.329 N  
ENDBRANCH  11  12
BRANCH  11  16
HETATM   16  C   UNL     1     -11.713  14.607  68.814  1.00  0.00    -0.324 C  
BRANCH  16  17
HETATM   17  O   UNL     1     -11.483  13.225  69.082  1.00  0.00    -0.271 OA 
HETATM   18  N   UNL     1     -12.144  12.800  70.273  1.00  0.00    -0.342 N  
HETATM   19  O   UNL     1     -12.036  11.592  70.468  1.00  0.00    -0.359 OA 
HETATM   20  O   UNL     1     -12.704  13.666  70.942  1.00  0.00    -0.335 OA 
ENDBRANCH  16  17
ENDBRANCH  11  16
ENDBRANCH   6  11
ENDBRANCH   5   6
ENDBRANCH   4   5
TORSDOF 7
ENDMDL
MODEL       86
REMARK 921   NORMALIZED FREE ENERGY PREDICTED BY IDOCK:   -4.84 KCAL/MOL
REMARK 922        TOTAL FREE ENERGY PREDICTED BY IDOCK:   -7.76 KCAL/MOL
REMARK 923 INTER-LIGAND FREE ENERGY PREDICTED BY IDOCK:   -6.82 KCAL/MOL
REMARK 924 INTRA-LIGAND FREE ENERGY PREDICTED BY IDOCK:   -0.94 KCAL/MOL
REMARK 927      BINDING AFFINITY PREDICTED BY RF-SCORE:    0.00 PKD
ROOT
HETATM    1  O   UNL     1      -9.785  10.225  63.508  1.00  0.00    -0.298 OA 
HETATM    2  N   UNL     1      -9.748  10.273  64.735  1.00  0.00    -0.311 N  
HETATM    3  O   UNL     1      -9.943   9.389  65.571  1.00  0.00    -0.281 OA 
HETATM    4  O   UNL     1      -9.421  11.564  65.225  1.00  0.00    -0.226 OA 
ENDROOT
BRANCH   4   5
HETATM    5  C   UNL     1      -9.407  11.620  66.652  1.00  0.00    -0.194 C  
BRANCH   5   6
HETATM    6  C   UNL     1     -10.015  12.970  67.112  1.00  0.00    -0.235 C  
BRANCH   6   7
HETATM    7  O   UNL     1      -9.551  14.103  66.358  1.00  0.00    -0.282 OA 
HETATM    8  O   UNL     1      -8.729  14.934  68.296  1.00  0.00    -0.155 OA 
HETATM    9  N   UNL     1      -8.849  15.096  67.084  1.00  0.00    -0.202 N  
HETATM   10  O   UNL     1      -8.410  15.989  66.366  1.00  0.00    -0.293 OA 
ENDBRANCH   6   7
BRANCH   6  11
HETATM   11  C   UNL     1     -11.561  12.949  67.259  1.00  0.00    -0.360 C  
BRANCH  11  12
HETATM   12  O   UNL     1     -11.885  13.063  68.649  1.00  0.00    -0.305 OA 
HETATM   13  O   UNL     1     -12.391  10.866  68.561  1.00  0.00    -0.490 OA 
HETATM   14  O   UNL     1     -11.844  11.850  70.489  1.00  0.00    -0.320 OA 
HETATM   15  N   UNL     1     -12.052  11.805  69.280  1.00  0.00    -0.269 N  
ENDBRANCH  11  12
BRANCH  11  16
HETATM   16  C   UNL     1     -12.265  14.048  66.435  1.00  0.00    -0.460 C  
BRANCH  16  17
HETATM   17  O   UNL     1     -12.737  13.539  65.189  1.00  0.00    -0.611 OA 
HETATM   18  N   UNL     1     -12.245  14.301  64.086  1.00  0.00    -0.447 N  
HETATM   19  O   UNL     1     -12.564  13.820  63.001  1.00  0.00    -0.721 OA 
HETATM   20  O   UNL     1     -11.604  15.315  64.348  1.00  0.00    -0.358 OA 
ENDBRANCH  16  17
ENDBRANCH  11  16
ENDBRANCH   6  11
ENDBRANCH   5   6
ENDBRANCH   4   5
TORSDOF 7
ENDMDL
MODEL       87
REMARK 921   NORMALIZED FREE ENERGY PREDICTED BY IDOCK:   -4.84 KCAL/MOL
REMARK 922        TOTAL FREE ENERGY PREDICTED BY IDOCK:   -7.76 KCAL/MOL
REMARK 923 INTER-LIGAND FREE ENERGY PREDICTED BY IDOCK:   -7.09 KCAL/MOL
REMARK 924 INTRA-LIGAND FREE ENERGY PREDICTED BY IDOCK:   -0.67 KCAL/MOL
REMARK 927      BINDING AFFINITY PREDICTED BY RF-SCORE:    0.00 PKD
ROOT
HETATM    1  O   UNL     1     -11.708  16.670  63.896  1.00  0.00    -1.153 OA 
HETATM    2  N   UNL     1     -10.923  16.156  64.688  1.00  0.00    -0.380 N  
HETATM    3  O   UNL     1      -9.991  16.656  65.321  1.00  0.00    -0.539 OA 
HETATM    4  O   UNL     1     -11.164  14.770  64.880  1.00  0.00    -0.372 OA 
ENDROOT
BRANCH   4   5
HETATM    5  C   UNL     1     -10.231  14.172  65.780  1.00  0.00    -0.332 C  
BRANCH   5   6
HETATM    6  C   UNL     1     -10.840  12.863  66.345  1.00  0.00    -0.274 C  
BRANCH   6   7
HETATM    7  O   UNL     1     -10.148  11.674  65.928  1.00  0.00    -0.215 OA 
HETATM    8  O   UNL     1     -11.521  11.623  64.129  1.00  0.00    -0.339 OA 
HETATM    9  N   UNL     1     -10.574  11.094  64.707  1.00  0.00    -0.319 N  
HETATM   10  O   UNL     1      -9.887  10.135  64.370  1.00  0.00    -0.322 OA 
ENDBRANCH   6   7
BRANCH   6  11
HETATM   11  C   UNL     1     -11.093  12.894  67.877  1.00  0.00    -0.252 C  
BRANCH  11  12
HETATM   12  O   UNL     1     -11.916  14.027  68.176  1.00  0.00    -0.357 OA 
HETATM   13  O   UNL     1     -10.211  14.739  69.469  1.00  0.00    -0.175 OA 
HETATM   14  O   UNL     1     -11.716  16.170  68.651  1.00  0.00    -0.362 OA 
HETATM   15  N   UNL     1     -11.205  15.068  68.824  1.00  0.00    -0.262 N  
ENDBRANCH  11  12
BRANCH  11  16
HETATM   16  C   UNL     1     -11.726  11.593  68.414  1.00  0.00    -0.307 C  
BRANCH  16  17
HETATM   17  O   UNL     1     -10.758  10.780  69.075  1.00  0.00    -0.200 OA 
HETATM   18  N   UNL     1     -11.144  10.484  70.417  1.00  0.00    -0.289 N  
HETATM   19  O   UNL     1     -10.370   9.707  70.971  1.00  0.00    -0.298 OA 
HETATM   20  O   UNL     1     -12.154  11.038  70.844  1.00  0.00    -0.342 OA 
ENDBRANCH  16  17
ENDBRANCH  11  16
ENDBRANCH   6  11
ENDBRANCH   5   6
ENDBRANCH   4   5
TORSDOF 7
ENDMDL
MODEL       88
REMARK 921   NORMALIZED FREE ENERGY PREDICTED BY IDOCK:   -4.83 KCAL/MOL
REMARK 922        TOTAL FREE ENERGY PREDICTED BY IDOCK:   -7.74 KCAL/MOL
REMARK 923 INTER-LIGAND FREE ENERGY PREDICTED BY IDOCK:   -6.81 KCAL/MOL
REMARK 924 INTRA-LIGAND FREE ENERGY PREDICTED BY IDOCK:   -0.93 KCAL/MOL
REMARK 927      BINDING AFFINITY PREDICTED BY RF-SCORE:    0.00 PKD
ROOT
HETATM    1  O   UNL     1      -6.995  18.516  65.140  1.00  0.00    -0.516 OA 
HETATM    2  N   UNL     1      -7.244  17.750  66.068  1.00  0.00    -0.303 N  
HETATM    3  O   UNL     1      -6.670  17.593  67.146  1.00  0.00    -0.154 OA 
HETATM    4  O   UNL     1      -8.383  16.939  65.819  1.00  0.00    -0.472 OA 
ENDROOT
BRANCH   4   5
HETATM    5  C   UNL     1      -8.652  16.031  66.888  1.00  0.00    -0.231 C  
BRANCH   5   6
HETATM    6  C   UNL     1      -9.949  16.473  67.614  1.00  0.00    -0.254 C  
BRANCH   6   7
HETATM    7  O   UNL     1     -10.583  17.620  67.023  1.00  0.00    -0.328 OA 
HETATM    8  O   UNL     1      -9.755  18.841  68.740  1.00  0.00    -0.369 OA 
HETATM    9  N   UNL     1     -10.400  18.854  67.693  1.00  0.00    -0.401 N  
HETATM   10  O   UNL     1     -10.895  19.801  67.090  1.00  0.00    -0.452 OA 
ENDBRANCH   6   7
BRANCH   6  11
HETATM   11  C   UNL     1     -10.949  15.314  67.880  1.00  0.00    -0.306 C  
BRANCH  11  12
HETATM   12  O   UNL     1     -10.200  14.131  68.181  1.00  0.00    -0.229 OA 
HETATM   13  O   UNL     1     -11.501  13.098  66.655  1.00  0.00    -0.317 OA 
HETATM   14  O   UNL     1      -9.487  12.298  67.189  1.00  0.00    -0.187 OA 
HETATM   15  N   UNL     1     -10.424  13.087  67.249  1.00  0.00    -0.238 N  
ENDBRANCH  11  12
BRANCH  11  16
HETATM   16  C   UNL     1     -11.959  15.631  69.004  1.00  0.00    -0.304 C  
BRANCH  16  17
HETATM   17  O   UNL     1     -11.296  16.068  70.189  1.00  0.00    -0.328 OA 
HETATM   18  N   UNL     1     -12.169  16.051  71.319  1.00  0.00    -0.411 N  
HETATM   19  O   UNL     1     -11.591  16.333  72.366  1.00  0.00    -0.442 OA 
HETATM   20  O   UNL     1     -13.350  15.787  71.110  1.00  0.00    -0.564 OA 
ENDBRANCH  16  17
ENDBRANCH  11  16
ENDBRANCH   6  11
ENDBRANCH   5   6
ENDBRANCH   4   5
TORSDOF 7
ENDMDL
MODEL       89
REMARK 921   NORMALIZED FREE ENERGY PREDICTED BY IDOCK:   -4.82 KCAL/MOL
REMARK 922        TOTAL FREE ENERGY PREDICTED BY IDOCK:   -7.73 KCAL/MOL
REMARK 923 INTER-LIGAND FREE ENERGY PREDICTED BY IDOCK:   -6.84 KCAL/MOL
REMARK 924 INTRA-LIGAND FREE ENERGY PREDICTED BY IDOCK:   -0.89 KCAL/MOL
REMARK 927      BINDING AFFINITY PREDICTED BY RF-SCORE:    0.00 PKD
ROOT
HETATM    1  O   UNL     1      -7.594  19.760  68.784  1.00  0.00    -0.330 OA 
HETATM    2  N   UNL     1      -8.554  19.390  68.114  1.00  0.00    -0.326 N  
HETATM    3  O   UNL     1      -9.089  19.912  67.135  1.00  0.00    -0.316 OA 
HETATM    4  O   UNL     1      -9.102  18.162  68.571  1.00  0.00    -0.303 OA 
ENDROOT
BRANCH   4   5
HETATM    5  C   UNL     1     -10.235  17.750  67.806  1.00  0.00    -0.361 C  
BRANCH   5   6
HETATM    6  C   UNL     1     -10.468  16.233  68.021  1.00  0.00    -0.293 C  
BRANCH   6   7
HETATM    7  O   UNL     1     -11.757  15.914  68.570  1.00  0.00    -0.383 OA 
HETATM    8  O   UNL     1     -10.738  15.690  70.579  1.00  0.00    -0.320 OA 
HETATM    9  N   UNL     1     -11.802  15.661  69.963  1.00  0.00    -0.351 N  
HETATM   10  O   UNL     1     -12.942  15.480  70.378  1.00  0.00    -0.383 OA 
ENDBRANCH   6   7
BRANCH   6  11
HETATM   11  C   UNL     1     -10.119  15.360  66.784  1.00  0.00    -0.262 C  
BRANCH  11  12
HETATM   12  O   UNL     1     -10.172  16.187  65.616  1.00  0.00    -0.349 OA 
HETATM   13  O   UNL     1     -11.518  14.605  64.737  1.00  0.00    -0.384 OA 
HETATM   14  O   UNL     1     -11.564  16.708  63.989  1.00  0.00    -1.197 OA 
HETATM   15  N   UNL     1     -11.181  15.788  64.705  1.00  0.00    -0.423 N  
ENDBRANCH  11  12
BRANCH  11  16
HETATM   16  C   UNL     1      -8.749  14.658  66.903  1.00  0.00    -0.224 C  
BRANCH  16  17
HETATM   17  O   UNL     1      -8.371  14.488  68.268  1.00  0.00    -0.138 OA 
HETATM   18  N   UNL     1      -7.020  14.042  68.391  1.00  0.00    -0.090 N  
HETATM   19  O   UNL     1      -6.647  13.982  69.560  1.00  0.00    -0.120 OA 
HETATM   20  O   UNL     1      -6.425  13.766  67.352  1.00  0.00    -0.292 OA 
ENDBRANCH  16  17
ENDBRANCH  11  16
ENDBRANCH   6  11
ENDBRANCH   5   6
ENDBRANCH   4   5
TORSDOF 7
ENDMDL
MODEL       90
REMARK 921   NORMALIZED FREE ENERGY PREDICTED BY IDOCK:   -4.81 KCAL/MOL
REMARK 922        TOTAL FREE ENERGY PREDICTED BY IDOCK:   -7.72 KCAL/MOL
REMARK 923 INTER-LIGAND FREE ENERGY PREDICTED BY IDOCK:   -6.76 KCAL/MOL
REMARK 924 INTRA-LIGAND FREE ENERGY PREDICTED BY IDOCK:   -0.96 KCAL/MOL
REMARK 927      BINDING AFFINITY PREDICTED BY RF-SCORE:    0.00 PKD
ROOT
HETATM    1  O   UNL     1      -9.354  18.402  66.069  1.00  0.00    -0.502 OA 
HETATM    2  N   UNL     1      -9.588  18.254  67.266  1.00  0.00    -0.276 N  
HETATM    3  O   UNL     1      -9.566  19.072  68.187  1.00  0.00    -0.309 OA 
HETATM    4  O   UNL     1      -9.939  16.919  67.596  1.00  0.00    -0.257 OA 
ENDROOT
BRANCH   4   5
HETATM    5  C   UNL     1     -10.183  16.747  68.992  1.00  0.00    -0.310 C  
BRANCH   5   6
HETATM    6  C   UNL     1     -11.019  15.458  69.205  1.00  0.00    -0.261 C  
BRANCH   6   7
HETATM    7  O   UNL     1     -12.393  15.707  69.545  1.00  0.00    -0.294 OA 
HETATM    8  O   UNL     1     -11.976  14.727  71.543  1.00  0.00    -0.332 OA 
HETATM    9  N   UNL     1     -12.805  15.296  70.837  1.00  0.00    -0.418 N  
HETATM   10  O   UNL     1     -13.963  15.615  71.091  1.00  0.00    -0.564 OA 
ENDBRANCH   6   7
BRANCH   6  11
HETATM   11  C   UNL     1     -10.870  14.413  68.065  1.00  0.00    -0.243 C  
BRANCH  11  12
HETATM   12  O   UNL     1     -10.054  13.338  68.542  1.00  0.00    -0.239 OA 
HETATM   13  O   UNL     1      -8.644  13.857  66.860  1.00  0.00    -0.201 OA 
HETATM   14  O   UNL     1      -7.928  12.773  68.675  1.00  0.00    -0.114 OA 
HETATM   15  N   UNL     1      -8.758  13.333  67.966  1.00  0.00    -0.178 N  
ENDBRANCH  11  12
BRANCH  11  16
HETATM   16  C   UNL     1     -12.224  13.891  67.540  1.00  0.00    -0.231 C  
BRANCH  16  17
HETATM   17  O   UNL     1     -12.041  12.886  66.545  1.00  0.00    -0.403 OA 
HETATM   18  N   UNL     1     -12.608  13.272  65.293  1.00  0.00    -0.487 N  
HETATM   19  O   UNL     1     -12.377  12.461  64.399  1.00  0.00    -0.437 OA 
HETATM   20  O   UNL     1     -13.249  14.320  65.268  1.00  0.00    -0.704 OA 
ENDBRANCH  16  17
ENDBRANCH  11  16
ENDBRANCH   6  11
ENDBRANCH   5   6
ENDBRANCH   4   5
TORSDOF 7
ENDMDL
MODEL       91
REMARK 921   NORMALIZED FREE ENERGY PREDICTED BY IDOCK:   -4.80 KCAL/MOL
REMARK 922        TOTAL FREE ENERGY PREDICTED BY IDOCK:   -7.71 KCAL/MOL
REMARK 923 INTER-LIGAND FREE ENERGY PREDICTED BY IDOCK:   -6.99 KCAL/MOL
REMARK 924 INTRA-LIGAND FREE ENERGY PREDICTED BY IDOCK:   -0.72 KCAL/MOL
REMARK 927      BINDING AFFINITY PREDICTED BY RF-SCORE:    0.00 PKD
ROOT
HETATM    1  O   UNL     1     -12.546  14.120  63.394  1.00  0.00    -0.818 OA 
HETATM    2  N   UNL     1     -12.313  13.641  64.500  1.00  0.00    -0.379 N  
HETATM    3  O   UNL     1     -12.961  12.835  65.170  1.00  0.00    -0.768 OA 
HETATM    4  O   UNL     1     -11.095  14.112  65.057  1.00  0.00    -0.334 OA 
ENDROOT
BRANCH   4   5
HETATM    5  C   UNL     1     -10.843  13.573  66.355  1.00  0.00    -0.290 C  
BRANCH   5   6
HETATM    6  C   UNL     1     -10.026  14.601  67.180  1.00  0.00    -0.240 C  
BRANCH   6   7
HETATM    7  O   UNL     1      -8.674  14.770  66.723  1.00  0.00    -0.240 OA 
HETATM    8  O   UNL     1      -8.006  14.328  68.841  1.00  0.00    -0.136 OA 
HETATM    9  N   UNL     1      -7.656  14.579  67.690  1.00  0.00    -0.166 N  
HETATM   10  O   UNL     1      -6.527  14.654  67.214  1.00  0.00    -0.298 OA 
ENDBRANCH   6   7
BRANCH   6  11
HETATM   11  C   UNL     1     -10.753  15.958  67.396  1.00  0.00    -0.313 C  
BRANCH  11  12
HETATM   12  O   UNL     1     -10.467  16.418  68.721  1.00  0.00    -0.262 OA 
HETATM   13  O   UNL     1     -12.353  15.348  69.341  1.00  0.00    -0.246 OA 
HETATM   14  O   UNL     1     -10.733  15.783  70.814  1.00  0.00    -0.270 OA 
HETATM   15  N   UNL     1     -11.263  15.784  69.708  1.00  0.00    -0.301 N  
ENDBRANCH  11  12
BRANCH  11  16
HETATM   16  C   UNL     1     -10.373  17.023  66.345  1.00  0.00    -0.303 C  
BRANCH  16  17
HETATM   17  O   UNL     1     -10.566  18.342  66.852  1.00  0.00    -0.386 OA 
HETATM   18  N   UNL     1      -9.451  19.186  66.565  1.00  0.00    -0.343 N  
HETATM   19  O   UNL     1      -9.639  20.351  66.910  1.00  0.00    -0.411 OA 
HETATM   20  O   UNL     1      -8.469  18.661  66.046  1.00  0.00    -0.486 OA 
ENDBRANCH  16  17
ENDBRANCH  11  16
ENDBRANCH   6  11
ENDBRANCH   5   6
ENDBRANCH   4   5
TORSDOF 7
ENDMDL
MODEL       92
REMARK 921   NORMALIZED FREE ENERGY PREDICTED BY IDOCK:   -4.78 KCAL/MOL
REMARK 922        TOTAL FREE ENERGY PREDICTED BY IDOCK:   -7.68 KCAL/MOL
REMARK 923 INTER-LIGAND FREE ENERGY PREDICTED BY IDOCK:   -6.84 KCAL/MOL
REMARK 924 INTRA-LIGAND FREE ENERGY PREDICTED BY IDOCK:   -0.84 KCAL/MOL
REMARK 927      BINDING AFFINITY PREDICTED BY RF-SCORE:    0.00 PKD
ROOT
HETATM    1  O   UNL     1     -12.808  11.807  63.019  1.00  0.00    -0.457 OA 
HETATM    2  N   UNL     1     -11.766  11.808  63.668  1.00  0.00    -0.455 N  
HETATM    3  O   UNL     1     -10.813  11.028  63.642  1.00  0.00    -0.319 OA 
HETATM    4  O   UNL     1     -11.685  12.897  64.575  1.00  0.00    -0.330 OA 
ENDROOT
BRANCH   4   5
HETATM    5  C   UNL     1     -10.484  12.877  65.347  1.00  0.00    -0.292 C  
BRANCH   5   6
HETATM    6  C   UNL     1     -10.403  14.174  66.192  1.00  0.00    -0.300 C  
BRANCH   6   7
HETATM    7  O   UNL     1     -11.160  15.269  65.649  1.00  0.00    -0.334 OA 
HETATM    8  O   UNL     1      -9.235  16.460  65.620  1.00  0.00    -0.465 OA 
HETATM    9  N   UNL     1     -10.435  16.449  65.353  1.00  0.00    -0.352 N  
HETATM   10  O   UNL     1     -11.125  17.310  64.816  1.00  0.00    -0.954 OA 
ENDBRANCH   6   7
BRANCH   6  11
HETATM   11  C   UNL     1     -10.673  13.959  67.707  1.00  0.00    -0.246 C  
BRANCH  11  12
HETATM   12  O   UNL     1      -9.525  14.401  68.438  1.00  0.00    -0.197 OA 
HETATM   13  O   UNL     1      -8.846  12.251  68.384  1.00  0.00    -0.184 OA 
HETATM   14  O   UNL     1      -7.386  13.917  68.661  1.00  0.00    -0.108 OA 
HETATM   15  N   UNL     1      -8.498  13.426  68.492  1.00  0.00    -0.125 N  
ENDBRANCH  11  12
BRANCH  11  16
HETATM   16  C   UNL     1     -11.951  14.669  68.201  1.00  0.00    -0.246 C  
BRANCH  16  17
HETATM   17  O   UNL     1     -11.641  15.722  69.111  1.00  0.00    -0.351 OA 
HETATM   18  N   UNL     1     -12.123  15.444  70.426  1.00  0.00    -0.345 N  
HETATM   19  O   UNL     1     -11.781  16.296  71.244  1.00  0.00    -0.435 OA 
HETATM   20  O   UNL     1     -12.810  14.437  70.569  1.00  0.00    -0.351 OA 
ENDBRANCH  16  17
ENDBRANCH  11  16
ENDBRANCH   6  11
ENDBRANCH   5   6
ENDBRANCH   4   5
TORSDOF 7
ENDMDL
MODEL       93
REMARK 921   NORMALIZED FREE ENERGY PREDICTED BY IDOCK:   -4.78 KCAL/MOL
REMARK 922        TOTAL FREE ENERGY PREDICTED BY IDOCK:   -7.68 KCAL/MOL
REMARK 923 INTER-LIGAND FREE ENERGY PREDICTED BY IDOCK:   -6.91 KCAL/MOL
REMARK 924 INTRA-LIGAND FREE ENERGY PREDICTED BY IDOCK:   -0.77 KCAL/MOL
REMARK 927      BINDING AFFINITY PREDICTED BY RF-SCORE:    0.00 PKD
ROOT
HETATM    1  O   UNL     1      -5.959  16.527  70.307  1.00  0.00    -0.174 OA 
HETATM    2  N   UNL     1      -6.428  16.923  69.244  1.00  0.00    -0.218 N  
HETATM    3  O   UNL     1      -6.069  17.847  68.512  1.00  0.00    -0.178 OA 
HETATM    4  O   UNL     1      -7.557  16.170  68.827  1.00  0.00    -0.167 OA 
ENDROOT
BRANCH   4   5
HETATM    5  C   UNL     1      -8.116  16.653  67.605  1.00  0.00    -0.171 C  
BRANCH   5   6
HETATM    6  C   UNL     1      -9.639  16.363  67.595  1.00  0.00    -0.227 C  
BRANCH   6   7
HETATM    7  O   UNL     1     -10.310  16.741  68.808  1.00  0.00    -0.276 OA 
HETATM    8  O   UNL     1     -10.742  14.544  69.139  1.00  0.00    -0.248 OA 
HETATM    9  N   UNL     1     -10.851  15.685  69.582  1.00  0.00    -0.261 N  
HETATM   10  O   UNL     1     -11.333  16.070  70.643  1.00  0.00    -0.360 OA 
ENDBRANCH   6   7
BRANCH   6  11
HETATM   11  C   UNL     1     -10.371  16.881  66.326  1.00  0.00    -0.308 C  
BRANCH  11  12
HETATM   12  O   UNL     1      -9.579  17.918  65.738  1.00  0.00    -0.514 OA 
HETATM   13  O   UNL     1     -10.983  19.363  66.753  1.00  0.00    -0.421 OA 
HETATM   14  O   UNL     1      -8.917  19.975  66.170  1.00  0.00    -0.353 OA 
HETATM   15  N   UNL     1      -9.860  19.198  66.278  1.00  0.00    -0.370 N  
ENDBRANCH  11  12
BRANCH  11  16
HETATM   16  C   UNL     1     -10.672  15.766  65.302  1.00  0.00    -0.428 C  
BRANCH  16  17
HETATM   17  O   UNL     1     -11.532  14.772  65.856  1.00  0.00    -0.351 OA 
HETATM   18  N   UNL     1     -12.475  14.294  64.896  1.00  0.00    -0.426 N  
HETATM   19  O   UNL     1     -13.161  13.370  65.327  1.00  0.00    -0.687 OA 
HETATM   20  O   UNL     1     -12.497  14.858  63.805  1.00  0.00    -0.768 OA 
ENDBRANCH  16  17
ENDBRANCH  11  16
ENDBRANCH   6  11
ENDBRANCH   5   6
ENDBRANCH   4   5
TORSDOF 7
ENDMDL
MODEL       94
REMARK 921   NORMALIZED FREE ENERGY PREDICTED BY IDOCK:   -4.78 KCAL/MOL
REMARK 922        TOTAL FREE ENERGY PREDICTED BY IDOCK:   -7.67 KCAL/MOL
REMARK 923 INTER-LIGAND FREE ENERGY PREDICTED BY IDOCK:   -8.27 KCAL/MOL
REMARK 924 INTRA-LIGAND FREE ENERGY PREDICTED BY IDOCK:    0.60 KCAL/MOL
REMARK 927      BINDING AFFINITY PREDICTED BY RF-SCORE:    0.00 PKD
ROOT
HETATM    1  O   UNL     1     -11.025  17.744  64.868  1.00  0.00    -0.866 OA 
HETATM    2  N   UNL     1     -11.246  16.569  64.587  1.00  0.00    -0.302 N  
HETATM    3  O   UNL     1     -12.002  16.082  63.745  1.00  0.00    -0.844 OA 
HETATM    4  O   UNL     1     -10.489  15.664  65.376  1.00  0.00    -0.359 OA 
ENDROOT
BRANCH   4   5
HETATM    5  C   UNL     1     -10.770  14.300  65.065  1.00  0.00    -0.420 C  
BRANCH   5   6
HETATM    6  C   UNL     1     -12.040  13.856  65.835  1.00  0.00    -0.433 C  
BRANCH   6   7
HETATM    7  O   UNL     1     -12.978  13.118  65.032  1.00  0.00    -0.729 OA 
HETATM    8  O   UNL     1     -11.234  12.519  63.719  1.00  0.00    -0.395 OA 
HETATM    9  N   UNL     1     -12.441  12.412  63.928  1.00  0.00    -0.478 N  
HETATM   10  O   UNL     1     -13.281  11.739  63.339  1.00  0.00    -0.569 OA 
ENDBRANCH   6   7
BRANCH   6  11
HETATM   11  C   UNL     1     -11.745  13.158  67.192  1.00  0.00    -0.377 C  
BRANCH  11  12
HETATM   12  O   UNL     1     -10.566  12.359  67.042  1.00  0.00    -0.222 OA 
HETATM   13  O   UNL     1     -11.785  10.665  67.897  1.00  0.00    -0.506 OA 
HETATM   14  O   UNL     1      -9.993  10.273  66.625  1.00  0.00    -0.198 OA 
HETATM   15  N   UNL     1     -10.817  10.974  67.204  1.00  0.00    -0.269 N  
ENDBRANCH  11  12
BRANCH  11  16
HETATM   16  C   UNL     1     -11.596  14.151  68.364  1.00  0.00    -0.318 C  
BRANCH  16  17
HETATM   17  O   UNL     1     -10.238  14.253  68.788  1.00  0.00    -0.231 OA 
HETATM   18  N   UNL     1      -9.912  15.580  69.203  1.00  0.00    -0.229 N  
HETATM   19  O   UNL     1      -8.774  15.665  69.661  1.00  0.00    -0.245 OA 
HETATM   20  O   UNL     1     -10.769  16.444  69.040  1.00  0.00    -0.279 OA 
ENDBRANCH  16  17
ENDBRANCH  11  16
ENDBRANCH   6  11
ENDBRANCH   5   6
ENDBRANCH   4   5
TORSDOF 7
ENDMDL
MODEL       95
REMARK 921   NORMALIZED FREE ENERGY PREDICTED BY IDOCK:   -4.75 KCAL/MOL
REMARK 922        TOTAL FREE ENERGY PREDICTED BY IDOCK:   -7.63 KCAL/MOL
REMARK 923 INTER-LIGAND FREE ENERGY PREDICTED BY IDOCK:   -6.94 KCAL/MOL
REMARK 924 INTRA-LIGAND FREE ENERGY PREDICTED BY IDOCK:   -0.69 KCAL/MOL
REMARK 927      BINDING AFFINITY PREDICTED BY RF-SCORE:    0.00 PKD
ROOT
HETATM    1  O   UNL     1     -13.552  15.596  70.694  1.00  0.00    -0.448 OA 
HETATM    2  N   UNL     1     -12.329  15.623  70.585  1.00  0.00    -0.413 N  
HETATM    3  O   UNL     1     -11.456  15.147  71.312  1.00  0.00    -0.327 OA 
HETATM    4  O   UNL     1     -11.896  16.315  69.423  1.00  0.00    -0.213 OA 
ENDROOT
BRANCH   4   5
HETATM    5  C   UNL     1     -10.474  16.367  69.316  1.00  0.00    -0.303 C  
BRANCH   5   6
HETATM    6  C   UNL     1     -10.081  17.498  68.331  1.00  0.00    -0.358 C  
BRANCH   6   7
HETATM    7  O   UNL     1      -8.773  18.046  68.567  1.00  0.00    -0.297 OA 
HETATM    8  O   UNL     1      -9.792  19.993  69.109  1.00  0.00    -0.278 OA 
HETATM    9  N   UNL     1      -8.725  19.392  69.007  1.00  0.00    -0.298 N  
HETATM   10  O   UNL     1      -7.587  19.766  69.270  1.00  0.00    -0.297 OA 
ENDBRANCH   6   7
BRANCH   6  11
HETATM   11  C   UNL     1     -10.313  17.143  66.836  1.00  0.00    -0.308 C  
BRANCH  11  12
HETATM   12  O   UNL     1      -9.277  17.753  66.060  1.00  0.00    -0.503 OA 
HETATM   13  O   UNL     1     -10.692  19.490  65.805  1.00  0.00    -0.503 OA 
HETATM   14  O   UNL     1      -8.485  19.755  65.592  1.00  0.00    -0.362 OA 
HETATM   15  N   UNL     1      -9.517  19.125  65.802  1.00  0.00     0.071 N  
ENDBRANCH  11  12
BRANCH  11  16
HETATM   16  C   UNL     1     -10.378  15.623  66.577  1.00  0.00    -0.291 C  
BRANCH  16  17
HETATM   17  O   UNL     1     -11.393  15.302  65.627  1.00  0.00    -0.301 OA 
HETATM   18  N   UNL     1     -12.339  14.373  66.157  1.00  0.00    -0.369 N  
HETATM   19  O   UNL     1     -13.272  14.158  65.387  1.00  0.00    -0.741 OA 
HETATM   20  O   UNL     1     -12.102  13.905  67.268  1.00  0.00    -0.401 OA 
ENDBRANCH  16  17
ENDBRANCH  11  16
ENDBRANCH   6  11
ENDBRANCH   5   6
ENDBRANCH   4   5
TORSDOF 7
ENDMDL
MODEL       96
REMARK 921   NORMALIZED FREE ENERGY PREDICTED BY IDOCK:   -4.74 KCAL/MOL
REMARK 922        TOTAL FREE ENERGY PREDICTED BY IDOCK:   -7.63 KCAL/MOL
REMARK 923 INTER-LIGAND FREE ENERGY PREDICTED BY IDOCK:   -6.62 KCAL/MOL
REMARK 924 INTRA-LIGAND FREE ENERGY PREDICTED BY IDOCK:   -1.00 KCAL/MOL
REMARK 927      BINDING AFFINITY PREDICTED BY RF-SCORE:    0.00 PKD
ROOT
HETATM    1  O   UNL     1      -6.566  16.557  68.906  1.00  0.00    -0.152 OA 
HETATM    2  N   UNL     1      -7.017  15.640  68.223  1.00  0.00    -0.110 N  
HETATM    3  O   UNL     1      -6.688  15.248  67.103  1.00  0.00    -0.276 OA 
HETATM    4  O   UNL     1      -8.079  14.949  68.864  1.00  0.00    -0.149 OA 
ENDROOT
BRANCH   4   5
HETATM    5  C   UNL     1      -8.617  13.903  68.054  1.00  0.00    -0.178 C  
BRANCH   5   6
HETATM    6  C   UNL     1     -10.159  14.056  67.988  1.00  0.00    -0.239 C  
BRANCH   6   7
HETATM    7  O   UNL     1     -10.874  13.075  68.757  1.00  0.00    -0.250 OA 
HETATM    8  O   UNL     1     -11.717  12.300  66.804  1.00  0.00    -0.450 OA 
HETATM    9  N   UNL     1     -11.667  12.159  68.024  1.00  0.00    -0.348 N  
HETATM   10  O   UNL     1     -12.180  11.299  68.734  1.00  0.00    -0.532 OA 
ENDBRANCH   6   7
BRANCH   6  11
HETATM   11  C   UNL     1     -10.662  15.502  68.257  1.00  0.00    -0.271 C  
BRANCH  11  12
HETATM   12  O   UNL     1     -11.137  16.052  67.024  1.00  0.00    -0.222 OA 
HETATM   13  O   UNL     1      -9.807  17.819  67.471  1.00  0.00    -0.287 OA 
HETATM   14  O   UNL     1     -10.439  17.346  65.382  1.00  0.00    -0.648 OA 
HETATM   15  N   UNL     1     -10.384  17.174  66.596  1.00  0.00    -0.323 N  
ENDBRANCH  11  12
BRANCH  11  16
HETATM   16  C   UNL     1     -11.749  15.572  69.351  1.00  0.00    -0.367 C  
BRANCH  16  17
HETATM   17  O   UNL     1     -11.268  16.235  70.519  1.00  0.00    -0.376 OA 
HETATM   18  N   UNL     1     -12.226  16.204  71.576  1.00  0.00    -0.398 N  
HETATM   19  O   UNL     1     -11.792  16.686  72.620  1.00  0.00    -0.516 OA 
HETATM   20  O   UNL     1     -13.331  15.735  71.317  1.00  0.00    -0.532 OA 
ENDBRANCH  16  17
ENDBRANCH  11  16
ENDBRANCH   6  11
ENDBRANCH   5   6
ENDBRANCH   4   5
TORSDOF 7
ENDMDL
MODEL       97
REMARK 921   NORMALIZED FREE ENERGY PREDICTED BY IDOCK:   -4.74 KCAL/MOL
REMARK 922        TOTAL FREE ENERGY PREDICTED BY IDOCK:   -7.61 KCAL/MOL
REMARK 923 INTER-LIGAND FREE ENERGY PREDICTED BY IDOCK:   -6.66 KCAL/MOL
REMARK 924 INTRA-LIGAND FREE ENERGY PREDICTED BY IDOCK:   -0.95 KCAL/MOL
REMARK 927      BINDING AFFINITY PREDICTED BY RF-SCORE:    0.00 PKD
ROOT
HETATM    1  O   UNL     1     -12.576  13.810  63.134  1.00  0.00    -0.793 OA 
HETATM    2  N   UNL     1     -12.645  13.478  64.314  1.00  0.00    -0.210 N  
HETATM    3  O   UNL     1     -13.111  12.459  64.827  1.00  0.00    -0.806 OA 
HETATM    4  O   UNL     1     -12.086  14.445  65.191  1.00  0.00    -0.381 OA 
ENDROOT
BRANCH   4   5
HETATM    5  C   UNL     1     -12.194  14.066  66.563  1.00  0.00    -0.451 C  
BRANCH   5   6
HETATM    6  C   UNL     1     -10.778  13.772  67.121  1.00  0.00    -0.281 C  
BRANCH   6   7
HETATM    7  O   UNL     1      -9.888  13.175  66.162  1.00  0.00    -0.281 OA 
HETATM    8  O   UNL     1     -10.619  11.158  66.886  1.00  0.00    -0.234 OA 
HETATM    9  N   UNL     1      -9.894  11.760  66.096  1.00  0.00    -0.222 N  
HETATM   10  O   UNL     1      -9.177  11.323  65.201  1.00  0.00    -0.210 OA 
ENDBRANCH   6   7
BRANCH   6  11
HETATM   11  C   UNL     1     -10.130  14.974  67.863  1.00  0.00    -0.226 C  
BRANCH  11  12
HETATM   12  O   UNL     1      -8.950  15.362  67.150  1.00  0.00    -0.196 OA 
HETATM   13  O   UNL     1      -7.876  15.187  69.126  1.00  0.00    -0.169 OA 
HETATM   14  O   UNL     1      -6.773  15.022  67.192  1.00  0.00    -0.273 OA 
HETATM   15  N   UNL     1      -7.764  15.168  67.901  1.00  0.00    -0.125 N  
ENDBRANCH  11  12
BRANCH  11  16
HETATM   16  C   UNL     1     -11.090  16.169  68.038  1.00  0.00    -0.317 C  
BRANCH  16  17
HETATM   17  O   UNL     1     -10.556  17.136  68.940  1.00  0.00    -0.337 OA 
HETATM   18  N   UNL     1     -10.419  18.416  68.323  1.00  0.00    -0.342 N  
HETATM   19  O   UNL     1     -10.051  19.283  69.111  1.00  0.00    -0.401 OA 
HETATM   20  O   UNL     1     -10.659  18.486  67.120  1.00  0.00    -0.402 OA 
ENDBRANCH  16  17
ENDBRANCH  11  16
ENDBRANCH   6  11
ENDBRANCH   5   6
ENDBRANCH   4   5
TORSDOF 7
ENDMDL
MODEL       98
REMARK 921   NORMALIZED FREE ENERGY PREDICTED BY IDOCK:   -4.73 KCAL/MOL
REMARK 922        TOTAL FREE ENERGY PREDICTED BY IDOCK:   -7.61 KCAL/MOL
REMARK 923 INTER-LIGAND FREE ENERGY PREDICTED BY IDOCK:   -6.39 KCAL/MOL
REMARK 924 INTRA-LIGAND FREE ENERGY PREDICTED BY IDOCK:   -1.21 KCAL/MOL
REMARK 927      BINDING AFFINITY PREDICTED BY RF-SCORE:    0.00 PKD
ROOT
HETATM    1  O   UNL     1      -8.558   9.003  67.598  1.00  0.00    -0.120 OA 
HETATM    2  N   UNL     1      -9.339   9.712  66.968  1.00  0.00    -0.144 N  
HETATM    3  O   UNL     1     -10.514   9.518  66.654  1.00  0.00    -0.231 OA 
HETATM    4  O   UNL     1      -8.757  10.942  66.561  1.00  0.00    -0.152 OA 
ENDROOT
BRANCH   4   5
HETATM    5  C   UNL     1      -9.659  11.750  65.806  1.00  0.00    -0.233 C  
BRANCH   5   6
HETATM    6  C   UNL     1     -10.051  12.992  66.646  1.00  0.00    -0.251 C  
BRANCH   6   7
HETATM    7  O   UNL     1      -9.563  14.234  66.110  1.00  0.00    -0.301 OA 
HETATM    8  O   UNL     1      -8.215  14.374  67.924  1.00  0.00    -0.136 OA 
HETATM    9  N   UNL     1      -8.557  14.890  66.862  1.00  0.00    -0.240 N  
HETATM   10  O   UNL     1      -8.128  15.896  66.306  1.00  0.00    -0.243 OA 
ENDBRANCH   6   7
BRANCH   6  11
HETATM   11  C   UNL     1     -11.560  13.057  67.011  1.00  0.00    -0.360 C  
BRANCH  11  12
HETATM   12  O   UNL     1     -12.285  12.243  66.082  1.00  0.00    -0.647 OA 
HETATM   13  O   UNL     1     -13.178  14.168  65.317  1.00  0.00    -0.760 OA 
HETATM   14  O   UNL     1     -13.093  12.343  64.034  1.00  0.00    -0.763 OA 
HETATM   15  N   UNL     1     -12.904  12.998  65.054  1.00  0.00    -0.412 N  
ENDBRANCH  11  12
BRANCH  11  16
HETATM   16  C   UNL     1     -11.852  12.631  68.465  1.00  0.00    -0.300 C  
BRANCH  16  17
HETATM   17  O   UNL     1     -10.780  11.860  69.005  1.00  0.00    -0.214 OA 
HETATM   18  N   UNL     1     -11.255  10.816  69.854  1.00  0.00    -0.289 N  
HETATM   19  O   UNL     1     -10.352  10.084  70.252  1.00  0.00    -0.273 OA 
HETATM   20  O   UNL     1     -12.460  10.791  70.091  1.00  0.00    -0.323 OA 
ENDBRANCH  16  17
ENDBRANCH  11  16
ENDBRANCH   6  11
ENDBRANCH   5   6
ENDBRANCH   4   5
TORSDOF 7
ENDMDL
MODEL       99
REMARK 921   NORMALIZED FREE ENERGY PREDICTED BY IDOCK:   -4.69 KCAL/MOL
REMARK 922        TOTAL FREE ENERGY PREDICTED BY IDOCK:   -7.55 KCAL/MOL
REMARK 923 INTER-LIGAND FREE ENERGY PREDICTED BY IDOCK:   -6.55 KCAL/MOL
REMARK 924 INTRA-LIGAND FREE ENERGY PREDICTED BY IDOCK:   -1.00 KCAL/MOL
REMARK 927      BINDING AFFINITY PREDICTED BY RF-SCORE:    0.00 PKD
ROOT
HETATM    1  O   UNL     1      -9.457  10.257  69.136  1.00  0.00    -0.193 OA 
HETATM    2  N   UNL     1      -9.728  10.831  68.085  1.00  0.00    -0.155 N  
HETATM    3  O   UNL     1     -10.315  10.420  67.083  1.00  0.00    -0.213 OA 
HETATM    4  O   UNL     1      -9.281  12.179  68.064  1.00  0.00    -0.181 OA 
ENDROOT
BRANCH   4   5
HETATM    5  C   UNL     1      -9.574  12.833  66.829  1.00  0.00    -0.244 C  
BRANCH   5   6
HETATM    6  C   UNL     1     -10.286  14.178  67.124  1.00  0.00    -0.258 C  
BRANCH   6   7
HETATM    7  O   UNL     1      -9.979  15.217  66.179  1.00  0.00    -0.264 OA 
HETATM    8  O   UNL     1      -9.172  16.425  67.915  1.00  0.00    -0.200 OA 
HETATM    9  N   UNL     1      -9.359  16.379  66.701  1.00  0.00    -0.243 N  
HETATM   10  O   UNL     1      -9.050  17.186  65.830  1.00  0.00    -0.525 OA 
ENDBRANCH   6   7
BRANCH   6  11
HETATM   11  C   UNL     1     -11.812  14.042  67.381  1.00  0.00    -0.409 C  
BRANCH  11  12
HETATM   12  O   UNL     1     -12.284  12.879  66.693  1.00  0.00    -0.434 OA 
HETATM   13  O   UNL     1     -13.219  14.309  65.221  1.00  0.00    -0.704 OA 
HETATM   14  O   UNL     1     -12.738  12.207  64.644  1.00  0.00    -0.479 OA 
HETATM   15  N   UNL     1     -12.790  13.170  65.402  1.00  0.00    -0.364 N  
ENDBRANCH  11  12
BRANCH  11  16
HETATM   16  C   UNL     1     -12.172  13.983  68.881  1.00  0.00    -0.226 C  
BRANCH  16  17
HETATM   17  O   UNL     1     -11.464  14.974  69.623  1.00  0.00    -0.260 OA 
HETATM   18  N   UNL     1     -12.223  15.442  70.739  1.00  0.00    -0.348 N  
HETATM   19  O   UNL     1     -11.591  16.226  71.444  1.00  0.00    -0.448 OA 
HETATM   20  O   UNL     1     -13.376  15.033  70.841  1.00  0.00    -0.401 OA 
ENDBRANCH  16  17
ENDBRANCH  11  16
ENDBRANCH   6  11
ENDBRANCH   5   6
ENDBRANCH   4   5
TORSDOF 7
ENDMDL
MODEL      100
REMARK 921   NORMALIZED FREE ENERGY PREDICTED BY IDOCK:   -4.69 KCAL/MOL
REMARK 922        TOTAL FREE ENERGY PREDICTED BY IDOCK:   -7.55 KCAL/MOL
REMARK 923 INTER-LIGAND FREE ENERGY PREDICTED BY IDOCK:   -6.86 KCAL/MOL
REMARK 924 INTRA-LIGAND FREE ENERGY PREDICTED BY IDOCK:   -0.69 KCAL/MOL
REMARK 927      BINDING AFFINITY PREDICTED BY RF-SCORE:    0.00 PKD
ROOT
HETATM    1  O   UNL     1     -10.125  20.100  69.360  1.00  0.00    -0.234 OA 
HETATM    2  N   UNL     1     -10.302  19.313  68.433  1.00  0.00    -0.387 N  
HETATM    3  O   UNL     1     -10.400  19.519  67.223  1.00  0.00    -0.386 OA 
HETATM    4  O   UNL     1     -10.398  17.965  68.868  1.00  0.00    -0.367 OA 
ENDROOT
BRANCH   4   5
HETATM    5  C   UNL     1     -10.631  17.058  67.791  1.00  0.00    -0.350 C  
BRANCH   5   6
HETATM    6  C   UNL     1     -10.073  15.663  68.173  1.00  0.00    -0.222 C  
BRANCH   6   7
HETATM    7  O   UNL     1      -9.085  15.699  69.216  1.00  0.00    -0.240 OA 
HETATM    8  O   UNL     1      -7.547  15.159  67.645  1.00  0.00    -0.140 OA 
HETATM    9  N   UNL     1      -7.749  15.436  68.826  1.00  0.00    -0.139 N  
HETATM   10  O   UNL     1      -6.949  15.566  69.747  1.00  0.00    -0.180 OA 
ENDBRANCH   6   7
BRANCH   6  11
HETATM   11  C   UNL     1     -11.169  14.593  68.431  1.00  0.00    -0.274 C  
BRANCH  11  12
HETATM   12  O   UNL     1     -12.316  15.246  68.988  1.00  0.00    -0.162 OA 
HETATM   13  O   UNL     1     -12.041  13.889  70.768  1.00  0.00    -0.334 OA 
HETATM   14  O   UNL     1     -13.128  15.830  70.951  1.00  0.00    -0.516 OA 
HETATM   15  N   UNL     1     -12.502  14.955  70.362  1.00  0.00    -0.340 N  
ENDBRANCH  11  12
BRANCH  11  16
HETATM   16  C   UNL     1     -11.547  13.793  67.167  1.00  0.00    -0.364 C  
BRANCH  16  17
HETATM   17  O   UNL     1     -11.478  14.608  65.998  1.00  0.00    -0.340 OA 
HETATM   18  N   UNL     1     -12.470  14.242  65.039  1.00  0.00    -0.434 N  
HETATM   19  O   UNL     1     -12.488  14.994  64.067  1.00  0.00    -0.796 OA 
HETATM   20  O   UNL     1     -13.146  13.246  65.285  1.00  0.00    -0.652 OA 
ENDBRANCH  16  17
ENDBRANCH  11  16
ENDBRANCH   6  11
ENDBRANCH   5   6
ENDBRANCH   4   5
TORSDOF 7
ENDMDL
MODEL      101
REMARK 921   NORMALIZED FREE ENERGY PREDICTED BY IDOCK:   -4.68 KCAL/MOL
REMARK 922        TOTAL FREE ENERGY PREDICTED BY IDOCK:   -7.53 KCAL/MOL
REMARK 923 INTER-LIGAND FREE ENERGY PREDICTED BY IDOCK:   -6.78 KCAL/MOL
REMARK 924 INTRA-LIGAND FREE ENERGY PREDICTED BY IDOCK:   -0.75 KCAL/MOL
REMARK 927      BINDING AFFINITY PREDICTED BY RF-SCORE:    0.00 PKD
ROOT
HETATM    1  O   UNL     1     -10.675   7.998  66.792  1.00  0.00    -0.289 OA 
HETATM    2  N   UNL     1     -10.057   9.045  66.616  1.00  0.00    -0.278 N  
HETATM    3  O   UNL     1      -8.909   9.231  66.208  1.00  0.00    -0.135 OA 
HETATM    4  O   UNL     1     -10.821  10.196  66.940  1.00  0.00    -0.201 OA 
ENDROOT
BRANCH   4   5
HETATM    5  C   UNL     1     -10.088  11.408  66.760  1.00  0.00    -0.216 C  
BRANCH   5   6
HETATM    6  C   UNL     1     -11.048  12.507  66.235  1.00  0.00    -0.295 C  
BRANCH   6   7
HETATM    7  O   UNL     1     -12.184  11.993  65.520  1.00  0.00    -0.483 OA 
HETATM    8  O   UNL     1     -11.288  12.891  63.645  1.00  0.00    -0.428 OA 
HETATM    9  N   UNL     1     -12.209  12.232  64.124  1.00  0.00    -0.436 N  
HETATM   10  O   UNL     1     -13.160  11.695  63.565  1.00  0.00    -0.472 OA 
ENDBRANCH   6   7
BRANCH   6  11
HETATM   11  C   UNL     1     -11.448  13.560  67.305  1.00  0.00    -0.339 C  
BRANCH  11  12
HETATM   12  O   UNL     1     -10.957  13.121  68.576  1.00  0.00    -0.243 OA 
HETATM   13  O   UNL     1     -12.780  14.114  69.458  1.00  0.00    -0.119 OA 
HETATM   14  O   UNL     1     -11.719  12.474  70.540  1.00  0.00    -0.170 OA 
HETATM   15  N   UNL     1     -11.915  13.253  69.612  1.00  0.00    -0.320 N  
ENDBRANCH  11  12
BRANCH  11  16
HETATM   16  C   UNL     1     -10.943  14.981  66.976  1.00  0.00    -0.318 C  
BRANCH  16  17
HETATM   17  O   UNL     1     -11.650  15.539  65.870  1.00  0.00    -0.025 OA 
HETATM   18  N   UNL     1     -10.802  16.349  65.055  1.00  0.00    -0.354 N  
HETATM   19  O   UNL     1     -11.369  16.760  64.046  1.00  0.00    -1.153 OA 
HETATM   20  O   UNL     1      -9.658  16.543  65.459  1.00  0.00    -0.502 OA 
ENDBRANCH  16  17
ENDBRANCH  11  16
ENDBRANCH   6  11
ENDBRANCH   5   6
ENDBRANCH   4   5
TORSDOF 7
ENDMDL
MODEL      102
REMARK 921   NORMALIZED FREE ENERGY PREDICTED BY IDOCK:   -4.67 KCAL/MOL
REMARK 922        TOTAL FREE ENERGY PREDICTED BY IDOCK:   -7.52 KCAL/MOL
REMARK 923 INTER-LIGAND FREE ENERGY PREDICTED BY IDOCK:   -6.58 KCAL/MOL
REMARK 924 INTRA-LIGAND FREE ENERGY PREDICTED BY IDOCK:   -0.94 KCAL/MOL
REMARK 927      BINDING AFFINITY PREDICTED BY RF-SCORE:    0.00 PKD
ROOT
HETATM    1  O   UNL     1     -12.686  13.532  63.133  1.00  0.00    -0.718 OA 
HETATM    2  N   UNL     1     -12.470  13.360  64.329  1.00  0.00    -0.302 N  
HETATM    3  O   UNL     1     -12.366  12.318  64.977  1.00  0.00    -0.477 OA 
HETATM    4  O   UNL     1     -12.319  14.580  65.040  1.00  0.00    -0.403 OA 
ENDROOT
BRANCH   4   5
HETATM    5  C   UNL     1     -12.096  14.376  66.436  1.00  0.00    -0.369 C  
BRANCH   5   6
HETATM    6  C   UNL     1     -10.756  15.044  66.838  1.00  0.00    -0.308 C  
BRANCH   6   7
HETATM    7  O   UNL     1     -10.915  16.239  67.621  1.00  0.00    -0.315 OA 
HETATM    8  O   UNL     1     -10.249  17.405  65.799  1.00  0.00    -0.555 OA 
HETATM    9  N   UNL     1     -10.640  17.463  66.963  1.00  0.00    -0.285 N  
HETATM   10  O   UNL     1     -10.876  18.443  67.663  1.00  0.00    -0.406 OA 
ENDBRANCH   6   7
BRANCH   6  11
HETATM   11  C   UNL     1      -9.722  14.063  67.456  1.00  0.00    -0.232 C  
BRANCH  11  12
HETATM   12  O   UNL     1      -9.333  14.565  68.739  1.00  0.00    -0.204 OA 
HETATM   13  O   UNL     1      -7.232  13.975  68.170  1.00  0.00    -0.102 OA 
HETATM   14  O   UNL     1      -7.614  15.546  69.709  1.00  0.00    -0.182 OA 
HETATM   15  N   UNL     1      -7.929  14.704  68.873  1.00  0.00    -0.150 N  
ENDBRANCH  11  12
BRANCH  11  16
HETATM   16  C   UNL     1     -10.247  12.616  67.563  1.00  0.00    -0.215 C  
BRANCH  16  17
HETATM   17  O   UNL     1     -10.369  12.208  68.925  1.00  0.00    -0.178 OA 
HETATM   18  N   UNL     1     -11.499  11.358  69.123  1.00  0.00    -0.269 N  
HETATM   19  O   UNL     1     -11.565  10.920  70.270  1.00  0.00    -0.299 OA 
HETATM   20  O   UNL     1     -12.248  11.190  68.165  1.00  0.00    -0.612 OA 
ENDBRANCH  16  17
ENDBRANCH  11  16
ENDBRANCH   6  11
ENDBRANCH   5   6
ENDBRANCH   4   5
TORSDOF 7
ENDMDL
MODEL      103
REMARK 921   NORMALIZED FREE ENERGY PREDICTED BY IDOCK:   -4.67 KCAL/MOL
REMARK 922        TOTAL FREE ENERGY PREDICTED BY IDOCK:   -7.52 KCAL/MOL
REMARK 923 INTER-LIGAND FREE ENERGY PREDICTED BY IDOCK:   -6.66 KCAL/MOL
REMARK 924 INTRA-LIGAND FREE ENERGY PREDICTED BY IDOCK:   -0.85 KCAL/MOL
REMARK 927      BINDING AFFINITY PREDICTED BY RF-SCORE:    0.00 PKD
ROOT
HETATM    1  O   UNL     1     -13.215  11.201  71.836  1.00  0.00    -0.470 OA 
HETATM    2  N   UNL     1     -13.034  12.368  71.499  1.00  0.00    -0.349 N  
HETATM    3  O   UNL     1     -13.409  13.415  72.028  1.00  0.00    -0.415 OA 
HETATM    4  O   UNL     1     -12.263  12.484  70.313  1.00  0.00    -0.329 OA 
ENDROOT
BRANCH   4   5
HETATM    5  C   UNL     1     -12.079  13.842  69.911  1.00  0.00    -0.348 C  
BRANCH   5   6
HETATM    6  C   UNL     1     -11.271  13.874  68.588  1.00  0.00    -0.270 C  
BRANCH   6   7
HETATM    7  O   UNL     1     -12.079  13.713  67.410  1.00  0.00    -0.380 OA 
HETATM    8  O   UNL     1     -10.835  11.885  66.924  1.00  0.00    -0.239 OA 
HETATM    9  N   UNL     1     -11.779  12.597  66.590  1.00  0.00    -0.386 N  
HETATM   10  O   UNL     1     -12.559  12.473  65.651  1.00  0.00    -0.612 OA 
ENDBRANCH   6   7
BRANCH   6  11
HETATM   11  C   UNL     1     -10.291  15.074  68.475  1.00  0.00    -0.230 C  
BRANCH  11  12
HETATM   12  O   UNL     1      -9.148  14.656  67.721  1.00  0.00    -0.183 OA 
HETATM   13  O   UNL     1      -7.921  15.293  69.503  1.00  0.00    -0.222 OA 
HETATM   14  O   UNL     1      -7.147  13.793  68.042  1.00  0.00    -0.100 OA 
HETATM   15  N   UNL     1      -7.970  14.577  68.504  1.00  0.00    -0.136 N  
ENDBRANCH  11  12
BRANCH  11  16
HETATM   16  C   UNL     1     -10.938  16.329  67.852  1.00  0.00    -0.310 C  
BRANCH  16  17
HETATM   17  O   UNL     1      -9.970  17.351  67.621  1.00  0.00    -0.280 OA 
HETATM   18  N   UNL     1      -9.788  17.601  66.227  1.00  0.00    -0.304 N  
HETATM   19  O   UNL     1      -9.029  18.543  66.012  1.00  0.00    -0.491 OA 
HETATM   20  O   UNL     1     -10.375  16.859  65.444  1.00  0.00    -0.609 OA 
ENDBRANCH  16  17
ENDBRANCH  11  16
ENDBRANCH   6  11
ENDBRANCH   5   6
ENDBRANCH   4   5
TORSDOF 7
ENDMDL
MODEL      104
REMARK 921   NORMALIZED FREE ENERGY PREDICTED BY IDOCK:   -4.65 KCAL/MOL
REMARK 922        TOTAL FREE ENERGY PREDICTED BY IDOCK:   -7.49 KCAL/MOL
REMARK 923 INTER-LIGAND FREE ENERGY PREDICTED BY IDOCK:   -6.43 KCAL/MOL
REMARK 924 INTRA-LIGAND FREE ENERGY PREDICTED BY IDOCK:   -1.06 KCAL/MOL
REMARK 927      BINDING AFFINITY PREDICTED BY RF-SCORE:    0.00 PKD
ROOT
HETATM    1  O   UNL     1      -7.525  10.791  67.443  1.00  0.00    -0.094 OA 
HETATM    2  N   UNL     1      -7.666  11.925  67.893  1.00  0.00    -0.121 N  
HETATM    3  O   UNL     1      -7.382  12.381  69.002  1.00  0.00    -0.072 OA 
HETATM    4  O   UNL     1      -8.245  12.820  66.956  1.00  0.00    -0.169 OA 
ENDROOT
BRANCH   4   5
HETATM    5  C   UNL     1      -8.432  14.130  67.494  1.00  0.00    -0.187 C  
BRANCH   5   6
HETATM    6  C   UNL     1      -9.902  14.566  67.267  1.00  0.00    -0.236 C  
BRANCH   6   7
HETATM    7  O   UNL     1     -10.049  15.952  66.918  1.00  0.00    -0.253 OA 
HETATM    8  O   UNL     1     -11.392  16.165  68.728  1.00  0.00    -0.346 OA 
HETATM    9  N   UNL     1     -10.854  16.736  67.781  1.00  0.00    -0.322 N  
HETATM   10  O   UNL     1     -10.867  17.923  67.472  1.00  0.00    -0.364 OA 
ENDBRANCH   6   7
BRANCH   6  11
HETATM   11  C   UNL     1     -10.700  13.628  66.319  1.00  0.00    -0.285 C  
BRANCH  11  12
HETATM   12  O   UNL     1     -11.759  13.022  67.069  1.00  0.00    -0.345 OA 
HETATM   13  O   UNL     1     -10.874  11.045  66.442  1.00  0.00    -0.257 OA 
HETATM   14  O   UNL     1     -12.149  11.215  68.267  1.00  0.00    -0.620 OA 
HETATM   15  N   UNL     1     -11.565  11.633  67.272  1.00  0.00    -0.280 N  
ENDBRANCH  11  12
BRANCH  11  16
HETATM   16  C   UNL     1     -11.247  14.350  65.070  1.00  0.00    -0.375 C  
BRANCH  16  17
HETATM   17  O   UNL     1     -12.444  13.735  64.598  1.00  0.00    -0.548 OA 
HETATM   18  N   UNL     1     -12.171  12.711  63.642  1.00  0.00    -0.515 N  
HETATM   19  O   UNL     1     -13.183  12.106  63.296  1.00  0.00    -0.620 OA 
HETATM   20  O   UNL     1     -11.004  12.579  63.282  1.00  0.00    -0.425 OA 
ENDBRANCH  16  17
ENDBRANCH  11  16
ENDBRANCH   6  11
ENDBRANCH   5   6
ENDBRANCH   4   5
TORSDOF 7
ENDMDL
MODEL      105
REMARK 921   NORMALIZED FREE ENERGY PREDICTED BY IDOCK:   -4.65 KCAL/MOL
REMARK 922        TOTAL FREE ENERGY PREDICTED BY IDOCK:   -7.49 KCAL/MOL
REMARK 923 INTER-LIGAND FREE ENERGY PREDICTED BY IDOCK:   -6.56 KCAL/MOL
REMARK 924 INTRA-LIGAND FREE ENERGY PREDICTED BY IDOCK:   -0.94 KCAL/MOL
REMARK 927      BINDING AFFINITY PREDICTED BY RF-SCORE:    0.00 PKD
ROOT
HETATM    1  O   UNL     1     -12.965  11.737  63.091  1.00  0.00    -0.576 OA 
HETATM    2  N   UNL     1     -12.845  12.824  63.649  1.00  0.00    -0.110 N  
HETATM    3  O   UNL     1     -12.661  13.946  63.175  1.00  0.00    -0.718 OA 
HETATM    4  O   UNL     1     -12.946  12.729  65.063  1.00  0.00    -0.811 OA 
ENDROOT
BRANCH   4   5
HETATM    5  C   UNL     1     -12.779  13.991  65.709  1.00  0.00    -0.450 C  
BRANCH   5   6
HETATM    6  C   UNL     1     -11.436  13.990  66.483  1.00  0.00    -0.357 C  
BRANCH   6   7
HETATM    7  O   UNL     1     -11.318  15.053  67.444  1.00  0.00    -0.329 OA 
HETATM    8  O   UNL     1      -9.861  16.044  66.023  1.00  0.00    -0.292 OA 
HETATM    9  N   UNL     1     -10.462  16.126  67.091  1.00  0.00    -0.303 N  
HETATM   10  O   UNL     1     -10.475  17.035  67.915  1.00  0.00    -0.326 OA 
ENDBRANCH   6   7
BRANCH   6  11
HETATM   11  C   UNL     1     -11.053  12.607  67.080  1.00  0.00    -0.280 C  
BRANCH  11  12
HETATM   12  O   UNL     1      -9.760  12.243  66.584  1.00  0.00    -0.211 OA 
HETATM   13  O   UNL     1     -10.576  10.147  66.420  1.00  0.00    -0.177 OA 
HETATM   14  O   UNL     1      -8.840  10.812  65.183  1.00  0.00    -0.195 OA 
HETATM   15  N   UNL     1      -9.735  10.946  66.012  1.00  0.00    -0.214 N  
ENDBRANCH  11  12
BRANCH  11  16
HETATM   16  C   UNL     1     -11.080  12.584  68.623  1.00  0.00    -0.265 C  
BRANCH  16  17
HETATM   17  O   UNL     1     -11.918  11.537  69.111  1.00  0.00    -0.321 OA 
HETATM   18  N   UNL     1     -11.166  10.530  69.788  1.00  0.00    -0.276 N  
HETATM   19  O   UNL     1     -11.880   9.670  70.298  1.00  0.00    -0.212 OA 
HETATM   20  O   UNL     1      -9.942  10.634  69.763  1.00  0.00    -0.137 OA 
ENDBRANCH  16  17
ENDBRANCH  11  16
ENDBRANCH   6  11
ENDBRANCH   5   6
ENDBRANCH   4   5
TORSDOF 7
ENDMDL
MODEL      106
REMARK 921   NORMALIZED FREE ENERGY PREDICTED BY IDOCK:   -4.65 KCAL/MOL
REMARK 922        TOTAL FREE ENERGY PREDICTED BY IDOCK:   -7.49 KCAL/MOL
REMARK 923 INTER-LIGAND FREE ENERGY PREDICTED BY IDOCK:   -6.50 KCAL/MOL
REMARK 924 INTRA-LIGAND FREE ENERGY PREDICTED BY IDOCK:   -0.99 KCAL/MOL
REMARK 927      BINDING AFFINITY PREDICTED BY RF-SCORE:    0.00 PKD
ROOT
HETATM    1  O   UNL     1     -11.245  16.248  70.404  1.00  0.00    -0.373 OA 
HETATM    2  N   UNL     1     -11.560  15.215  69.820  1.00  0.00    -0.289 N  
HETATM    3  O   UNL     1     -11.790  14.089  70.264  1.00  0.00    -0.299 OA 
HETATM    4  O   UNL     1     -11.671  15.390  68.415  1.00  0.00    -0.352 OA 
ENDROOT
BRANCH   4   5
HETATM    5  C   UNL     1     -12.010  14.180  67.738  1.00  0.00    -0.354 C  
BRANCH   5   6
HETATM    6  C   UNL     1     -11.130  14.045  66.469  1.00  0.00    -0.314 C  
BRANCH   6   7
HETATM    7  O   UNL     1     -11.002  15.265  65.719  1.00  0.00    -0.338 OA 
HETATM    8  O   UNL     1     -12.245  14.285  64.100  1.00  0.00    -0.550 OA 
HETATM    9  N   UNL     1     -11.659  15.303  64.464  1.00  0.00    -0.368 N  
HETATM   10  O   UNL     1     -11.579  16.399  63.918  1.00  0.00    -1.100 OA 
ENDBRANCH   6   7
BRANCH   6  11
HETATM   11  C   UNL     1      -9.759  13.358  66.721  1.00  0.00    -0.262 C  
BRANCH  11  12
HETATM   12  O   UNL     1      -9.555  12.369  65.706  1.00  0.00    -0.236 OA 
HETATM   13  O   UNL     1     -10.494  10.909  67.147  1.00  0.00    -0.213 OA 
HETATM   14  O   UNL     1     -10.489  10.522  64.948  1.00  0.00    -0.301 OA 
HETATM   15  N   UNL     1     -10.248  11.160  65.968  1.00  0.00    -0.242 N  
ENDBRANCH  11  12
BRANCH  11  16
HETATM   16  C   UNL     1      -8.581  14.354  66.769  1.00  0.00    -0.108 C  
BRANCH  16  17
HETATM   17  O   UNL     1      -8.567  15.083  67.995  1.00  0.00    -0.151 OA 
HETATM   18  N   UNL     1      -8.588  16.493  67.772  1.00  0.00    -0.176 N  
HETATM   19  O   UNL     1      -8.673  17.135  68.816  1.00  0.00    -0.268 OA 
HETATM   20  O   UNL     1      -8.503  16.877  66.608  1.00  0.00    -0.207 OA 
ENDBRANCH  16  17
ENDBRANCH  11  16
ENDBRANCH   6  11
ENDBRANCH   5   6
ENDBRANCH   4   5
TORSDOF 7
ENDMDL
MODEL      107
REMARK 921   NORMALIZED FREE ENERGY PREDICTED BY IDOCK:   -4.64 KCAL/MOL
REMARK 922        TOTAL FREE ENERGY PREDICTED BY IDOCK:   -7.48 KCAL/MOL
REMARK 923 INTER-LIGAND FREE ENERGY PREDICTED BY IDOCK:   -6.59 KCAL/MOL
REMARK 924 INTRA-LIGAND FREE ENERGY PREDICTED BY IDOCK:   -0.90 KCAL/MOL
REMARK 927      BINDING AFFINITY PREDICTED BY RF-SCORE:    0.00 PKD
ROOT
HETATM    1  O   UNL     1     -12.148  16.278  63.904  1.00  0.00    -0.986 OA 
HETATM    2  N   UNL     1     -12.321  15.071  64.053  1.00  0.00    -0.248 N  
HETATM    3  O   UNL     1     -12.420  14.173  63.216  1.00  0.00    -0.758 OA 
HETATM    4  O   UNL     1     -12.413  14.694  65.419  1.00  0.00    -0.286 OA 
ENDROOT
BRANCH   4   5
HETATM    5  C   UNL     1     -12.642  13.295  65.586  1.00  0.00    -0.406 C  
BRANCH   5   6
HETATM    6  C   UNL     1     -11.886  12.804  66.847  1.00  0.00    -0.371 C  
BRANCH   6   7
HETATM    7  O   UNL     1     -11.295  11.502  66.700  1.00  0.00    -0.344 OA 
HETATM    8  O   UNL     1     -12.079  11.020  68.769  1.00  0.00    -0.518 OA 
HETATM    9  N   UNL     1     -11.475  10.605  67.782  1.00  0.00    -0.252 N  
HETATM   10  O   UNL     1     -11.019   9.488  67.554  1.00  0.00    -0.241 OA 
ENDBRANCH   6   7
BRANCH   6  11
HETATM   11  C   UNL     1     -10.891  13.844  67.431  1.00  0.00    -0.285 C  
BRANCH  11  12
HETATM   12  O   UNL     1     -11.291  14.149  68.772  1.00  0.00    -0.247 OA 
HETATM   13  O   UNL     1     -11.553  16.272  68.054  1.00  0.00    -0.208 OA 
HETATM   14  O   UNL     1     -12.638  15.517  69.853  1.00  0.00    -0.300 OA 
HETATM   15  N   UNL     1     -11.881  15.432  68.892  1.00  0.00    -0.349 N  
ENDBRANCH  11  12
BRANCH  11  16
HETATM   16  C   UNL     1      -9.423  13.372  67.385  1.00  0.00    -0.222 C  
BRANCH  16  17
HETATM   17  O   UNL     1      -8.786  13.530  68.651  1.00  0.00    -0.123 OA 
HETATM   18  N   UNL     1      -7.858  14.614  68.645  1.00  0.00    -0.132 N  
HETATM   19  O   UNL     1      -7.371  14.825  69.754  1.00  0.00    -0.155 OA 
HETATM   20  O   UNL     1      -7.653  15.169  67.569  1.00  0.00    -0.157 OA 
ENDBRANCH  16  17
ENDBRANCH  11  16
ENDBRANCH   6  11
ENDBRANCH   5   6
ENDBRANCH   4   5
TORSDOF 7
ENDMDL
MODEL      108
REMARK 921   NORMALIZED FREE ENERGY PREDICTED BY IDOCK:   -4.62 KCAL/MOL
REMARK 922        TOTAL FREE ENERGY PREDICTED BY IDOCK:   -7.44 KCAL/MOL
REMARK 923 INTER-LIGAND FREE ENERGY PREDICTED BY IDOCK:   -6.69 KCAL/MOL
REMARK 924 INTRA-LIGAND FREE ENERGY PREDICTED BY IDOCK:   -0.76 KCAL/MOL
REMARK 927      BINDING AFFINITY PREDICTED BY RF-SCORE:    0.00 PKD
ROOT
HETATM    1  O   UNL     1     -10.138  10.017  68.714  1.00  0.00    -0.170 OA 
HETATM    2  N   UNL     1     -11.110  10.767  68.735  1.00  0.00    -0.238 N  
HETATM    3  O   UNL     1     -12.222  10.614  69.241  1.00  0.00    -0.280 OA 
HETATM    4  O   UNL     1     -10.870  11.994  68.062  1.00  0.00    -0.199 OA 
ENDROOT
BRANCH   4   5
HETATM    5  C   UNL     1     -12.012  12.852  68.064  1.00  0.00    -0.275 C  
BRANCH   5   6
HETATM    6  C   UNL     1     -11.650  14.179  67.349  1.00  0.00    -0.372 C  
BRANCH   6   7
HETATM    7  O   UNL     1     -12.462  14.457  66.195  1.00  0.00    -0.392 OA 
HETATM    8  O   UNL     1     -10.658  13.949  64.925  1.00  0.00    -0.372 OA 
HETATM    9  N   UNL     1     -11.841  14.280  64.934  1.00  0.00    -0.389 N  
HETATM   10  O   UNL     1     -12.613  14.452  63.996  1.00  0.00    -0.764 OA 
ENDBRANCH   6   7
BRANCH   6  11
HETATM   11  C   UNL     1     -11.539  15.400  68.303  1.00  0.00    -0.348 C  
BRANCH  11  12
HETATM   12  O   UNL     1     -11.047  14.943  69.568  1.00  0.00    -0.260 OA 
HETATM   13  O   UNL     1     -12.892  15.885  70.461  1.00  0.00    -0.422 OA 
HETATM   14  O   UNL     1     -11.809  14.240  71.512  1.00  0.00    -0.265 OA 
HETATM   15  N   UNL     1     -12.013  15.035  70.601  1.00  0.00    -0.293 N  
ENDBRANCH  11  12
BRANCH  11  16
HETATM   16  C   UNL     1     -10.653  16.531  67.740  1.00  0.00    -0.332 C  
BRANCH  16  17
HETATM   17  O   UNL     1     -10.997  17.792  68.311  1.00  0.00    -0.234 OA 
HETATM   18  N   UNL     1      -9.876  18.676  68.356  1.00  0.00    -0.364 N  
HETATM   19  O   UNL     1     -10.176  19.798  68.756  1.00  0.00    -0.449 OA 
HETATM   20  O   UNL     1      -8.788  18.216  68.020  1.00  0.00    -0.266 OA 
ENDBRANCH  16  17
ENDBRANCH  11  16
ENDBRANCH   6  11
ENDBRANCH   5   6
ENDBRANCH   4   5
TORSDOF 7
ENDMDL
MODEL      109
REMARK 921   NORMALIZED FREE ENERGY PREDICTED BY IDOCK:   -4.61 KCAL/MOL
REMARK 922        TOTAL FREE ENERGY PREDICTED BY IDOCK:   -7.43 KCAL/MOL
REMARK 923 INTER-LIGAND FREE ENERGY PREDICTED BY IDOCK:   -6.53 KCAL/MOL
REMARK 924 INTRA-LIGAND FREE ENERGY PREDICTED BY IDOCK:   -0.90 KCAL/MOL
REMARK 927      BINDING AFFINITY PREDICTED BY RF-SCORE:    0.00 PKD
ROOT
HETATM    1  O   UNL     1     -11.821   6.451  71.097  1.00  0.00    -0.335 OA 
HETATM    2  N   UNL     1     -11.885   7.661  71.299  1.00  0.00    -0.286 N  
HETATM    3  O   UNL     1     -12.660   8.310  72.003  1.00  0.00    -0.321 OA 
HETATM    4  O   UNL     1     -10.888   8.389  70.597  1.00  0.00    -0.222 OA 
ENDROOT
BRANCH   4   5
HETATM    5  C   UNL     1     -10.984   9.797  70.814  1.00  0.00    -0.336 C  
BRANCH   5   6
HETATM    6  C   UNL     1     -10.762  10.533  69.468  1.00  0.00    -0.255 C  
BRANCH   6   7
HETATM    7  O   UNL     1     -10.946   9.698  68.312  1.00  0.00    -0.206 OA 
HETATM    8  O   UNL     1      -8.977  10.504  67.538  1.00  0.00    -0.135 OA 
HETATM    9  N   UNL     1      -9.916   9.736  67.340  1.00  0.00    -0.180 N  
HETATM   10  O   UNL     1     -10.096   8.939  66.425  1.00  0.00    -0.288 OA 
ENDBRANCH   6   7
BRANCH   6  11
HETATM   11  C   UNL     1     -11.527  11.881  69.353  1.00  0.00    -0.302 C  
BRANCH  11  12
HETATM   12  O   UNL     1     -12.356  11.832  68.187  1.00  0.00    -0.389 OA 
HETATM   13  O   UNL     1     -11.201  13.631  67.469  1.00  0.00    -0.276 OA 
HETATM   14  O   UNL     1     -12.255  12.286  66.033  1.00  0.00    -0.646 OA 
HETATM   15  N   UNL     1     -11.884  12.663  67.140  1.00  0.00    -0.366 N  
ENDBRANCH  11  12
BRANCH  11  16
HETATM   16  C   UNL     1     -12.357  12.217  70.609  1.00  0.00    -0.286 C  
BRANCH  16  17
HETATM   17  O   UNL     1     -12.533  13.625  70.753  1.00  0.00    -0.343 OA 
HETATM   18  N   UNL     1     -13.334  13.945  71.891  1.00  0.00    -0.381 N  
HETATM   19  O   UNL     1     -13.417  15.155  72.085  1.00  0.00    -0.354 OA 
HETATM   20  O   UNL     1     -13.839  13.006  72.501  1.00  0.00    -0.625 OA 
ENDBRANCH  16  17
ENDBRANCH  11  16
ENDBRANCH   6  11
ENDBRANCH   5   6
ENDBRANCH   4   5
TORSDOF 7
ENDMDL
MODEL      110
REMARK 921   NORMALIZED FREE ENERGY PREDICTED BY IDOCK:   -4.57 KCAL/MOL
REMARK 922        TOTAL FREE ENERGY PREDICTED BY IDOCK:   -7.38 KCAL/MOL
REMARK 923 INTER-LIGAND FREE ENERGY PREDICTED BY IDOCK:   -6.59 KCAL/MOL
REMARK 924 INTRA-LIGAND FREE ENERGY PREDICTED BY IDOCK:   -0.79 KCAL/MOL
REMARK 927      BINDING AFFINITY PREDICTED BY RF-SCORE:    0.00 PKD
ROOT
HETATM    1  O   UNL     1     -12.996  15.763  70.372  1.00  0.00    -0.409 OA 
HETATM    2  N   UNL     1     -12.460  14.718  70.012  1.00  0.00    -0.310 N  
HETATM    3  O   UNL     1     -12.319  13.650  70.609  1.00  0.00    -0.342 OA 
HETATM    4  O   UNL     1     -11.938  14.794  68.693  1.00  0.00    -0.311 OA 
ENDROOT
BRANCH   4   5
HETATM    5  C   UNL     1     -11.292  13.586  68.291  1.00  0.00    -0.294 C  
BRANCH   5   6
HETATM    6  C   UNL     1     -10.369  13.884  67.081  1.00  0.00    -0.265 C  
BRANCH   6   7
HETATM    7  O   UNL     1      -8.983  13.587  67.320  1.00  0.00    -0.202 OA 
HETATM    8  O   UNL     1      -8.501  15.640  66.497  1.00  0.00    -0.266 OA 
HETATM    9  N   UNL     1      -8.056  14.607  66.994  1.00  0.00    -0.178 N  
HETATM   10  O   UNL     1      -6.904  14.319  67.302  1.00  0.00    -0.234 OA 
ENDBRANCH   6   7
BRANCH   6  11
HETATM   11  C   UNL     1     -10.879  13.293  65.737  1.00  0.00    -0.274 C  
BRANCH  11  12
HETATM   12  O   UNL     1     -10.832  14.323  64.744  1.00  0.00    -0.390 OA 
HETATM   13  O   UNL     1     -13.085  14.323  64.847  1.00  0.00    -0.645 OA 
HETATM   14  O   UNL     1     -11.960  16.109  64.120  1.00  0.00    -0.774 OA 
HETATM   15  N   UNL     1     -12.079  14.971  64.562  1.00  0.00    -0.421 N  
ENDBRANCH  11  12
BRANCH  11  16
HETATM   16  C   UNL     1     -10.088  12.048  65.284  1.00  0.00    -0.260 C  
BRANCH  16  17
HETATM   17  O   UNL     1     -10.520  10.878  65.976  1.00  0.00    -0.251 OA 
HETATM   18  N   UNL     1      -9.822   9.714  65.534  1.00  0.00    -0.313 N  
HETATM   19  O   UNL     1     -10.113   8.713  66.185  1.00  0.00    -0.250 OA 
HETATM   20  O   UNL     1      -9.060   9.847  64.580  1.00  0.00    -0.207 OA 
ENDBRANCH  16  17
ENDBRANCH  11  16
ENDBRANCH   6  11
ENDBRANCH   5   6
ENDBRANCH   4   5
TORSDOF 7
ENDMDL
MODEL      111
REMARK 921   NORMALIZED FREE ENERGY PREDICTED BY IDOCK:   -4.56 KCAL/MOL
REMARK 922        TOTAL FREE ENERGY PREDICTED BY IDOCK:   -7.37 KCAL/MOL
REMARK 923 INTER-LIGAND FREE ENERGY PREDICTED BY IDOCK:   -6.64 KCAL/MOL
REMARK 924 INTRA-LIGAND FREE ENERGY PREDICTED BY IDOCK:   -0.73 KCAL/MOL
REMARK 927      BINDING AFFINITY PREDICTED BY RF-SCORE:    0.00 PKD
ROOT
HETATM    1  O   UNL     1      -6.665  11.458  68.333  1.00  0.00    -0.060 OA 
HETATM    2  N   UNL     1      -7.732  11.344  67.737  1.00  0.00    -0.110 N  
HETATM    3  O   UNL     1      -8.522  10.400  67.693  1.00  0.00    -0.115 OA 
HETATM    4  O   UNL     1      -8.076  12.507  66.999  1.00  0.00    -0.169 OA 
ENDROOT
BRANCH   4   5
HETATM    5  C   UNL     1      -9.304  12.360  66.285  1.00  0.00    -0.189 C  
BRANCH   5   6
HETATM    6  C   UNL     1     -10.268  13.502  66.695  1.00  0.00    -0.275 C  
BRANCH   6   7
HETATM    7  O   UNL     1     -10.270  14.615  65.784  1.00  0.00    -0.302 OA 
HETATM    8  O   UNL     1      -9.879  15.951  67.570  1.00  0.00    -0.227 OA 
HETATM    9  N   UNL     1     -10.027  15.891  66.351  1.00  0.00    -0.270 N  
HETATM   10  O   UNL     1      -9.959  16.781  65.509  1.00  0.00    -0.567 OA 
ENDBRANCH   6   7
BRANCH   6  11
HETATM   11  C   UNL     1     -11.703  13.022  67.046  1.00  0.00    -0.383 C  
BRANCH  11  12
HETATM   12  O   UNL     1     -12.145  12.127  66.019  1.00  0.00    -0.612 OA 
HETATM   13  O   UNL     1     -13.327  13.870  65.213  1.00  0.00    -0.732 OA 
HETATM   14  O   UNL     1     -12.737  12.166  63.897  1.00  0.00    -0.624 OA 
HETATM   15  N   UNL     1     -12.794  12.793  64.950  1.00  0.00    -0.413 N  
ENDBRANCH  11  12
BRANCH  11  16
HETATM   16  C   UNL     1     -11.797  12.359  68.437  1.00  0.00    -0.309 C  
BRANCH  16  17
HETATM   17  O   UNL     1     -12.063  13.323  69.454  1.00  0.00    -0.300 OA 
HETATM   18  N   UNL     1     -12.299  12.705  70.719  1.00  0.00    -0.353 N  
HETATM   19  O   UNL     1     -12.436  13.524  71.626  1.00  0.00    -0.260 OA 
HETATM   20  O   UNL     1     -12.355  11.479  70.741  1.00  0.00    -0.374 OA 
ENDBRANCH  16  17
ENDBRANCH  11  16
ENDBRANCH   6  11
ENDBRANCH   5   6
ENDBRANCH   4   5
TORSDOF 7
ENDMDL
MODEL      112
REMARK 921   NORMALIZED FREE ENERGY PREDICTED BY IDOCK:   -4.56 KCAL/MOL
REMARK 922        TOTAL FREE ENERGY PREDICTED BY IDOCK:   -7.37 KCAL/MOL
REMARK 923 INTER-LIGAND FREE ENERGY PREDICTED BY IDOCK:   -6.46 KCAL/MOL
REMARK 924 INTRA-LIGAND FREE ENERGY PREDICTED BY IDOCK:   -0.90 KCAL/MOL
REMARK 927      BINDING AFFINITY PREDICTED BY RF-SCORE:    0.00 PKD
ROOT
HETATM    1  O   UNL     1      -9.371  15.938  69.523  1.00  0.00    -0.257 OA 
HETATM    2  N   UNL     1     -10.287  15.483  68.844  1.00  0.00    -0.213 N  
HETATM    3  O   UNL     1     -10.798  15.913  67.808  1.00  0.00    -0.311 OA 
HETATM    4  O   UNL     1     -10.808  14.270  69.366  1.00  0.00    -0.235 OA 
ENDROOT
BRANCH   4   5
HETATM    5  C   UNL     1     -11.892  13.760  68.587  1.00  0.00    -0.374 C  
BRANCH   5   6
HETATM    6  C   UNL     1     -11.654  12.253  68.313  1.00  0.00    -0.331 C  
BRANCH   6   7
HETATM    7  O   UNL     1     -12.524  11.383  69.057  1.00  0.00    -0.364 OA 
HETATM    8  O   UNL     1     -10.679  10.594  70.104  1.00  0.00    -0.238 OA 
HETATM    9  N   UNL     1     -11.904  10.544  70.015  1.00  0.00    -0.294 N  
HETATM   10  O   UNL     1     -12.711   9.892  70.670  1.00  0.00    -0.253 OA 
ENDBRANCH   6   7
BRANCH   6  11
HETATM   11  C   UNL     1     -11.598  11.887  66.804  1.00  0.00    -0.268 C  
BRANCH  11  12
HETATM   12  O   UNL     1     -11.507  13.099  66.048  1.00  0.00    -0.314 OA 
HETATM   13  O   UNL     1     -13.136  12.238  64.748  1.00  0.00    -0.724 OA 
HETATM   14  O   UNL     1     -12.791  14.441  64.862  1.00  0.00    -0.645 OA 
HETATM   15  N   UNL     1     -12.582  13.264  65.140  1.00  0.00    -0.468 N  
ENDBRANCH  11  12
BRANCH  11  16
HETATM   16  C   UNL     1     -10.441  10.927  66.455  1.00  0.00    -0.253 C  
BRANCH  16  17
HETATM   17  O   UNL     1     -10.679   9.619  66.971  1.00  0.00    -0.230 OA 
HETATM   18  N   UNL     1      -9.912   8.631  66.282  1.00  0.00    -0.266 N  
HETATM   19  O   UNL     1     -10.032   7.512  66.775  1.00  0.00    -0.219 OA 
HETATM   20  O   UNL     1      -9.267   9.005  65.306  1.00  0.00    -0.209 OA 
ENDBRANCH  16  17
ENDBRANCH  11  16
ENDBRANCH   6  11
ENDBRANCH   5   6
ENDBRANCH   4   5
TORSDOF 7
ENDMDL
MODEL      113
REMARK 921   NORMALIZED FREE ENERGY PREDICTED BY IDOCK:   -4.55 KCAL/MOL
REMARK 922        TOTAL FREE ENERGY PREDICTED BY IDOCK:   -7.35 KCAL/MOL
REMARK 923 INTER-LIGAND FREE ENERGY PREDICTED BY IDOCK:   -6.69 KCAL/MOL
REMARK 924 INTRA-LIGAND FREE ENERGY PREDICTED BY IDOCK:   -0.66 KCAL/MOL
REMARK 927      BINDING AFFINITY PREDICTED BY RF-SCORE:    0.00 PKD
ROOT
HETATM    1  O   UNL     1     -12.820  12.565  63.510  1.00  0.00    -0.731 OA 
HETATM    2  N   UNL     1     -12.633  13.457  64.332  1.00  0.00    -0.246 N  
HETATM    3  O   UNL     1     -12.465  14.666  64.169  1.00  0.00    -0.736 OA 
HETATM    4  O   UNL     1     -12.618  12.978  65.669  1.00  0.00    -0.505 OA 
ENDROOT
BRANCH   4   5
HETATM    5  C   UNL     1     -12.372  14.015  66.619  1.00  0.00    -0.371 C  
BRANCH   5   6
HETATM    6  C   UNL     1     -11.830  13.385  67.928  1.00  0.00    -0.357 C  
BRANCH   6   7
HETATM    7  O   UNL     1     -10.707  12.510  67.729  1.00  0.00    -0.211 OA 
HETATM    8  O   UNL     1     -12.025  10.816  68.450  1.00  0.00    -0.508 OA 
HETATM    9  N   UNL     1     -10.921  11.139  68.017  1.00  0.00    -0.231 N  
HETATM   10  O   UNL     1      -9.950  10.439  67.745  1.00  0.00    -0.168 OA 
ENDBRANCH   6   7
BRANCH   6  11
HETATM   11  C   UNL     1     -11.587  14.411  69.069  1.00  0.00    -0.296 C  
BRANCH  11  12
HETATM   12  O   UNL     1     -11.975  13.809  70.308  1.00  0.00    -0.313 OA 
HETATM   13  O   UNL     1     -13.418  15.529  70.522  1.00  0.00    -0.361 OA 
HETATM   14  O   UNL     1     -13.756  13.596  71.587  1.00  0.00    -0.331 OA 
HETATM   15  N   UNL     1     -13.160  14.370  70.846  1.00  0.00    -0.352 N  
ENDBRANCH  11  12
BRANCH  11  16
HETATM   16  C   UNL     1     -10.130  14.916  69.130  1.00  0.00    -0.226 C  
BRANCH  16  17
HETATM   17  O   UNL     1      -9.703  15.425  67.868  1.00  0.00    -0.207 OA 
HETATM   18  N   UNL     1      -8.321  15.783  67.881  1.00  0.00    -0.148 N  
HETATM   19  O   UNL     1      -7.914  16.133  66.776  1.00  0.00    -0.219 OA 
HETATM   20  O   UNL     1      -7.737  15.718  68.959  1.00  0.00    -0.171 OA 
ENDBRANCH  16  17
ENDBRANCH  11  16
ENDBRANCH   6  11
ENDBRANCH   5   6
ENDBRANCH   4   5
TORSDOF 7
ENDMDL
MODEL      114
REMARK 921   NORMALIZED FREE ENERGY PREDICTED BY IDOCK:   -4.54 KCAL/MOL
REMARK 922        TOTAL FREE ENERGY PREDICTED BY IDOCK:   -7.34 KCAL/MOL
REMARK 923 INTER-LIGAND FREE ENERGY PREDICTED BY IDOCK:   -6.53 KCAL/MOL
REMARK 924 INTRA-LIGAND FREE ENERGY PREDICTED BY IDOCK:   -0.81 KCAL/MOL
REMARK 927      BINDING AFFINITY PREDICTED BY RF-SCORE:    0.00 PKD
ROOT
HETATM    1  O   UNL     1     -12.499  15.404  70.415  1.00  0.00    -0.375 OA 
HETATM    2  N   UNL     1     -11.731  15.513  69.463  1.00  0.00    -0.343 N  
HETATM    3  O   UNL     1     -10.688  16.160  69.354  1.00  0.00    -0.259 OA 
HETATM    4  O   UNL     1     -12.143  14.756  68.335  1.00  0.00    -0.272 OA 
ENDROOT
BRANCH   4   5
HETATM    5  C   UNL     1     -11.261  14.909  67.222  1.00  0.00    -0.345 C  
BRANCH   5   6
HETATM    6  C   UNL     1     -10.436  13.609  67.047  1.00  0.00    -0.270 C  
BRANCH   6   7
HETATM    7  O   UNL     1      -9.508  13.361  68.116  1.00  0.00    -0.208 OA 
HETATM    8  O   UNL     1      -8.074  14.763  67.066  1.00  0.00    -0.205 OA 
HETATM    9  N   UNL     1      -8.271  14.049  68.046  1.00  0.00    -0.143 N  
HETATM   10  O   UNL     1      -7.564  13.857  69.031  1.00  0.00    -0.097 OA 
ENDBRANCH   6   7
BRANCH   6  11
HETATM   11  C   UNL     1     -11.294  12.359  66.705  1.00  0.00    -0.339 C  
BRANCH  11  12
HETATM   12  O   UNL     1     -11.006  11.968  65.358  1.00  0.00    -0.284 OA 
HETATM   13  O   UNL     1     -13.155  12.485  64.905  1.00  0.00    -0.833 OA 
HETATM   14  O   UNL     1     -11.605  12.472  63.298  1.00  0.00    -0.468 OA 
HETATM   15  N   UNL     1     -12.022  12.349  64.446  1.00  0.00    -0.387 N  
ENDBRANCH  11  12
BRANCH  11  16
HETATM   16  C   UNL     1     -11.071  11.185  67.682  1.00  0.00    -0.287 C  
BRANCH  16  17
HETATM   17  O   UNL     1     -12.229  10.948  68.481  1.00  0.00    -0.535 OA 
HETATM   18  N   UNL     1     -11.889  10.707  69.846  1.00  0.00    -0.296 N  
HETATM   19  O   UNL     1     -12.878  10.597  70.567  1.00  0.00    -0.349 OA 
HETATM   20  O   UNL     1     -10.694  10.624  70.119  1.00  0.00    -0.238 OA 
ENDBRANCH  16  17
ENDBRANCH  11  16
ENDBRANCH   6  11
ENDBRANCH   5   6
ENDBRANCH   4   5
TORSDOF 7
ENDMDL
MODEL      115
REMARK 921   NORMALIZED FREE ENERGY PREDICTED BY IDOCK:   -4.54 KCAL/MOL
REMARK 922        TOTAL FREE ENERGY PREDICTED BY IDOCK:   -7.33 KCAL/MOL
REMARK 923 INTER-LIGAND FREE ENERGY PREDICTED BY IDOCK:   -6.29 KCAL/MOL
REMARK 924 INTRA-LIGAND FREE ENERGY PREDICTED BY IDOCK:   -1.04 KCAL/MOL
REMARK 927      BINDING AFFINITY PREDICTED BY RF-SCORE:    0.00 PKD
ROOT
HETATM    1  O   UNL     1      -9.699  16.507  65.698  1.00  0.00    -0.513 OA 
HETATM    2  N   UNL     1      -9.311  15.609  66.440  1.00  0.00    -0.273 N  
HETATM    3  O   UNL     1      -8.845  15.665  67.579  1.00  0.00    -0.175 OA 
HETATM    4  O   UNL     1      -9.439  14.321  65.857  1.00  0.00    -0.237 OA 
ENDROOT
BRANCH   4   5
HETATM    5  C   UNL     1      -8.960  13.283  66.713  1.00  0.00    -0.174 C  
BRANCH   5   6
HETATM    6  C   UNL     1     -10.133  12.331  67.060  1.00  0.00    -0.212 C  
BRANCH   6   7
HETATM    7  O   UNL     1      -9.873  11.475  68.185  1.00  0.00    -0.181 OA 
HETATM    8  O   UNL     1     -10.256   9.716  66.813  1.00  0.00    -0.227 OA 
HETATM    9  N   UNL     1      -9.941  10.081  67.943  1.00  0.00    -0.150 N  
HETATM   10  O   UNL     1      -9.625   9.412  68.923  1.00  0.00    -0.151 OA 
ENDBRANCH   6   7
BRANCH   6  11
HETATM   11  C   UNL     1     -11.512  13.039  67.161  1.00  0.00    -0.331 C  
BRANCH  11  12
HETATM   12  O   UNL     1     -12.467  12.278  66.413  1.00  0.00    -0.377 OA 
HETATM   13  O   UNL     1     -12.719  14.121  65.138  1.00  0.00    -0.616 OA 
HETATM   14  O   UNL     1     -13.226  12.095  64.352  1.00  0.00    -0.758 OA 
HETATM   15  N   UNL     1     -12.829  12.897  65.191  1.00  0.00    -0.389 N  
ENDBRANCH  11  12
BRANCH  11  16
HETATM   16  C   UNL     1     -11.985  13.243  68.616  1.00  0.00    -0.310 C  
BRANCH  16  17
HETATM   17  O   UNL     1     -11.520  14.485  69.142  1.00  0.00    -0.261 OA 
HETATM   18  N   UNL     1     -11.962  14.688  70.484  1.00  0.00    -0.291 N  
HETATM   19  O   UNL     1     -11.493  15.707  70.986  1.00  0.00    -0.328 OA 
HETATM   20  O   UNL     1     -12.743  13.861  70.948  1.00  0.00    -0.333 OA 
ENDBRANCH  16  17
ENDBRANCH  11  16
ENDBRANCH   6  11
ENDBRANCH   5   6
ENDBRANCH   4   5
TORSDOF 7
ENDMDL
MODEL      116
REMARK 921   NORMALIZED FREE ENERGY PREDICTED BY IDOCK:   -4.52 KCAL/MOL
REMARK 922        TOTAL FREE ENERGY PREDICTED BY IDOCK:   -7.31 KCAL/MOL
REMARK 923 INTER-LIGAND FREE ENERGY PREDICTED BY IDOCK:   -6.75 KCAL/MOL
REMARK 924 INTRA-LIGAND FREE ENERGY PREDICTED BY IDOCK:   -0.56 KCAL/MOL
REMARK 927      BINDING AFFINITY PREDICTED BY RF-SCORE:    0.00 PKD
ROOT
HETATM    1  O   UNL     1     -12.359  14.594  63.931  1.00  0.00    -0.730 OA 
HETATM    2  N   UNL     1     -12.585  13.952  64.953  1.00  0.00    -0.383 N  
HETATM    3  O   UNL     1     -13.157  12.871  65.103  1.00  0.00    -0.753 OA 
HETATM    4  O   UNL     1     -12.090  14.587  66.122  1.00  0.00    -0.367 OA 
ENDROOT
BRANCH   4   5
HETATM    5  C   UNL     1     -12.379  13.850  67.310  1.00  0.00    -0.166 C  
BRANCH   5   6
HETATM    6  C   UNL     1     -11.292  14.153  68.372  1.00  0.00    -0.287 C  
BRANCH   6   7
HETATM    7  O   UNL     1      -9.948  14.084  67.864  1.00  0.00    -0.227 OA 
HETATM    8  O   UNL     1      -9.888  11.940  68.589  1.00  0.00    -0.197 OA 
HETATM    9  N   UNL     1      -9.286  12.840  68.008  1.00  0.00    -0.203 N  
HETATM   10  O   UNL     1      -8.179  12.827  67.478  1.00  0.00    -0.157 OA 
ENDBRANCH   6   7
BRANCH   6  11
HETATM   11  C   UNL     1     -11.550  15.449  69.189  1.00  0.00    -0.339 C  
BRANCH  11  12
HETATM   12  O   UNL     1     -11.727  16.534  68.272  1.00  0.00    -0.106 OA 
HETATM   13  O   UNL     1      -9.917  17.461  69.248  1.00  0.00    -0.227 OA 
HETATM   14  O   UNL     1     -10.524  18.018  67.173  1.00  0.00    -0.367 OA 
HETATM   15  N   UNL     1     -10.614  17.411  68.235  1.00  0.00    -0.376 N  
ENDBRANCH  11  12
BRANCH  11  16
HETATM   16  C   UNL     1     -12.754  15.332  70.147  1.00  0.00    -0.242 C  
BRANCH  16  17
HETATM   17  O   UNL     1     -12.865  14.014  70.682  1.00  0.00    -0.316 OA 
HETATM   18  N   UNL     1     -13.281  14.031  72.048  1.00  0.00    -0.380 N  
HETATM   19  O   UNL     1     -13.474  12.903  72.496  1.00  0.00    -0.540 OA 
HETATM   20  O   UNL     1     -13.372  15.129  72.591  1.00  0.00    -0.384 OA 
ENDBRANCH  16  17
ENDBRANCH  11  16
ENDBRANCH   6  11
ENDBRANCH   5   6
ENDBRANCH   4   5
TORSDOF 7
ENDMDL
MODEL      117
REMARK 921   NORMALIZED FREE ENERGY PREDICTED BY IDOCK:   -4.51 KCAL/MOL
REMARK 922        TOTAL FREE ENERGY PREDICTED BY IDOCK:   -7.29 KCAL/MOL
REMARK 923 INTER-LIGAND FREE ENERGY PREDICTED BY IDOCK:   -6.29 KCAL/MOL
REMARK 924 INTRA-LIGAND FREE ENERGY PREDICTED BY IDOCK:   -1.00 KCAL/MOL
REMARK 927      BINDING AFFINITY PREDICTED BY RF-SCORE:    0.00 PKD
ROOT
HETATM    1  O   UNL     1     -10.427   9.232  71.745  1.00  0.00    -0.337 OA 
HETATM    2  N   UNL     1     -11.051   9.631  70.765  1.00  0.00    -0.306 N  
HETATM    3  O   UNL     1     -11.151   9.148  69.636  1.00  0.00    -0.196 OA 
HETATM    4  O   UNL     1     -11.757  10.836  71.017  1.00  0.00    -0.294 OA 
ENDROOT
BRANCH   4   5
HETATM    5  C   UNL     1     -12.459  11.310  69.867  1.00  0.00    -0.153 C  
BRANCH   5   6
HETATM    6  C   UNL     1     -12.148  12.816  69.669  1.00  0.00    -0.222 C  
BRANCH   6   7
HETATM    7  O   UNL     1     -11.723  13.484  70.869  1.00  0.00    -0.082 OA 
HETATM    8  O   UNL     1     -13.205  15.121  70.365  1.00  0.00    -0.262 OA 
HETATM    9  N   UNL     1     -12.371  14.709  71.168  1.00  0.00    -0.313 N  
HETATM   10  O   UNL     1     -12.021  15.181  72.245  1.00  0.00    -0.357 OA 
ENDBRANCH   6   7
BRANCH   6  11
HETATM   11  C   UNL     1     -11.215  13.114  68.462  1.00  0.00    -0.272 C  
BRANCH  11  12
HETATM   12  O   UNL     1     -10.477  11.926  68.157  1.00  0.00    -0.193 OA 
HETATM   13  O   UNL     1      -8.625  13.188  68.415  1.00  0.00    -0.172 OA 
HETATM   14  O   UNL     1      -8.555  10.969  68.652  1.00  0.00    -0.147 OA 
HETATM   15  N   UNL     1      -9.093  12.050  68.438  1.00  0.00    -0.182 N  
ENDBRANCH  11  12
BRANCH  11  16
HETATM   16  C   UNL     1     -11.975  13.629  67.221  1.00  0.00    -0.381 C  
BRANCH  16  17
HETATM   17  O   UNL     1     -12.268  12.567  66.315  1.00  0.00    -0.600 OA 
HETATM   18  N   UNL     1     -12.900  13.044  65.128  1.00  0.00    -0.408 N  
HETATM   19  O   UNL     1     -13.073  12.157  64.295  1.00  0.00    -0.723 OA 
HETATM   20  O   UNL     1     -13.199  14.235  65.093  1.00  0.00    -0.686 OA 
ENDBRANCH  16  17
ENDBRANCH  11  16
ENDBRANCH   6  11
ENDBRANCH   5   6
ENDBRANCH   4   5
TORSDOF 7
ENDMDL
MODEL      118
REMARK 921   NORMALIZED FREE ENERGY PREDICTED BY IDOCK:   -4.50 KCAL/MOL
REMARK 922        TOTAL FREE ENERGY PREDICTED BY IDOCK:   -7.28 KCAL/MOL
REMARK 923 INTER-LIGAND FREE ENERGY PREDICTED BY IDOCK:   -6.13 KCAL/MOL
REMARK 924 INTRA-LIGAND FREE ENERGY PREDICTED BY IDOCK:   -1.15 KCAL/MOL
REMARK 927      BINDING AFFINITY PREDICTED BY RF-SCORE:    0.00 PKD
ROOT
HETATM    1  O   UNL     1      -9.773  20.127  69.826  1.00  0.00     0.064 OA 
HETATM    2  N   UNL     1     -10.086  19.632  68.746  1.00  0.00    -0.459 N  
HETATM    3  O   UNL     1     -10.072  20.119  67.615  1.00  0.00    -0.400 OA 
HETATM    4  O   UNL     1     -10.521  18.286  68.864  1.00  0.00    -0.258 OA 
ENDROOT
BRANCH   4   5
HETATM    5  C   UNL     1     -10.910  17.725  67.610  1.00  0.00    -0.224 C  
BRANCH   5   6
HETATM    6  C   UNL     1     -10.563  16.214  67.603  1.00  0.00    -0.315 C  
BRANCH   6   7
HETATM    7  O   UNL     1     -11.674  15.362  67.931  1.00  0.00    -0.319 OA 
HETATM    8  O   UNL     1     -10.787  15.170  70.005  1.00  0.00    -0.253 OA 
HETATM    9  N   UNL     1     -11.716  14.869  69.258  1.00  0.00    -0.299 N  
HETATM   10  O   UNL     1     -12.731  14.220  69.493  1.00  0.00    -0.127 OA 
ENDBRANCH   6   7
BRANCH   6  11
HETATM   11  C   UNL     1      -9.814  15.744  66.325  1.00  0.00    -0.297 C  
BRANCH  11  12
HETATM   12  O   UNL     1     -10.347  16.454  65.202  1.00  0.00    -0.610 OA 
HETATM   13  O   UNL     1     -11.369  14.520  64.652  1.00  0.00    -0.382 OA 
HETATM   14  O   UNL     1     -12.150  16.485  63.936  1.00  0.00    -0.896 OA 
HETATM   15  N   UNL     1     -11.384  15.746  64.544  1.00  0.00    -0.392 N  
ENDBRANCH  11  12
BRANCH  11  16
HETATM   16  C   UNL     1      -8.284  15.924  66.419  1.00  0.00    -0.228 C  
BRANCH  16  17
HETATM   17  O   UNL     1      -7.878  16.231  67.751  1.00  0.00    -0.138 OA 
HETATM   18  N   UNL     1      -7.222  17.496  67.826  1.00  0.00    -0.175 N  
HETATM   19  O   UNL     1      -6.951  17.820  68.981  1.00  0.00    -0.245 OA 
HETATM   20  O   UNL     1      -7.001  18.076  66.766  1.00  0.00    -0.178 OA 
ENDBRANCH  16  17
ENDBRANCH  11  16
ENDBRANCH   6  11
ENDBRANCH   5   6
ENDBRANCH   4   5
TORSDOF 7
ENDMDL
MODEL      119
REMARK 921   NORMALIZED FREE ENERGY PREDICTED BY IDOCK:   -4.49 KCAL/MOL
REMARK 922        TOTAL FREE ENERGY PREDICTED BY IDOCK:   -7.27 KCAL/MOL
REMARK 923 INTER-LIGAND FREE ENERGY PREDICTED BY IDOCK:   -6.35 KCAL/MOL
REMARK 924 INTRA-LIGAND FREE ENERGY PREDICTED BY IDOCK:   -0.91 KCAL/MOL
REMARK 927      BINDING AFFINITY PREDICTED BY RF-SCORE:    0.00 PKD
ROOT
HETATM    1  O   UNL     1     -12.308  12.580  65.395  1.00  0.00    -0.579 OA 
HETATM    2  N   UNL     1     -11.717  12.654  66.469  1.00  0.00    -0.386 N  
HETATM    3  O   UNL     1     -11.333  13.641  67.099  1.00  0.00    -0.296 OA 
HETATM    4  O   UNL     1     -11.458  11.381  67.043  1.00  0.00    -0.452 OA 
ENDROOT
BRANCH   4   5
HETATM    5  C   UNL     1     -10.746  11.473  68.277  1.00  0.00    -0.211 C  
BRANCH   5   6
HETATM    6  C   UNL     1     -11.023  10.200  69.118  1.00  0.00    -0.230 C  
BRANCH   6   7
HETATM    7  O   UNL     1      -9.834   9.553  69.602  1.00  0.00    -0.181 OA 
HETATM    8  O   UNL     1     -10.612   7.642  68.668  1.00  0.00    -0.195 OA 
HETATM    9  N   UNL     1      -9.695   8.178  69.287  1.00  0.00    -0.168 N  
HETATM   10  O   UNL     1      -8.621   7.712  69.656  1.00  0.00    -0.133 OA 
ENDBRANCH   6   7
BRANCH   6  11
HETATM   11  C   UNL     1     -12.086  10.400  70.234  1.00  0.00    -0.286 C  
BRANCH  11  12
HETATM   12  O   UNL     1     -11.527   9.955  71.475  1.00  0.00    -0.365 OA 
HETATM   13  O   UNL     1     -13.337   8.621  71.643  1.00  0.00    -0.338 OA 
HETATM   14  O   UNL     1     -11.445   8.144  72.727  1.00  0.00    -0.408 OA 
HETATM   15  N   UNL     1     -12.169   8.800  71.985  1.00  0.00    -0.353 N  
ENDBRANCH  11  12
BRANCH  11  16
HETATM   16  C   UNL     1     -12.586  11.856  70.341  1.00  0.00    -0.073 C  
BRANCH  16  17
HETATM   17  O   UNL     1     -13.342  12.058  71.534  1.00  0.00    -0.261 OA 
HETATM   18  N   UNL     1     -13.486  13.444  71.840  1.00  0.00    -0.435 N  
HETATM   19  O   UNL     1     -14.215  13.640  72.810  1.00  0.00    -0.676 OA 
HETATM   20  O   UNL     1     -12.873  14.240  71.134  1.00  0.00    -0.324 OA 
ENDBRANCH  16  17
ENDBRANCH  11  16
ENDBRANCH   6  11
ENDBRANCH   5   6
ENDBRANCH   4   5
TORSDOF 7
ENDMDL
MODEL      120
REMARK 921   NORMALIZED FREE ENERGY PREDICTED BY IDOCK:   -4.47 KCAL/MOL
REMARK 922        TOTAL FREE ENERGY PREDICTED BY IDOCK:   -7.24 KCAL/MOL
REMARK 923 INTER-LIGAND FREE ENERGY PREDICTED BY IDOCK:   -6.36 KCAL/MOL
REMARK 924 INTRA-LIGAND FREE ENERGY PREDICTED BY IDOCK:   -0.88 KCAL/MOL
REMARK 927      BINDING AFFINITY PREDICTED BY RF-SCORE:    0.00 PKD
ROOT
HETATM    1  O   UNL     1     -13.207   7.867  71.610  1.00  0.00    -0.331 OA 
HETATM    2  N   UNL     1     -13.320   9.089  71.650  1.00  0.00    -0.363 N  
HETATM    3  O   UNL     1     -14.128   9.793  72.258  1.00  0.00    -0.191 OA 
HETATM    4  O   UNL     1     -12.346   9.757  70.862  1.00  0.00    -0.300 OA 
ENDROOT
BRANCH   4   5
HETATM    5  C   UNL     1     -12.499  11.177  70.890  1.00  0.00    -0.409 C  
BRANCH   5   6
HETATM    6  C   UNL     1     -11.729  11.793  69.694  1.00  0.00    -0.344 C  
BRANCH   6   7
HETATM    7  O   UNL     1     -11.780  10.997  68.498  1.00  0.00    -0.372 OA 
HETATM    8  O   UNL     1      -9.550  10.681  68.731  1.00  0.00    -0.171 OA 
HETATM    9  N   UNL     1     -10.556  10.422  68.075  1.00  0.00    -0.203 N  
HETATM   10  O   UNL     1     -10.688   9.688  67.100  1.00  0.00    -0.250 OA 
ENDBRANCH   6   7
BRANCH   6  11
HETATM   11  C   UNL     1     -12.068  13.286  69.427  1.00  0.00    -0.248 C  
BRANCH  11  12
HETATM   12  O   UNL     1     -11.469  14.077  70.458  1.00  0.00    -0.162 OA 
HETATM   13  O   UNL     1     -13.554  14.819  70.897  1.00  0.00    -0.351 OA 
HETATM   14  O   UNL     1     -11.952  14.885  72.451  1.00  0.00    -0.341 OA 
HETATM   15  N   UNL     1     -12.422  14.640  71.344  1.00  0.00    -0.324 N  
ENDBRANCH  11  12
BRANCH  11  16
HETATM   16  C   UNL     1     -11.624  13.768  68.030  1.00  0.00    -0.333 C  
BRANCH  16  17
HETATM   17  O   UNL     1     -12.655  13.576  67.063  1.00  0.00    -0.161 OA 
HETATM   18  N   UNL     1     -12.154  12.974  65.869  1.00  0.00    -0.433 N  
HETATM   19  O   UNL     1     -13.045  12.714  65.062  1.00  0.00    -0.808 OA 
HETATM   20  O   UNL     1     -10.939  12.815  65.789  1.00  0.00    -0.270 OA 
ENDBRANCH  16  17
ENDBRANCH  11  16
ENDBRANCH   6  11
ENDBRANCH   5   6
ENDBRANCH   4   5
TORSDOF 7
ENDMDL
MODEL      121
REMARK 921   NORMALIZED FREE ENERGY PREDICTED BY IDOCK:   -4.46 KCAL/MOL
REMARK 922        TOTAL FREE ENERGY PREDICTED BY IDOCK:   -7.23 KCAL/MOL
REMARK 923 INTER-LIGAND FREE ENERGY PREDICTED BY IDOCK:   -6.52 KCAL/MOL
REMARK 924 INTRA-LIGAND FREE ENERGY PREDICTED BY IDOCK:   -0.71 KCAL/MOL
REMARK 927      BINDING AFFINITY PREDICTED BY RF-SCORE:    0.00 PKD
ROOT
HETATM    1  O   UNL     1     -14.133  15.366  71.293  1.00  0.00    -0.494 OA 
HETATM    2  N   UNL     1     -12.960  15.730  71.265  1.00  0.00    -0.479 N  
HETATM    3  O   UNL     1     -12.191  16.005  72.187  1.00  0.00    -0.451 OA 
HETATM    4  O   UNL     1     -12.448  15.832  69.944  1.00  0.00    -0.300 OA 
ENDROOT
BRANCH   4   5
HETATM    5  C   UNL     1     -11.093  16.282  69.916  1.00  0.00    -0.347 C  
BRANCH   5   6
HETATM    6  C   UNL     1     -10.416  15.770  68.619  1.00  0.00    -0.231 C  
BRANCH   6   7
HETATM    7  O   UNL     1     -11.346  15.367  67.599  1.00  0.00    -0.331 OA 
HETATM    8  O   UNL     1     -10.389  13.316  67.675  1.00  0.00    -0.225 OA 
HETATM    9  N   UNL     1     -11.266  14.017  67.175  1.00  0.00    -0.303 N  
HETATM   10  O   UNL     1     -12.140  13.720  66.367  1.00  0.00    -0.406 OA 
ENDBRANCH   6   7
BRANCH   6  11
HETATM   11  C   UNL     1      -9.308  16.712  68.072  1.00  0.00    -0.227 C  
BRANCH  11  12
HETATM   12  O   UNL     1      -9.742  18.066  68.238  1.00  0.00    -0.298 OA 
HETATM   13  O   UNL     1      -9.167  18.360  66.077  1.00  0.00    -0.505 OA 
HETATM   14  O   UNL     1     -10.662  19.691  67.067  1.00  0.00    -0.470 OA 
HETATM   15  N   UNL     1      -9.865  18.759  67.008  1.00  0.00    -0.311 N  
ENDBRANCH  11  12
BRANCH  11  16
HETATM   16  C   UNL     1      -7.935  16.485  68.739  1.00  0.00    -0.236 C  
BRANCH  16  17
HETATM   17  O   UNL     1      -6.892  17.131  68.012  1.00  0.00    -0.162 OA 
HETATM   18  N   UNL     1      -6.314  16.265  67.035  1.00  0.00    -0.157 N  
HETATM   19  O   UNL     1      -5.480  16.834  66.335  1.00  0.00    -0.348 OA 
HETATM   20  O   UNL     1      -6.694  15.098  67.026  1.00  0.00    -0.235 OA 
ENDBRANCH  16  17
ENDBRANCH  11  16
ENDBRANCH   6  11
ENDBRANCH   5   6
ENDBRANCH   4   5
TORSDOF 7
ENDMDL
MODEL      122
REMARK 921   NORMALIZED FREE ENERGY PREDICTED BY IDOCK:   -4.45 KCAL/MOL
REMARK 922        TOTAL FREE ENERGY PREDICTED BY IDOCK:   -7.21 KCAL/MOL
REMARK 923 INTER-LIGAND FREE ENERGY PREDICTED BY IDOCK:   -6.14 KCAL/MOL
REMARK 924 INTRA-LIGAND FREE ENERGY PREDICTED BY IDOCK:   -1.07 KCAL/MOL
REMARK 927      BINDING AFFINITY PREDICTED BY RF-SCORE:    0.00 PKD
ROOT
HETATM    1  O   UNL     1     -10.325   9.878  70.590  1.00  0.00    -0.286 OA 
HETATM    2  N   UNL     1     -10.815  10.138  69.494  1.00  0.00    -0.239 N  
HETATM    3  O   UNL     1     -11.170   9.387  68.584  1.00  0.00    -0.011 OA 
HETATM    4  O   UNL     1     -10.985  11.532  69.284  1.00  0.00    -0.231 OA 
ENDROOT
BRANCH   4   5
HETATM    5  C   UNL     1     -11.529  11.829  67.998  1.00  0.00    -0.319 C  
BRANCH   5   6
HETATM    6  C   UNL     1     -11.037  13.230  67.551  1.00  0.00    -0.270 C  
BRANCH   6   7
HETATM    7  O   UNL     1     -10.626  14.075  68.639  1.00  0.00    -0.246 OA 
HETATM    8  O   UNL     1     -11.971  15.677  67.774  1.00  0.00    -0.048 OA 
HETATM    9  N   UNL     1     -11.204  15.367  68.684  1.00  0.00    -0.289 N  
HETATM   10  O   UNL     1     -10.875  16.002  69.681  1.00  0.00    -0.275 OA 
ENDBRANCH   6   7
BRANCH   6  11
HETATM   11  C   UNL     1      -9.994  13.195  66.400  1.00  0.00    -0.282 C  
BRANCH  11  12
HETATM   12  O   UNL     1      -9.418  11.886  66.351  1.00  0.00    -0.217 OA 
HETATM   13  O   UNL     1      -7.608  12.804  67.336  1.00  0.00    -0.153 OA 
HETATM   14  O   UNL     1      -8.027  10.618  67.498  1.00  0.00    -0.109 OA 
HETATM   15  N   UNL     1      -8.244  11.770  67.138  1.00  0.00    -0.162 N  
ENDBRANCH  11  12
BRANCH  11  16
HETATM   16  C   UNL     1     -10.587  13.591  65.032  1.00  0.00    -0.372 C  
BRANCH  16  17
HETATM   17  O   UNL     1     -10.362  14.971  64.749  1.00  0.00    -0.349 OA 
HETATM   18  N   UNL     1     -11.554  15.620  64.304  1.00  0.00    -0.302 N  
HETATM   19  O   UNL     1     -11.402  16.830  64.147  1.00  0.00    -1.194 OA 
HETATM   20  O   UNL     1     -12.541  14.913  64.120  1.00  0.00    -0.785 OA 
ENDBRANCH  16  17
ENDBRANCH  11  16
ENDBRANCH   6  11
ENDBRANCH   5   6
ENDBRANCH   4   5
TORSDOF 7
ENDMDL
MODEL      123
REMARK 921   NORMALIZED FREE ENERGY PREDICTED BY IDOCK:   -4.43 KCAL/MOL
REMARK 922        TOTAL FREE ENERGY PREDICTED BY IDOCK:   -7.19 KCAL/MOL
REMARK 923 INTER-LIGAND FREE ENERGY PREDICTED BY IDOCK:   -6.24 KCAL/MOL
REMARK 924 INTRA-LIGAND FREE ENERGY PREDICTED BY IDOCK:   -0.95 KCAL/MOL
REMARK 927      BINDING AFFINITY PREDICTED BY RF-SCORE:    0.00 PKD
ROOT
HETATM    1  O   UNL     1     -10.324   7.464  67.302  1.00  0.00    -0.226 OA 
HETATM    2  N   UNL     1      -9.753   8.543  67.173  1.00  0.00    -0.175 N  
HETATM    3  O   UNL     1      -8.601   8.872  67.458  1.00  0.00    -0.119 OA 
HETATM    4  O   UNL     1     -10.585   9.539  66.596  1.00  0.00    -0.195 OA 
ENDROOT
BRANCH   4   5
HETATM    5  C   UNL     1      -9.925  10.799  66.474  1.00  0.00    -0.213 C  
BRANCH   5   6
HETATM    6  C   UNL     1     -10.982  11.932  66.527  1.00  0.00    -0.292 C  
BRANCH   6   7
HETATM    7  O   UNL     1     -12.063  11.762  65.594  1.00  0.00    -0.336 OA 
HETATM    8  O   UNL     1     -11.167  13.461  64.396  1.00  0.00    -0.358 OA 
HETATM    9  N   UNL     1     -12.060  12.619  64.466  1.00  0.00    -0.393 N  
HETATM   10  O   UNL     1     -12.960  12.363  63.672  1.00  0.00    -0.758 OA 
ENDBRANCH   6   7
BRANCH   6  11
HETATM   11  C   UNL     1     -11.483  12.262  67.960  1.00  0.00    -0.321 C  
BRANCH  11  12
HETATM   12  O   UNL     1     -10.514  11.782  68.899  1.00  0.00    -0.207 OA 
HETATM   13  O   UNL     1     -12.231  10.720  69.904  1.00  0.00    -0.318 OA 
HETATM   14  O   UNL     1     -10.128  10.017  70.160  1.00  0.00    -0.255 OA 
HETATM   15  N   UNL     1     -11.014  10.744  69.725  1.00  0.00    -0.261 N  
ENDBRANCH  11  12
BRANCH  11  16
HETATM   16  C   UNL     1     -11.764  13.764  68.174  1.00  0.00    -0.357 C  
BRANCH  16  17
HETATM   17  O   UNL     1     -12.300  14.012  69.472  1.00  0.00    -0.332 OA 
HETATM   18  N   UNL     1     -12.306  15.405  69.785  1.00  0.00    -0.301 N  
HETATM   19  O   UNL     1     -12.852  15.645  70.859  1.00  0.00    -0.472 OA 
HETATM   20  O   UNL     1     -11.769  16.161  68.980  1.00  0.00    -0.345 OA 
ENDBRANCH  16  17
ENDBRANCH  11  16
ENDBRANCH   6  11
ENDBRANCH   5   6
ENDBRANCH   4   5
TORSDOF 7
ENDMDL
MODEL      124
REMARK 921   NORMALIZED FREE ENERGY PREDICTED BY IDOCK:   -4.43 KCAL/MOL
REMARK 922        TOTAL FREE ENERGY PREDICTED BY IDOCK:   -7.18 KCAL/MOL
REMARK 923 INTER-LIGAND FREE ENERGY PREDICTED BY IDOCK:   -7.20 KCAL/MOL
REMARK 924 INTRA-LIGAND FREE ENERGY PREDICTED BY IDOCK:    0.02 KCAL/MOL
REMARK 927      BINDING AFFINITY PREDICTED BY RF-SCORE:    0.00 PKD
ROOT
HETATM    1  O   UNL     1      -8.578  16.683  65.720  1.00  0.00    -0.464 OA 
HETATM    2  N   UNL     1      -8.470  15.748  66.508  1.00  0.00    -0.290 N  
HETATM    3  O   UNL     1      -7.630  15.539  67.385  1.00  0.00    -0.163 OA 
HETATM    4  O   UNL     1      -9.496  14.778  66.354  1.00  0.00    -0.271 OA 
ENDROOT
BRANCH   4   5
HETATM    5  C   UNL     1      -9.350  13.679  67.253  1.00  0.00    -0.233 C  
BRANCH   5   6
HETATM    6  C   UNL     1     -10.753  13.113  67.593  1.00  0.00    -0.238 C  
BRANCH   6   7
HETATM    7  O   UNL     1     -10.822  12.465  68.875  1.00  0.00    -0.230 OA 
HETATM    8  O   UNL     1     -11.659  10.654  67.805  1.00  0.00    -0.501 OA 
HETATM    9  N   UNL     1     -11.303  11.133  68.880  1.00  0.00    -0.250 N  
HETATM   10  O   UNL     1     -11.256  10.614  69.991  1.00  0.00    -0.277 OA 
ENDBRANCH   6   7
BRANCH   6  11
HETATM   11  C   UNL     1     -11.912  14.126  67.377  1.00  0.00    -0.404 C  
BRANCH  11  12
HETATM   12  O   UNL     1     -11.410  15.445  67.617  1.00  0.00    -0.331 OA 
HETATM   13  O   UNL     1     -12.493  15.340  69.592  1.00  0.00    -0.244 OA 
HETATM   14  O   UNL     1     -10.762  16.717  69.295  1.00  0.00    -0.319 OA 
HETATM   15  N   UNL     1     -11.575  15.861  68.962  1.00  0.00    -0.390 N  
ENDBRANCH  11  12
BRANCH  11  16
HETATM   16  C   UNL     1     -12.554  14.023  65.978  1.00  0.00    -0.414 C  
BRANCH  16  17
HETATM   17  O   UNL     1     -12.239  12.780  65.353  1.00  0.00    -0.444 OA 
HETATM   18  N   UNL     1     -12.157  12.908  63.933  1.00  0.00    -0.451 N  
HETATM   19  O   UNL     1     -11.793  11.870  63.386  1.00  0.00    -0.463 OA 
HETATM   20  O   UNL     1     -12.467  13.994  63.451  1.00  0.00    -0.826 OA 
ENDBRANCH  16  17
ENDBRANCH  11  16
ENDBRANCH   6  11
ENDBRANCH   5   6
ENDBRANCH   4   5
TORSDOF 7
ENDMDL
MODEL      125
REMARK 921   NORMALIZED FREE ENERGY PREDICTED BY IDOCK:   -4.43 KCAL/MOL
REMARK 922        TOTAL FREE ENERGY PREDICTED BY IDOCK:   -7.18 KCAL/MOL
REMARK 923 INTER-LIGAND FREE ENERGY PREDICTED BY IDOCK:   -6.51 KCAL/MOL
REMARK 924 INTRA-LIGAND FREE ENERGY PREDICTED BY IDOCK:   -0.67 KCAL/MOL
REMARK 927      BINDING AFFINITY PREDICTED BY RF-SCORE:    0.00 PKD
ROOT
HETATM    1  O   UNL     1      -8.505  17.280  67.220  1.00  0.00    -0.193 OA 
HETATM    2  N   UNL     1      -9.704  17.264  67.484  1.00  0.00    -0.259 N  
HETATM    3  O   UNL     1     -10.625  17.951  67.041  1.00  0.00    -0.344 OA 
HETATM    4  O   UNL     1     -10.040  16.283  68.454  1.00  0.00    -0.225 OA 
ENDROOT
BRANCH   4   5
HETATM    5  C   UNL     1     -11.431  16.288  68.778  1.00  0.00    -0.289 C  
BRANCH   5   6
HETATM    6  C   UNL     1     -11.948  14.827  68.812  1.00  0.00    -0.257 C  
BRANCH   6   7
HETATM    7  O   UNL     1     -11.162  13.914  68.028  1.00  0.00    -0.252 OA 
HETATM    8  O   UNL     1     -12.727  14.113  66.404  1.00  0.00    -0.356 OA 
HETATM    9  N   UNL     1     -11.655  13.611  66.735  1.00  0.00    -0.346 N  
HETATM   10  O   UNL     1     -10.893  12.895  66.091  1.00  0.00    -0.274 OA 
ENDBRANCH   6   7
BRANCH   6  11
HETATM   11  C   UNL     1     -12.229  14.289  70.242  1.00  0.00    -0.342 C  
BRANCH  11  12
HETATM   12  O   UNL     1     -11.850  12.909  70.290  1.00  0.00    -0.305 OA 
HETATM   13  O   UNL     1     -13.456  12.673  71.855  1.00  0.00    -0.444 OA 
HETATM   14  O   UNL     1     -12.750  10.931  70.651  1.00  0.00    -0.333 OA 
HETATM   15  N   UNL     1     -12.778  12.107  70.999  1.00  0.00    -0.294 N  
ENDBRANCH  11  12
BRANCH  11  16
HETATM   16  C   UNL     1     -11.515  15.098  71.346  1.00  0.00    -0.354 C  
BRANCH  16  17
HETATM   17  O   UNL     1     -12.440  15.885  72.093  1.00  0.00    -0.415 OA 
HETATM   18  N   UNL     1     -12.394  15.574  73.486  1.00  0.00    -0.487 N  
HETATM   19  O   UNL     1     -13.116  16.308  74.158  1.00  0.00    -0.661 OA 
HETATM   20  O   UNL     1     -11.681  14.633  73.826  1.00  0.00    -0.077 OA 
ENDBRANCH  16  17
ENDBRANCH  11  16
ENDBRANCH   6  11
ENDBRANCH   5   6
ENDBRANCH   4   5
TORSDOF 7
ENDMDL
MODEL      126
REMARK 921   NORMALIZED FREE ENERGY PREDICTED BY IDOCK:   -4.41 KCAL/MOL
REMARK 922        TOTAL FREE ENERGY PREDICTED BY IDOCK:   -7.16 KCAL/MOL
REMARK 923 INTER-LIGAND FREE ENERGY PREDICTED BY IDOCK:   -5.99 KCAL/MOL
REMARK 924 INTRA-LIGAND FREE ENERGY PREDICTED BY IDOCK:   -1.17 KCAL/MOL
REMARK 927      BINDING AFFINITY PREDICTED BY RF-SCORE:    0.00 PKD
ROOT
HETATM    1  O   UNL     1      -7.529  18.758  65.524  1.00  0.00    -0.493 OA 
HETATM    2  N   UNL     1      -8.358  18.593  66.415  1.00  0.00    -0.289 N  
HETATM    3  O   UNL     1      -8.373  19.010  67.574  1.00  0.00    -0.273 OA 
HETATM    4  O   UNL     1      -9.459  17.797  66.001  1.00  0.00    -0.502 OA 
ENDROOT
BRANCH   4   5
HETATM    5  C   UNL     1     -10.406  17.586  67.049  1.00  0.00    -0.324 C  
BRANCH   5   6
HETATM    6  C   UNL     1     -10.574  16.062  67.280  1.00  0.00    -0.313 C  
BRANCH   6   7
HETATM    7  O   UNL     1     -10.024  15.251  66.229  1.00  0.00    -0.253 OA 
HETATM    8  O   UNL     1     -12.090  14.363  65.965  1.00  0.00    -0.396 OA 
HETATM    9  N   UNL     1     -10.927  14.385  65.565  1.00  0.00    -0.314 N  
HETATM   10  O   UNL     1     -10.411  13.786  64.627  1.00  0.00    -0.426 OA 
ENDBRANCH   6   7
BRANCH   6  11
HETATM   11  C   UNL     1     -10.132  15.585  68.691  1.00  0.00    -0.210 C  
BRANCH  11  12
HETATM   12  O   UNL     1     -11.118  14.676  69.191  1.00  0.00    -0.246 OA 
HETATM   13  O   UNL     1     -11.166  15.972  71.036  1.00  0.00    -0.361 OA 
HETATM   14  O   UNL     1     -12.899  14.676  70.489  1.00  0.00    -0.353 OA 
HETATM   15  N   UNL     1     -11.782  15.163  70.344  1.00  0.00    -0.270 N  
ENDBRANCH  11  12
BRANCH  11  16
HETATM   16  C   UNL     1      -8.729  14.942  68.701  1.00  0.00    -0.177 C  
BRANCH  16  17
HETATM   17  O   UNL     1      -7.721  15.890  68.357  1.00  0.00    -0.133 OA 
HETATM   18  N   UNL     1      -6.758  15.336  67.459  1.00  0.00    -0.175 N  
HETATM   19  O   UNL     1      -5.937  16.167  67.077  1.00  0.00    -0.322 OA 
HETATM   20  O   UNL     1      -6.855  14.139  67.204  1.00  0.00    -0.165 OA 
ENDBRANCH  16  17
ENDBRANCH  11  16
ENDBRANCH   6  11
ENDBRANCH   5   6
ENDBRANCH   4   5
TORSDOF 7
ENDMDL
MODEL      127
REMARK 921   NORMALIZED FREE ENERGY PREDICTED BY IDOCK:   -4.41 KCAL/MOL
REMARK 922        TOTAL FREE ENERGY PREDICTED BY IDOCK:   -7.16 KCAL/MOL
REMARK 923 INTER-LIGAND FREE ENERGY PREDICTED BY IDOCK:   -6.03 KCAL/MOL
REMARK 924 INTRA-LIGAND FREE ENERGY PREDICTED BY IDOCK:   -1.13 KCAL/MOL
REMARK 927      BINDING AFFINITY PREDICTED BY RF-SCORE:    0.00 PKD
ROOT
HETATM    1  O   UNL     1      -9.993   9.675  70.139  1.00  0.00    -0.230 OA 
HETATM    2  N   UNL     1     -10.248  10.228  69.072  1.00  0.00    -0.197 N  
HETATM    3  O   UNL     1     -11.163  10.029  68.272  1.00  0.00    -0.229 OA 
HETATM    4  O   UNL     1      -9.321  11.255  68.750  1.00  0.00    -0.182 OA 
ENDROOT
BRANCH   4   5
HETATM    5  C   UNL     1      -9.606  11.875  67.496  1.00  0.00    -0.175 C  
BRANCH   5   6
HETATM    6  C   UNL     1      -9.777  13.400  67.713  1.00  0.00    -0.216 C  
BRANCH   6   7
HETATM    7  O   UNL     1      -8.872  14.203  66.936  1.00  0.00    -0.227 OA 
HETATM    8  O   UNL     1      -7.935  14.862  68.889  1.00  0.00    -0.146 OA 
HETATM    9  N   UNL     1      -7.901  14.935  67.663  1.00  0.00    -0.156 N  
HETATM   10  O   UNL     1      -7.110  15.529  66.936  1.00  0.00    -0.203 OA 
ENDBRANCH   6   7
BRANCH   6  11
HETATM   11  C   UNL     1     -11.247  13.892  67.604  1.00  0.00    -0.295 C  
BRANCH  11  12
HETATM   12  O   UNL     1     -11.236  15.260  67.182  1.00  0.00    -0.334 OA 
HETATM   13  O   UNL     1     -11.884  15.760  69.284  1.00  0.00    -0.365 OA 
HETATM   14  O   UNL     1     -10.850  17.268  68.003  1.00  0.00    -0.381 OA 
HETATM   15  N   UNL     1     -11.332  16.171  68.264  1.00  0.00    -0.349 N  
ENDBRANCH  11  12
BRANCH  11  16
HETATM   16  C   UNL     1     -12.108  13.028  66.658  1.00  0.00    -0.319 C  
BRANCH  16  17
HETATM   17  O   UNL     1     -12.552  13.778  65.530  1.00  0.00    -0.482 OA 
HETATM   18  N   UNL     1     -12.176  13.157  64.301  1.00  0.00    -0.397 N  
HETATM   19  O   UNL     1     -12.631  13.739  63.319  1.00  0.00    -0.830 OA 
HETATM   20  O   UNL     1     -11.454  12.166  64.372  1.00  0.00    -0.324 OA 
ENDBRANCH  16  17
ENDBRANCH  11  16
ENDBRANCH   6  11
ENDBRANCH   5   6
ENDBRANCH   4   5
TORSDOF 7
ENDMDL
MODEL      128
REMARK 921   NORMALIZED FREE ENERGY PREDICTED BY IDOCK:   -4.41 KCAL/MOL
REMARK 922        TOTAL FREE ENERGY PREDICTED BY IDOCK:   -7.16 KCAL/MOL
REMARK 923 INTER-LIGAND FREE ENERGY PREDICTED BY IDOCK:   -6.17 KCAL/MOL
REMARK 924 INTRA-LIGAND FREE ENERGY PREDICTED BY IDOCK:   -0.99 KCAL/MOL
REMARK 927      BINDING AFFINITY PREDICTED BY RF-SCORE:    0.00 PKD
ROOT
HETATM    1  O   UNL     1     -11.938  15.378  64.059  1.00  0.00    -0.512 OA 
HETATM    2  N   UNL     1     -12.363  14.431  64.715  1.00  0.00    -0.440 N  
HETATM    3  O   UNL     1     -13.508  14.174  65.091  1.00  0.00    -0.502 OA 
HETATM    4  O   UNL     1     -11.344  13.509  65.072  1.00  0.00    -0.307 OA 
ENDROOT
BRANCH   4   5
HETATM    5  C   UNL     1     -11.839  12.425  65.858  1.00  0.00    -0.405 C  
BRANCH   5   6
HETATM    6  C   UNL     1     -11.407  12.629  67.333  1.00  0.00    -0.313 C  
BRANCH   6   7
HETATM    7  O   UNL     1     -12.133  13.667  68.012  1.00  0.00    -0.354 OA 
HETATM    8  O   UNL     1     -10.245  14.914  67.920  1.00  0.00    -0.226 OA 
HETATM    9  N   UNL     1     -11.425  14.869  68.262  1.00  0.00    -0.311 N  
HETATM   10  O   UNL     1     -12.127  15.739  68.766  1.00  0.00    -0.314 OA 
ENDBRANCH   6   7
BRANCH   6  11
HETATM   11  C   UNL     1     -11.339  11.315  68.159  1.00  0.00    -0.303 C  
BRANCH  11  12
HETATM   12  O   UNL     1     -10.020  10.773  68.039  1.00  0.00    -0.159 OA 
HETATM   13  O   UNL     1     -11.027   8.795  67.636  1.00  0.00    -0.109 OA 
HETATM   14  O   UNL     1      -8.945   9.195  66.938  1.00  0.00    -0.121 OA 
HETATM   15  N   UNL     1     -10.009   9.468  67.486  1.00  0.00    -0.175 N  
ENDBRANCH  11  12
BRANCH  11  16
HETATM   16  C   UNL     1     -11.726  11.509  69.641  1.00  0.00    -0.351 C  
BRANCH  16  17
HETATM   17  O   UNL     1     -12.806  10.654  70.011  1.00  0.00    -0.235 OA 
HETATM   18  N   UNL     1     -12.436   9.757  71.058  1.00  0.00    -0.323 N  
HETATM   19  O   UNL     1     -13.380   9.079  71.455  1.00  0.00    -0.346 OA 
HETATM   20  O   UNL     1     -11.258   9.760  71.406  1.00  0.00    -0.366 OA 
ENDBRANCH  16  17
ENDBRANCH  11  16
ENDBRANCH   6  11
ENDBRANCH   5   6
ENDBRANCH   4   5
TORSDOF 7
ENDMDL
MODEL      129
REMARK 921   NORMALIZED FREE ENERGY PREDICTED BY IDOCK:   -4.41 KCAL/MOL
REMARK 922        TOTAL FREE ENERGY PREDICTED BY IDOCK:   -7.16 KCAL/MOL
REMARK 923 INTER-LIGAND FREE ENERGY PREDICTED BY IDOCK:   -6.23 KCAL/MOL
REMARK 924 INTRA-LIGAND FREE ENERGY PREDICTED BY IDOCK:   -0.92 KCAL/MOL
REMARK 927      BINDING AFFINITY PREDICTED BY RF-SCORE:    0.00 PKD
ROOT
HETATM    1  O   UNL     1     -10.889  15.661  70.718  1.00  0.00    -0.325 OA 
HETATM    2  N   UNL     1     -11.362  15.327  69.635  1.00  0.00    -0.268 N  
HETATM    3  O   UNL     1     -11.885  16.009  68.752  1.00  0.00    -0.375 OA 
HETATM    4  O   UNL     1     -11.269  13.930  69.401  1.00  0.00    -0.253 OA 
ENDROOT
BRANCH   4   5
HETATM    5  C   UNL     1     -11.846  13.544  68.154  1.00  0.00    -0.365 C  
BRANCH   5   6
HETATM    6  C   UNL     1     -10.731  12.988  67.230  1.00  0.00    -0.250 C  
BRANCH   6   7
HETATM    7  O   UNL     1     -10.607  11.556  67.266  1.00  0.00    -0.210 OA 
HETATM    8  O   UNL     1      -8.652  11.851  68.369  1.00  0.00    -0.164 OA 
HETATM    9  N   UNL     1      -9.463  11.041  67.923  1.00  0.00    -0.162 N  
HETATM   10  O   UNL     1      -9.464   9.816  67.991  1.00  0.00    -0.131 OA 
ENDBRANCH   6   7
BRANCH   6  11
HETATM   11  C   UNL     1     -10.778  13.543  65.780  1.00  0.00    -0.275 C  
BRANCH  11  12
HETATM   12  O   UNL     1     -12.127  13.458  65.307  1.00  0.00    -0.367 OA 
HETATM   13  O   UNL     1     -11.264  12.478  63.467  1.00  0.00    -0.446 OA 
HETATM   14  O   UNL     1     -13.391  12.151  64.062  1.00  0.00    -0.706 OA 
HETATM   15  N   UNL     1     -12.261  12.615  64.175  1.00  0.00    -0.426 N  
ENDBRANCH  11  12
BRANCH  11  16
HETATM   16  C   UNL     1     -10.240  14.985  65.663  1.00  0.00    -0.360 C  
BRANCH  16  17
HETATM   17  O   UNL     1      -9.439  15.332  66.791  1.00  0.00    -0.222 OA 
HETATM   18  N   UNL     1      -8.950  16.670  66.701  1.00  0.00    -0.236 N  
HETATM   19  O   UNL     1      -8.337  17.018  67.708  1.00  0.00    -0.191 OA 
HETATM   20  O   UNL     1      -9.176  17.279  65.658  1.00  0.00    -0.501 OA 
ENDBRANCH  16  17
ENDBRANCH  11  16
ENDBRANCH   6  11
ENDBRANCH   5   6
ENDBRANCH   4   5
TORSDOF 7
ENDMDL
MODEL      130
REMARK 921   NORMALIZED FREE ENERGY PREDICTED BY IDOCK:   -4.41 KCAL/MOL
REMARK 922        TOTAL FREE ENERGY PREDICTED BY IDOCK:   -7.15 KCAL/MOL
REMARK 923 INTER-LIGAND FREE ENERGY PREDICTED BY IDOCK:   -6.35 KCAL/MOL
REMARK 924 INTRA-LIGAND FREE ENERGY PREDICTED BY IDOCK:   -0.80 KCAL/MOL
REMARK 927      BINDING AFFINITY PREDICTED BY RF-SCORE:    0.00 PKD
ROOT
HETATM    1  O   UNL     1      -8.533   8.886  68.740  1.00  0.00    -0.128 OA 
HETATM    2  N   UNL     1      -9.533   9.538  69.029  1.00  0.00    -0.154 N  
HETATM    3  O   UNL     1     -10.030   9.786  70.129  1.00  0.00    -0.241 OA 
HETATM    4  O   UNL     1     -10.185  10.077  67.890  1.00  0.00    -0.168 OA 
ENDROOT
BRANCH   4   5
HETATM    5  C   UNL     1     -11.362  10.811  68.229  1.00  0.00    -0.309 C  
BRANCH   5   6
HETATM    6  C   UNL     1     -11.298  12.209  67.562  1.00  0.00    -0.326 C  
BRANCH   6   7
HETATM    7  O   UNL     1     -12.411  12.492  66.698  1.00  0.00    -0.483 OA 
HETATM    8  O   UNL     1     -10.986  12.268  64.952  1.00  0.00    -0.285 OA 
HETATM    9  N   UNL     1     -12.145  12.477  65.306  1.00  0.00    -0.447 N  
HETATM   10  O   UNL     1     -13.153  12.642  64.627  1.00  0.00    -0.821 OA 
ENDBRANCH   6   7
BRANCH   6  11
HETATM   11  C   UNL     1     -11.008  13.369  68.555  1.00  0.00    -0.268 C  
BRANCH  11  12
HETATM   12  O   UNL     1     -10.422  14.452  67.825  1.00  0.00    -0.243 OA 
HETATM   13  O   UNL     1      -8.433  13.663  68.539  1.00  0.00    -0.161 OA 
HETATM   14  O   UNL     1      -8.585  14.922  66.702  1.00  0.00    -0.244 OA 
HETATM   15  N   UNL     1      -9.018  14.323  67.681  1.00  0.00    -0.185 N  
ENDBRANCH  11  12
BRANCH  11  16
HETATM   16  C   UNL     1     -12.261  13.834  69.326  1.00  0.00    -0.264 C  
BRANCH  16  17
HETATM   17  O   UNL     1     -12.322  13.243  70.622  1.00  0.00    -0.356 OA 
HETATM   18  N   UNL     1     -13.315  13.862  71.440  1.00  0.00    -0.320 N  
HETATM   19  O   UNL     1     -13.447  13.303  72.527  1.00  0.00    -0.573 OA 
HETATM   20  O   UNL     1     -13.880  14.851  70.982  1.00  0.00    -0.376 OA 
ENDBRANCH  16  17
ENDBRANCH  11  16
ENDBRANCH   6  11
ENDBRANCH   5   6
ENDBRANCH   4   5
TORSDOF 7
ENDMDL
MODEL      131
REMARK 921   NORMALIZED FREE ENERGY PREDICTED BY IDOCK:   -4.38 KCAL/MOL
REMARK 922        TOTAL FREE ENERGY PREDICTED BY IDOCK:   -7.11 KCAL/MOL
REMARK 923 INTER-LIGAND FREE ENERGY PREDICTED BY IDOCK:   -6.15 KCAL/MOL
REMARK 924 INTRA-LIGAND FREE ENERGY PREDICTED BY IDOCK:   -0.96 KCAL/MOL
REMARK 927      BINDING AFFINITY PREDICTED BY RF-SCORE:    0.00 PKD
ROOT
HETATM    1  O   UNL     1     -12.655  14.589  64.079  1.00  0.00    -0.797 OA 
HETATM    2  N   UNL     1     -12.694  13.553  64.737  1.00  0.00    -0.285 N  
HETATM    3  O   UNL     1     -13.212  12.465  64.479  1.00  0.00    -0.834 OA 
HETATM    4  O   UNL     1     -12.021  13.667  65.982  1.00  0.00    -0.368 OA 
ENDROOT
BRANCH   4   5
HETATM    5  C   UNL     1     -12.092  12.469  66.755  1.00  0.00    -0.110 C  
BRANCH   5   6
HETATM    6  C   UNL     1     -11.529  12.745  68.172  1.00  0.00    -0.314 C  
BRANCH   6   7
HETATM    7  O   UNL     1     -11.158  11.558  68.892  1.00  0.00    -0.201 OA 
HETATM    8  O   UNL     1     -12.462  12.296  70.589  1.00  0.00    -0.315 OA 
HETATM    9  N   UNL     1     -11.733  11.396  70.177  1.00  0.00    -0.331 N  
HETATM   10  O   UNL     1     -11.441  10.324  70.698  1.00  0.00    -0.306 OA 
ENDBRANCH   6   7
BRANCH   6  11
HETATM   11  C   UNL     1     -10.419  13.832  68.210  1.00  0.00    -0.248 C  
BRANCH  11  12
HETATM   12  O   UNL     1     -10.582  14.604  69.405  1.00  0.00    -0.241 OA 
HETATM   13  O   UNL     1     -11.514  16.178  68.086  1.00  0.00    -0.326 OA 
HETATM   14  O   UNL     1     -11.960  16.088  70.272  1.00  0.00    -0.328 OA 
HETATM   15  N   UNL     1     -11.433  15.723  69.226  1.00  0.00    -0.341 N  
ENDBRANCH  11  12
BRANCH  11  16
HETATM   16  C   UNL     1      -8.994  13.247  68.117  1.00  0.00    -0.195 C  
BRANCH  16  17
HETATM   17  O   UNL     1      -8.772  12.619  66.856  1.00  0.00    -0.204 OA 
HETATM   18  N   UNL     1      -8.278  11.288  67.008  1.00  0.00    -0.145 N  
HETATM   19  O   UNL     1      -8.172  10.699  65.935  1.00  0.00    -0.152 OA 
HETATM   20  O   UNL     1      -8.013  10.916  68.148  1.00  0.00    -0.108 OA 
ENDBRANCH  16  17
ENDBRANCH  11  16
ENDBRANCH   6  11
ENDBRANCH   5   6
ENDBRANCH   4   5
TORSDOF 7
ENDMDL
MODEL      132
REMARK 921   NORMALIZED FREE ENERGY PREDICTED BY IDOCK:   -4.37 KCAL/MOL
REMARK 922        TOTAL FREE ENERGY PREDICTED BY IDOCK:   -7.10 KCAL/MOL
REMARK 923 INTER-LIGAND FREE ENERGY PREDICTED BY IDOCK:   -6.44 KCAL/MOL
REMARK 924 INTRA-LIGAND FREE ENERGY PREDICTED BY IDOCK:   -0.66 KCAL/MOL
REMARK 927      BINDING AFFINITY PREDICTED BY RF-SCORE:    0.00 PKD
ROOT
HETATM    1  O   UNL     1      -9.309   9.856  64.047  1.00  0.00    -0.269 OA 
HETATM    2  N   UNL     1      -8.841  10.452  65.013  1.00  0.00    -0.182 N  
HETATM    3  O   UNL     1      -7.821  10.230  65.667  1.00  0.00    -0.139 OA 
HETATM    4  O   UNL     1      -9.627  11.568  65.403  1.00  0.00    -0.226 OA 
ENDROOT
BRANCH   4   5
HETATM    5  C   UNL     1      -9.094  12.241  66.544  1.00  0.00    -0.188 C  
BRANCH   5   6
HETATM    6  C   UNL     1     -10.246  12.554  67.533  1.00  0.00    -0.217 C  
BRANCH   6   7
HETATM    7  O   UNL     1     -10.082  11.950  68.827  1.00  0.00    -0.198 OA 
HETATM    8  O   UNL     1     -12.197  11.170  68.624  1.00  0.00    -0.582 OA 
HETATM    9  N   UNL     1     -11.182  11.205  69.317  1.00  0.00    -0.244 N  
HETATM   10  O   UNL     1     -10.943  10.649  70.385  1.00  0.00    -0.256 OA 
ENDBRANCH   6   7
BRANCH   6  11
HETATM   11  C   UNL     1     -10.608  14.062  67.624  1.00  0.00    -0.249 C  
BRANCH  11  12
HETATM   12  O   UNL     1     -10.038  14.592  68.826  1.00  0.00    -0.233 OA 
HETATM   13  O   UNL     1     -11.892  15.869  68.967  1.00  0.00    -0.389 OA 
HETATM   14  O   UNL     1     -10.677  15.390  70.778  1.00  0.00    -0.306 OA 
HETATM   15  N   UNL     1     -10.963  15.351  69.585  1.00  0.00    -0.263 N  
ENDBRANCH  11  12
BRANCH  11  16
HETATM   16  C   UNL     1     -10.151  14.871  66.391  1.00  0.00    -0.284 C  
BRANCH  16  17
HETATM   17  O   UNL     1     -11.133  14.841  65.358  1.00  0.00    -0.325 OA 
HETATM   18  N   UNL     1     -11.304  16.123  64.753  1.00  0.00    -0.326 N  
HETATM   19  O   UNL     1     -12.076  16.095  63.798  1.00  0.00    -0.946 OA 
HETATM   20  O   UNL     1     -10.695  17.064  65.255  1.00  0.00    -0.616 OA 
ENDBRANCH  16  17
ENDBRANCH  11  16
ENDBRANCH   6  11
ENDBRANCH   5   6
ENDBRANCH   4   5
TORSDOF 7
ENDMDL
MODEL      133
REMARK 921   NORMALIZED FREE ENERGY PREDICTED BY IDOCK:   -4.36 KCAL/MOL
REMARK 922        TOTAL FREE ENERGY PREDICTED BY IDOCK:   -7.09 KCAL/MOL
REMARK 923 INTER-LIGAND FREE ENERGY PREDICTED BY IDOCK:   -7.30 KCAL/MOL
REMARK 924 INTRA-LIGAND FREE ENERGY PREDICTED BY IDOCK:    0.21 KCAL/MOL
REMARK 927      BINDING AFFINITY PREDICTED BY RF-SCORE:    0.00 PKD
ROOT
HETATM    1  O   UNL     1     -11.005  17.511  65.151  1.00  0.00    -0.621 OA 
HETATM    2  N   UNL     1     -11.182  16.415  64.628  1.00  0.00    -0.344 N  
HETATM    3  O   UNL     1     -11.932  16.084  63.708  1.00  0.00    -0.844 OA 
HETATM    4  O   UNL     1     -10.373  15.397  65.199  1.00  0.00    -0.382 OA 
ENDROOT
BRANCH   4   5
HETATM    5  C   UNL     1     -10.603  14.119  64.606  1.00  0.00    -0.368 C  
BRANCH   5   6
HETATM    6  C   UNL     1     -11.679  13.364  65.428  1.00  0.00    -0.331 C  
BRANCH   6   7
HETATM    7  O   UNL     1     -12.769  12.862  64.637  1.00  0.00    -0.654 OA 
HETATM    8  O   UNL     1     -11.228  12.176  63.127  1.00  0.00    -0.348 OA 
HETATM    9  N   UNL     1     -12.420  12.217  63.425  1.00  0.00    -0.571 N  
HETATM   10  O   UNL     1     -13.389  11.739  62.844  1.00  0.00    -0.288 OA 
ENDBRANCH   6   7
BRANCH   6  11
HETATM   11  C   UNL     1     -11.100  12.290  66.390  1.00  0.00    -0.303 C  
BRANCH  11  12
HETATM   12  O   UNL     1      -9.739  12.041  66.023  1.00  0.00    -0.232 OA 
HETATM   13  O   UNL     1     -10.359   9.889  65.752  1.00  0.00    -0.221 OA 
HETATM   14  O   UNL     1      -8.569  10.716  64.706  1.00  0.00    -0.177 OA 
HETATM   15  N   UNL     1      -9.551  10.762  65.441  1.00  0.00    -0.208 N  
ENDBRANCH  11  12
BRANCH  11  16
HETATM   16  C   UNL     1     -11.209  12.685  67.878  1.00  0.00    -0.266 C  
BRANCH  16  17
HETATM   17  O   UNL     1     -10.391  11.852  68.697  1.00  0.00    -0.214 OA 
HETATM   18  N   UNL     1     -11.150  10.819  69.325  1.00  0.00    -0.236 N  
HETATM   19  O   UNL     1     -10.447  10.034  69.958  1.00  0.00    -0.256 OA 
HETATM   20  O   UNL     1     -12.369  10.851  69.177  1.00  0.00    -0.435 OA 
ENDBRANCH  16  17
ENDBRANCH  11  16
ENDBRANCH   6  11
ENDBRANCH   5   6
ENDBRANCH   4   5
TORSDOF 7
ENDMDL
MODEL      134
REMARK 921   NORMALIZED FREE ENERGY PREDICTED BY IDOCK:   -4.36 KCAL/MOL
REMARK 922        TOTAL FREE ENERGY PREDICTED BY IDOCK:   -7.09 KCAL/MOL
REMARK 923 INTER-LIGAND FREE ENERGY PREDICTED BY IDOCK:   -6.27 KCAL/MOL
REMARK 924 INTRA-LIGAND FREE ENERGY PREDICTED BY IDOCK:   -0.82 KCAL/MOL
REMARK 927      BINDING AFFINITY PREDICTED BY RF-SCORE:    0.00 PKD
ROOT
HETATM    1  O   UNL     1      -7.692   9.699  67.911  1.00  0.00    -0.087 OA 
HETATM    2  N   UNL     1      -8.915   9.646  67.810  1.00  0.00    -0.119 N  
HETATM    3  O   UNL     1      -9.675   8.678  67.855  1.00  0.00    -0.152 OA 
HETATM    4  O   UNL     1      -9.506  10.923  67.618  1.00  0.00    -0.157 OA 
ENDROOT
BRANCH   4   5
HETATM    5  C   UNL     1     -10.925  10.853  67.474  1.00  0.00    -0.293 C  
BRANCH   5   6
HETATM    6  C   UNL     1     -11.548  12.195  67.936  1.00  0.00    -0.347 C  
BRANCH   6   7
HETATM    7  O   UNL     1     -12.506  12.739  67.012  1.00  0.00    -0.278 OA 
HETATM    8  O   UNL     1     -11.053  14.438  66.656  1.00  0.00    -0.311 OA 
HETATM    9  N   UNL     1     -12.135  13.938  66.356  1.00  0.00    -0.439 N  
HETATM   10  O   UNL     1     -12.960  14.299  65.522  1.00  0.00    -0.607 OA 
ENDBRANCH   6   7
BRANCH   6  11
HETATM   11  C   UNL     1     -12.077  12.175  69.396  1.00  0.00    -0.190 C  
BRANCH  11  12
HETATM   12  O   UNL     1     -11.257  11.288  70.163  1.00  0.00    -0.224 OA 
HETATM   13  O   UNL     1     -13.180  10.298  70.803  1.00  0.00    -0.385 OA 
HETATM   14  O   UNL     1     -11.239   9.197  70.861  1.00  0.00    -0.257 OA 
HETATM   15  N   UNL     1     -11.967  10.161  70.648  1.00  0.00    -0.309 N  
ENDBRANCH  11  12
BRANCH  11  16
HETATM   16  C   UNL     1     -12.131  13.577  70.041  1.00  0.00    -0.341 C  
BRANCH  16  17
HETATM   17  O   UNL     1     -12.609  13.512  71.383  1.00  0.00    -0.348 OA 
HETATM   18  N   UNL     1     -13.348  14.681  71.738  1.00  0.00    -0.336 N  
HETATM   19  O   UNL     1     -13.849  14.601  72.858  1.00  0.00    -0.534 OA 
HETATM   20  O   UNL     1     -13.376  15.595  70.919  1.00  0.00    -0.556 OA 
ENDBRANCH  16  17
ENDBRANCH  11  16
ENDBRANCH   6  11
ENDBRANCH   5   6
ENDBRANCH   4   5
TORSDOF 7
ENDMDL
MODEL      135
REMARK 921   NORMALIZED FREE ENERGY PREDICTED BY IDOCK:   -4.34 KCAL/MOL
REMARK 922        TOTAL FREE ENERGY PREDICTED BY IDOCK:   -7.06 KCAL/MOL
REMARK 923 INTER-LIGAND FREE ENERGY PREDICTED BY IDOCK:   -6.25 KCAL/MOL
REMARK 924 INTRA-LIGAND FREE ENERGY PREDICTED BY IDOCK:   -0.81 KCAL/MOL
REMARK 927      BINDING AFFINITY PREDICTED BY RF-SCORE:    0.00 PKD
ROOT
HETATM    1  O   UNL     1     -11.730  15.225  64.163  1.00  0.00    -0.316 OA 
HETATM    2  N   UNL     1     -12.216  14.318  64.833  1.00  0.00    -0.425 N  
HETATM    3  O   UNL     1     -13.371  14.152  65.228  1.00  0.00    -0.715 OA 
HETATM    4  O   UNL     1     -11.265  13.323  65.183  1.00  0.00    -0.295 OA 
ENDROOT
BRANCH   4   5
HETATM    5  C   UNL     1     -11.829  12.285  65.985  1.00  0.00    -0.341 C  
BRANCH   5   6
HETATM    6  C   UNL     1     -11.332  12.447  67.445  1.00  0.00    -0.321 C  
BRANCH   6   7
HETATM    7  O   UNL     1     -12.116  13.364  68.227  1.00  0.00    -0.343 OA 
HETATM    8  O   UNL     1     -10.199  14.496  68.642  1.00  0.00    -0.232 OA 
HETATM    9  N   UNL     1     -11.416  14.448  68.812  1.00  0.00    -0.272 N  
HETATM   10  O   UNL     1     -12.157  15.236  69.392  1.00  0.00    -0.313 OA 
ENDBRANCH   6   7
BRANCH   6  11
HETATM   11  C   UNL     1     -11.086  11.101  68.181  1.00  0.00    -0.264 C  
BRANCH  11  12
HETATM   12  O   UNL     1     -12.291  10.728  68.857  1.00  0.00    -0.433 OA 
HETATM   13  O   UNL     1     -10.978  10.262  70.631  1.00  0.00    -0.308 OA 
HETATM   14  O   UNL     1     -13.146  10.726  70.888  1.00  0.00    -0.331 OA 
HETATM   15  N   UNL     1     -12.110  10.560  70.253  1.00  0.00    -0.303 N  
ENDBRANCH  11  12
BRANCH  11  16
HETATM   16  C   UNL     1     -10.607   9.975  67.241  1.00  0.00    -0.257 C  
BRANCH  16  17
HETATM   17  O   UNL     1      -9.667   9.121  67.891  1.00  0.00    -0.147 OA 
HETATM   18  N   UNL     1      -9.872   7.750  67.547  1.00  0.00    -0.160 N  
HETATM   19  O   UNL     1      -9.013   7.011  68.022  1.00  0.00    -0.127 OA 
HETATM   20  O   UNL     1     -10.855   7.487  66.860  1.00  0.00    -0.345 OA 
ENDBRANCH  16  17
ENDBRANCH  11  16
ENDBRANCH   6  11
ENDBRANCH   5   6
ENDBRANCH   4   5
TORSDOF 7
ENDMDL
MODEL      136
REMARK 921   NORMALIZED FREE ENERGY PREDICTED BY IDOCK:   -4.32 KCAL/MOL
REMARK 922        TOTAL FREE ENERGY PREDICTED BY IDOCK:   -7.03 KCAL/MOL
REMARK 923 INTER-LIGAND FREE ENERGY PREDICTED BY IDOCK:   -6.16 KCAL/MOL
REMARK 924 INTRA-LIGAND FREE ENERGY PREDICTED BY IDOCK:   -0.87 KCAL/MOL
REMARK 927      BINDING AFFINITY PREDICTED BY RF-SCORE:    0.00 PKD
ROOT
HETATM    1  O   UNL     1      -9.113   9.249  66.742  1.00  0.00    -0.134 OA 
HETATM    2  N   UNL     1      -9.720  10.316  66.718  1.00  0.00    -0.179 N  
HETATM    3  O   UNL     1      -9.426  11.386  66.183  1.00  0.00    -0.203 OA 
HETATM    4  O   UNL     1     -10.949  10.265  67.427  1.00  0.00    -0.293 OA 
ENDROOT
BRANCH   4   5
HETATM    5  C   UNL     1     -11.637  11.516  67.420  1.00  0.00    -0.228 C  
BRANCH   5   6
HETATM    6  C   UNL     1     -11.690  12.073  68.866  1.00  0.00    -0.326 C  
BRANCH   6   7
HETATM    7  O   UNL     1     -10.998  11.260  69.828  1.00  0.00    -0.210 OA 
HETATM    8  O   UNL     1     -13.018  10.454  70.455  1.00  0.00    -0.344 OA 
HETATM    9  N   UNL     1     -11.801  10.403  70.620  1.00  0.00    -0.322 N  
HETATM   10  O   UNL     1     -11.140   9.678  71.358  1.00  0.00    -0.365 OA 
ENDBRANCH   6   7
BRANCH   6  11
HETATM   11  C   UNL     1     -11.310  13.576  68.978  1.00  0.00    -0.288 C  
BRANCH  11  12
HETATM   12  O   UNL     1     -11.259  14.129  67.658  1.00  0.00    -0.276 OA 
HETATM   13  O   UNL     1      -9.262  14.991  68.256  1.00  0.00    -0.175 OA 
HETATM   14  O   UNL     1      -9.778  14.649  66.111  1.00  0.00    -0.290 OA 
HETATM   15  N   UNL     1      -9.977  14.632  67.321  1.00  0.00    -0.234 N  
ENDBRANCH  11  12
BRANCH  11  16
HETATM   16  C   UNL     1     -12.272  14.379  69.878  1.00  0.00    -0.340 C  
BRANCH  16  17
HETATM   17  O   UNL     1     -12.641  13.635  71.037  1.00  0.00    -0.345 OA 
HETATM   18  N   UNL     1     -13.795  14.184  71.673  1.00  0.00    -0.374 N  
HETATM   19  O   UNL     1     -14.185  13.500  72.617  1.00  0.00    -0.751 OA 
HETATM   20  O   UNL     1     -14.230  15.242  71.227  1.00  0.00    -0.482 OA 
ENDBRANCH  16  17
ENDBRANCH  11  16
ENDBRANCH   6  11
ENDBRANCH   5   6
ENDBRANCH   4   5
TORSDOF 7
ENDMDL
MODEL      137
REMARK 921   NORMALIZED FREE ENERGY PREDICTED BY IDOCK:   -4.31 KCAL/MOL
REMARK 922        TOTAL FREE ENERGY PREDICTED BY IDOCK:   -7.01 KCAL/MOL
REMARK 923 INTER-LIGAND FREE ENERGY PREDICTED BY IDOCK:   -6.37 KCAL/MOL
REMARK 924 INTRA-LIGAND FREE ENERGY PREDICTED BY IDOCK:   -0.64 KCAL/MOL
REMARK 927      BINDING AFFINITY PREDICTED BY RF-SCORE:    0.00 PKD
ROOT
HETATM    1  O   UNL     1     -11.597  16.175  70.157  1.00  0.00    -0.324 OA 
HETATM    2  N   UNL     1     -11.976  15.153  69.590  1.00  0.00    -0.323 N  
HETATM    3  O   UNL     1     -12.587  14.179  70.032  1.00  0.00    -0.332 OA 
HETATM    4  O   UNL     1     -11.642  15.134  68.210  1.00  0.00    -0.325 OA 
ENDROOT
BRANCH   4   5
HETATM    5  C   UNL     1     -12.060  13.933  67.562  1.00  0.00    -0.331 C  
BRANCH   5   6
HETATM    6  C   UNL     1     -11.489  13.909  66.121  1.00  0.00    -0.345 C  
BRANCH   6   7
HETATM    7  O   UNL     1     -11.259  15.215  65.566  1.00  0.00    -0.345 OA 
HETATM    8  O   UNL     1     -12.461  14.554  63.765  1.00  0.00    -0.809 OA 
HETATM    9  N   UNL     1     -11.845  15.472  64.302  1.00  0.00    -0.299 N  
HETATM   10  O   UNL     1     -11.680  16.629  63.928  1.00  0.00    -1.153 OA 
ENDBRANCH   6   7
BRANCH   6  11
HETATM   11  C   UNL     1     -10.268  12.965  65.941  1.00  0.00    -0.290 C  
BRANCH  11  12
HETATM   12  O   UNL     1      -9.648  12.778  67.218  1.00  0.00    -0.199 OA 
HETATM   13  O   UNL     1      -8.263  14.457  66.627  1.00  0.00     0.003 OA 
HETATM   14  O   UNL     1      -8.617  13.951  68.772  1.00  0.00    -0.116 OA 
HETATM   15  N   UNL     1      -8.764  13.832  67.560  1.00  0.00    -0.182 N  
ENDBRANCH  11  12
BRANCH  11  16
HETATM   16  C   UNL     1     -10.638  11.610  65.301  1.00  0.00    -0.281 C  
BRANCH  16  17
HETATM   17  O   UNL     1      -9.619  10.636  65.523  1.00  0.00    -0.194 OA 
HETATM   18  N   UNL     1      -9.290   9.934  64.325  1.00  0.00    -0.274 N  
HETATM   19  O   UNL     1      -8.348   9.159  64.476  1.00  0.00    -0.150 OA 
HETATM   20  O   UNL     1      -9.975  10.168  63.332  1.00  0.00    -0.099 OA 
ENDBRANCH  16  17
ENDBRANCH  11  16
ENDBRANCH   6  11
ENDBRANCH   5   6
ENDBRANCH   4   5
TORSDOF 7
ENDMDL
MODEL      138
REMARK 921   NORMALIZED FREE ENERGY PREDICTED BY IDOCK:   -4.30 KCAL/MOL
REMARK 922        TOTAL FREE ENERGY PREDICTED BY IDOCK:   -7.01 KCAL/MOL
REMARK 923 INTER-LIGAND FREE ENERGY PREDICTED BY IDOCK:   -6.40 KCAL/MOL
REMARK 924 INTRA-LIGAND FREE ENERGY PREDICTED BY IDOCK:   -0.61 KCAL/MOL
REMARK 927      BINDING AFFINITY PREDICTED BY RF-SCORE:    0.00 PKD
ROOT
HETATM    1  O   UNL     1     -10.328  10.936  66.213  1.00  0.00    -0.239 OA 
HETATM    2  N   UNL     1     -11.230  11.430  66.885  1.00  0.00    -0.297 N  
HETATM    3  O   UNL     1     -12.094  12.251  66.574  1.00  0.00    -0.616 OA 
HETATM    4  O   UNL     1     -11.245  10.950  68.221  1.00  0.00    -0.241 OA 
ENDROOT
BRANCH   4   5
HETATM    5  C   UNL     1     -12.278  11.548  69.005  1.00  0.00    -0.121 C  
BRANCH   5   6
HETATM    6  C   UNL     1     -12.069  11.167  70.493  1.00  0.00    -0.381 C  
BRANCH   6   7
HETATM    7  O   UNL     1     -13.141  11.585  71.355  1.00  0.00    -0.380 OA 
HETATM    8  O   UNL     1     -12.206  13.647  71.357  1.00  0.00    -0.281 OA 
HETATM    9  N   UNL     1     -13.138  12.947  71.746  1.00  0.00    -0.394 N  
HETATM   10  O   UNL     1     -14.124  13.254  72.410  1.00  0.00    -0.618 OA 
ENDBRANCH   6   7
BRANCH   6  11
HETATM   11  C   UNL     1     -11.675   9.681  70.715  1.00  0.00    -0.314 C  
BRANCH  11  12
HETATM   12  O   UNL     1     -10.440   9.643  71.439  1.00  0.00    -0.272 OA 
HETATM   13  O   UNL     1      -9.618   8.484  69.688  1.00  0.00    -0.167 OA 
HETATM   14  O   UNL     1      -8.270   9.618  71.059  1.00  0.00    -0.270 OA 
HETATM   15  N   UNL     1      -9.350   9.208  70.646  1.00  0.00    -0.237 N  
ENDBRANCH  11  12
BRANCH  11  16
HETATM   16  C   UNL     1     -12.767   8.865  71.439  1.00  0.00    -0.301 C  
BRANCH  16  17
HETATM   17  O   UNL     1     -12.200   7.984  72.407  1.00  0.00    -0.328 OA 
HETATM   18  N   UNL     1     -11.832   6.732  71.830  1.00  0.00    -0.311 N  
HETATM   19  O   UNL     1     -11.255   5.996  72.628  1.00  0.00    -0.263 OA 
HETATM   20  O   UNL     1     -12.142   6.543  70.657  1.00  0.00    -0.366 OA 
ENDBRANCH  16  17
ENDBRANCH  11  16
ENDBRANCH   6  11
ENDBRANCH   5   6
ENDBRANCH   4   5
TORSDOF 7
ENDMDL
MODEL      139
REMARK 921   NORMALIZED FREE ENERGY PREDICTED BY IDOCK:   -4.30 KCAL/MOL
REMARK 922        TOTAL FREE ENERGY PREDICTED BY IDOCK:   -7.00 KCAL/MOL
REMARK 923 INTER-LIGAND FREE ENERGY PREDICTED BY IDOCK:   -6.48 KCAL/MOL
REMARK 924 INTRA-LIGAND FREE ENERGY PREDICTED BY IDOCK:   -0.52 KCAL/MOL
REMARK 927      BINDING AFFINITY PREDICTED BY RF-SCORE:    0.00 PKD
ROOT
HETATM    1  O   UNL     1     -13.294  14.178  65.292  1.00  0.00    -0.715 OA 
HETATM    2  N   UNL     1     -12.112  13.931  65.517  1.00  0.00    -0.383 N  
HETATM    3  O   UNL     1     -11.577  12.892  65.905  1.00  0.00    -0.339 OA 
HETATM    4  O   UNL     1     -11.263  15.043  65.276  1.00  0.00    -0.345 OA 
ENDROOT
BRANCH   4   5
HETATM    5  C   UNL     1      -9.894  14.760  65.566  1.00  0.00    -0.301 C  
BRANCH   5   6
HETATM    6  C   UNL     1      -9.373  15.785  66.605  1.00  0.00    -0.258 C  
BRANCH   6   7
HETATM    7  O   UNL     1      -8.789  16.961  66.019  1.00  0.00    -0.464 OA 
HETATM    8  O   UNL     1      -6.762  16.077  66.502  1.00  0.00    -0.145 OA 
HETATM    9  N   UNL     1      -7.374  17.012  65.990  1.00  0.00    -0.189 N  
HETATM   10  O   UNL     1      -6.945  18.000  65.401  1.00  0.00    -0.481 OA 
ENDBRANCH   6   7
BRANCH   6  11
HETATM   11  C   UNL     1     -10.396  16.127  67.724  1.00  0.00    -0.283 C  
BRANCH  11  12
HETATM   12  O   UNL     1     -10.377  15.072  68.691  1.00  0.00    -0.224 OA 
HETATM   13  O   UNL     1     -12.592  15.436  68.915  1.00  0.00     0.090 OA 
HETATM   14  O   UNL     1     -11.682  13.470  69.457  1.00  0.00    -0.287 OA 
HETATM   15  N   UNL     1     -11.675  14.626  69.046  1.00  0.00    -0.291 N  
ENDBRANCH  11  12
BRANCH  11  16
HETATM   16  C   UNL     1     -10.134  17.494  68.389  1.00  0.00    -0.358 C  
BRANCH  16  17
HETATM   17  O   UNL     1     -10.356  18.567  67.476  1.00  0.00    -0.367 OA 
HETATM   18  N   UNL     1      -9.792  19.790  67.949  1.00  0.00    -0.381 N  
HETATM   19  O   UNL     1      -9.890  20.702  67.132  1.00  0.00    -0.469 OA 
HETATM   20  O   UNL     1      -9.313  19.784  69.080  1.00  0.00    -0.293 OA 
ENDBRANCH  16  17
ENDBRANCH  11  16
ENDBRANCH   6  11
ENDBRANCH   5   6
ENDBRANCH   4   5
TORSDOF 7
ENDMDL
MODEL      140
REMARK 921   NORMALIZED FREE ENERGY PREDICTED BY IDOCK:   -4.29 KCAL/MOL
REMARK 922        TOTAL FREE ENERGY PREDICTED BY IDOCK:   -6.99 KCAL/MOL
REMARK 923 INTER-LIGAND FREE ENERGY PREDICTED BY IDOCK:   -6.03 KCAL/MOL
REMARK 924 INTRA-LIGAND FREE ENERGY PREDICTED BY IDOCK:   -0.96 KCAL/MOL
REMARK 927      BINDING AFFINITY PREDICTED BY RF-SCORE:    0.00 PKD
ROOT
HETATM    1  O   UNL     1      -5.572  16.370  68.809  1.00  0.00    -0.115 OA 
HETATM    2  N   UNL     1      -6.393  15.699  68.190  1.00  0.00    -0.115 N  
HETATM    3  O   UNL     1      -6.227  14.859  67.303  1.00  0.00    -0.311 OA 
HETATM    4  O   UNL     1      -7.730  15.958  68.591  1.00  0.00    -0.143 OA 
ENDROOT
BRANCH   4   5
HETATM    5  C   UNL     1      -8.682  15.195  67.849  1.00  0.00    -0.157 C  
BRANCH   5   6
HETATM    6  C   UNL     1     -10.068  15.883  67.945  1.00  0.00    -0.235 C  
BRANCH   6   7
HETATM    7  O   UNL     1     -10.211  17.024  67.082  1.00  0.00    -0.293 OA 
HETATM    8  O   UNL     1     -10.201  18.311  68.944  1.00  0.00    -0.386 OA 
HETATM    9  N   UNL     1     -10.249  18.290  67.715  1.00  0.00    -0.365 N  
HETATM   10  O   UNL     1     -10.287  19.221  66.917  1.00  0.00    -0.366 OA 
ENDBRANCH   6   7
BRANCH   6  11
HETATM   11  C   UNL     1     -11.268  14.902  67.835  1.00  0.00    -0.315 C  
BRANCH  11  12
HETATM   12  O   UNL     1     -10.848  13.755  67.089  1.00  0.00    -0.279 OA 
HETATM   13  O   UNL     1     -12.132  14.556  65.416  1.00  0.00    -0.365 OA 
HETATM   14  O   UNL     1     -10.435  13.164  65.007  1.00  0.00    -0.313 OA 
HETATM   15  N   UNL     1     -11.173  13.845  65.712  1.00  0.00    -0.300 N  
ENDBRANCH  11  12
BRANCH  11  16
HETATM   16  C   UNL     1     -11.842  14.491  69.207  1.00  0.00    -0.323 C  
BRANCH  16  17
HETATM   17  O   UNL     1     -11.340  15.324  70.251  1.00  0.00    -0.250 OA 
HETATM   18  N   UNL     1     -12.389  15.814  71.086  1.00  0.00    -0.420 N  
HETATM   19  O   UNL     1     -11.967  16.455  72.046  1.00  0.00    -0.493 OA 
HETATM   20  O   UNL     1     -13.541  15.561  70.745  1.00  0.00    -0.487 OA 
ENDBRANCH  16  17
ENDBRANCH  11  16
ENDBRANCH   6  11
ENDBRANCH   5   6
ENDBRANCH   4   5
TORSDOF 7
ENDMDL
MODEL      141
REMARK 921   NORMALIZED FREE ENERGY PREDICTED BY IDOCK:   -4.29 KCAL/MOL
REMARK 922        TOTAL FREE ENERGY PREDICTED BY IDOCK:   -6.98 KCAL/MOL
REMARK 923 INTER-LIGAND FREE ENERGY PREDICTED BY IDOCK:   -6.10 KCAL/MOL
REMARK 924 INTRA-LIGAND FREE ENERGY PREDICTED BY IDOCK:   -0.88 KCAL/MOL
REMARK 927      BINDING AFFINITY PREDICTED BY RF-SCORE:    0.00 PKD
ROOT
HETATM    1  O   UNL     1      -8.855   8.056  66.139  1.00  0.00    -0.151 OA 
HETATM    2  N   UNL     1      -8.863   9.276  66.002  1.00  0.00    -0.151 N  
HETATM    3  O   UNL     1      -7.997  10.032  65.558  1.00  0.00    -0.127 OA 
HETATM    4  O   UNL     1     -10.081   9.869  66.428  1.00  0.00    -0.228 OA 
ENDROOT
BRANCH   4   5
HETATM    5  C   UNL     1     -10.075  11.290  66.292  1.00  0.00    -0.230 C  
BRANCH   5   6
HETATM    6  C   UNL     1     -10.847  11.916  67.482  1.00  0.00    -0.238 C  
BRANCH   6   7
HETATM    7  O   UNL     1     -10.413  11.444  68.769  1.00  0.00    -0.195 OA 
HETATM    8  O   UNL     1     -12.528  10.708  69.103  1.00  0.00    -0.317 OA 
HETATM    9  N   UNL     1     -11.389  10.785  69.557  1.00  0.00    -0.264 N  
HETATM   10  O   UNL     1     -10.931  10.335  70.603  1.00  0.00    -0.308 OA 
ENDBRANCH   6   7
BRANCH   6  11
HETATM   11  C   UNL     1     -10.949  13.465  67.423  1.00  0.00    -0.272 C  
BRANCH  11  12
HETATM   12  O   UNL     1     -12.178  13.813  66.775  1.00  0.00    -0.425 OA 
HETATM   13  O   UNL     1     -10.899  14.563  65.075  1.00  0.00    -0.362 OA 
HETATM   14  O   UNL     1     -13.023  13.962  64.746  1.00  0.00    -0.686 OA 
HETATM   15  N   UNL     1     -12.005  14.140  65.407  1.00  0.00    -0.365 N  
ENDBRANCH  11  12
BRANCH  11  16
HETATM   16  C   UNL     1     -10.846  14.133  68.810  1.00  0.00    -0.258 C  
BRANCH  16  17
HETATM   17  O   UNL     1     -12.135  14.344  69.382  1.00  0.00    -0.306 OA 
HETATM   18  N   UNL     1     -12.177  15.534  70.169  1.00  0.00    -0.377 N  
HETATM   19  O   UNL     1     -13.304  15.783  70.591  1.00  0.00    -0.486 OA 
HETATM   20  O   UNL     1     -11.116  16.131  70.338  1.00  0.00    -0.353 OA 
ENDBRANCH  16  17
ENDBRANCH  11  16
ENDBRANCH   6  11
ENDBRANCH   5   6
ENDBRANCH   4   5
TORSDOF 7
ENDMDL
MODEL      142
REMARK 921   NORMALIZED FREE ENERGY PREDICTED BY IDOCK:   -4.28 KCAL/MOL
REMARK 922        TOTAL FREE ENERGY PREDICTED BY IDOCK:   -6.98 KCAL/MOL
REMARK 923 INTER-LIGAND FREE ENERGY PREDICTED BY IDOCK:   -6.00 KCAL/MOL
REMARK 924 INTRA-LIGAND FREE ENERGY PREDICTED BY IDOCK:   -0.98 KCAL/MOL
REMARK 927      BINDING AFFINITY PREDICTED BY RF-SCORE:    0.00 PKD
ROOT
HETATM    1  O   UNL     1     -12.110  11.947  66.662  1.00  0.00    -0.587 OA 
HETATM    2  N   UNL     1     -11.746  13.083  66.370  1.00  0.00    -0.370 N  
HETATM    3  O   UNL     1     -12.402  14.115  66.221  1.00  0.00    -0.456 OA 
HETATM    4  O   UNL     1     -10.341  13.179  66.190  1.00  0.00    -0.272 OA 
ENDROOT
BRANCH   4   5
HETATM    5  C   UNL     1      -9.925  14.495  65.824  1.00  0.00    -0.334 C  
BRANCH   5   6
HETATM    6  C   UNL     1      -8.993  15.058  66.927  1.00  0.00    -0.251 C  
BRANCH   6   7
HETATM    7  O   UNL     1      -7.608  14.720  66.746  1.00  0.00     0.082 OA 
HETATM    8  O   UNL     1      -7.790  13.404  68.579  1.00  0.00    -0.133 OA 
HETATM    9  N   UNL     1      -7.059  13.802  67.675  1.00  0.00    -0.168 N  
HETATM   10  O   UNL     1      -5.900  13.494  67.411  1.00  0.00    -0.348 OA 
ENDBRANCH   6   7
BRANCH   6  11
HETATM   11  C   UNL     1      -9.201  16.570  67.219  1.00  0.00    -0.216 C  
BRANCH  11  12
HETATM   12  O   UNL     1      -8.116  17.297  66.632  1.00  0.00    -0.222 OA 
HETATM   13  O   UNL     1      -8.088  18.505  68.536  1.00  0.00    -0.316 OA 
HETATM   14  O   UNL     1      -6.279  18.353  67.237  1.00  0.00    -0.167 OA 
HETATM   15  N   UNL     1      -7.440  18.124  67.563  1.00  0.00    -0.211 N  
ENDBRANCH  11  12
BRANCH  11  16
HETATM   16  C   UNL     1     -10.560  17.103  66.718  1.00  0.00    -0.192 C  
BRANCH  16  17
HETATM   17  O   UNL     1     -10.388  18.091  65.704  1.00  0.00    -0.611 OA 
HETATM   18  N   UNL     1     -10.602  19.410  66.208  1.00  0.00    -0.473 N  
HETATM   19  O   UNL     1     -10.364  20.279  65.373  1.00  0.00    -0.272 OA 
HETATM   20  O   UNL     1     -11.000  19.508  67.366  1.00  0.00    -0.477 OA 
ENDBRANCH  16  17
ENDBRANCH  11  16
ENDBRANCH   6  11
ENDBRANCH   5   6
ENDBRANCH   4   5
TORSDOF 7
ENDMDL
MODEL      143
REMARK 921   NORMALIZED FREE ENERGY PREDICTED BY IDOCK:   -4.28 KCAL/MOL
REMARK 922        TOTAL FREE ENERGY PREDICTED BY IDOCK:   -6.97 KCAL/MOL
REMARK 923 INTER-LIGAND FREE ENERGY PREDICTED BY IDOCK:   -6.16 KCAL/MOL
REMARK 924 INTRA-LIGAND FREE ENERGY PREDICTED BY IDOCK:   -0.81 KCAL/MOL
REMARK 927      BINDING AFFINITY PREDICTED BY RF-SCORE:    0.00 PKD
ROOT
HETATM    1  O   UNL     1      -6.264  11.443  70.386  1.00  0.00    -0.231 OA 
HETATM    2  N   UNL     1      -6.997  10.458  70.425  1.00  0.00    -0.103 N  
HETATM    3  O   UNL     1      -6.978   9.483  71.178  1.00  0.00    -0.270 OA 
HETATM    4  O   UNL     1      -8.012  10.489  69.434  1.00  0.00    -0.153 OA 
ENDROOT
BRANCH   4   5
HETATM    5  C   UNL     1      -8.844   9.329  69.466  1.00  0.00    -0.151 C  
BRANCH   5   6
HETATM    6  C   UNL     1     -10.039   9.535  68.501  1.00  0.00    -0.178 C  
BRANCH   6   7
HETATM    7  O   UNL     1     -10.757   8.327  68.198  1.00  0.00    -0.151 OA 
HETATM    8  O   UNL     1      -9.973   8.507  66.082  1.00  0.00    -0.239 OA 
HETATM    9  N   UNL     1     -10.638   7.841  66.873  1.00  0.00    -0.338 N  
HETATM   10  O   UNL     1     -11.205   6.765  66.707  1.00  0.00    -0.312 OA 
ENDBRANCH   6   7
BRANCH   6  11
HETATM   11  C   UNL     1     -10.984  10.700  68.907  1.00  0.00    -0.249 C  
BRANCH  11  12
HETATM   12  O   UNL     1     -11.890  10.945  67.825  1.00  0.00    -0.579 OA 
HETATM   13  O   UNL     1     -10.994  13.012  67.736  1.00  0.00    -0.239 OA 
HETATM   14  O   UNL     1     -12.004  12.113  65.960  1.00  0.00    -0.578 OA 
HETATM   15  N   UNL     1     -11.592  12.135  67.116  1.00  0.00    -0.345 N  
ENDBRANCH  11  12
BRANCH  11  16
HETATM   16  C   UNL     1     -11.749  10.431  70.220  1.00  0.00    -0.321 C  
BRANCH  16  17
HETATM   17  O   UNL     1     -12.303  11.632  70.753  1.00  0.00    -0.376 OA 
HETATM   18  N   UNL     1     -13.191  11.369  71.839  1.00  0.00    -0.458 N  
HETATM   19  O   UNL     1     -13.603  12.397  72.373  1.00  0.00    -0.478 OA 
HETATM   20  O   UNL     1     -13.439  10.192  72.086  1.00  0.00    -0.411 OA 
ENDBRANCH  16  17
ENDBRANCH  11  16
ENDBRANCH   6  11
ENDBRANCH   5   6
ENDBRANCH   4   5
TORSDOF 7
ENDMDL
MODEL      144
REMARK 921   NORMALIZED FREE ENERGY PREDICTED BY IDOCK:   -4.27 KCAL/MOL
REMARK 922        TOTAL FREE ENERGY PREDICTED BY IDOCK:   -6.95 KCAL/MOL
REMARK 923 INTER-LIGAND FREE ENERGY PREDICTED BY IDOCK:   -6.13 KCAL/MOL
REMARK 924 INTRA-LIGAND FREE ENERGY PREDICTED BY IDOCK:   -0.82 KCAL/MOL
REMARK 927      BINDING AFFINITY PREDICTED BY RF-SCORE:    0.00 PKD
ROOT
HETATM    1  O   UNL     1      -7.641  19.765  68.270  1.00  0.00    -0.302 OA 
HETATM    2  N   UNL     1      -7.372  18.604  67.971  1.00  0.00    -0.243 N  
HETATM    3  O   UNL     1      -6.641  17.787  68.532  1.00  0.00    -0.198 OA 
HETATM    4  O   UNL     1      -8.032  18.175  66.789  1.00  0.00    -0.223 OA 
ENDROOT
BRANCH   4   5
HETATM    5  C   UNL     1      -7.695  16.834  66.431  1.00  0.00    -0.310 C  
BRANCH   5   6
HETATM    6  C   UNL     1      -8.976  15.963  66.465  1.00  0.00    -0.296 C  
BRANCH   6   7
HETATM    7  O   UNL     1      -9.725  15.981  65.238  1.00  0.00    -0.403 OA 
HETATM    8  O   UNL     1     -11.020  17.590  66.165  1.00  0.00    -0.035 OA 
HETATM    9  N   UNL     1     -10.792  16.910  65.167  1.00  0.00    -0.219 N  
HETATM   10  O   UNL     1     -11.332  16.931  64.065  1.00  0.00    -1.109 OA 
ENDBRANCH   6   7
BRANCH   6  11
HETATM   11  C   UNL     1      -8.745  14.521  66.997  1.00  0.00    -0.234 C  
BRANCH  11  12
HETATM   12  O   UNL     1      -8.696  14.569  68.427  1.00  0.00    -0.163 OA 
HETATM   13  O   UNL     1      -6.673  13.590  68.244  1.00  0.00    -0.084 OA 
HETATM   14  O   UNL     1      -7.222  14.780  70.052  1.00  0.00    -0.136 OA 
HETATM   15  N   UNL     1      -7.407  14.286  68.944  1.00  0.00    -0.124 N  
ENDBRANCH  11  12
BRANCH  11  16
HETATM   16  C   UNL     1      -9.813  13.518  66.513  1.00  0.00    -0.291 C  
BRANCH  16  17
HETATM   17  O   UNL     1     -10.344  12.761  67.599  1.00  0.00    -0.216 OA 
HETATM   18  N   UNL     1     -11.577  12.132  67.252  1.00  0.00    -0.340 N  
HETATM   19  O   UNL     1     -12.001  11.399  68.143  1.00  0.00    -0.594 OA 
HETATM   20  O   UNL     1     -12.056  12.405  66.154  1.00  0.00    -0.611 OA 
ENDBRANCH  16  17
ENDBRANCH  11  16
ENDBRANCH   6  11
ENDBRANCH   5   6
ENDBRANCH   4   5
TORSDOF 7
ENDMDL
MODEL      145
REMARK 921   NORMALIZED FREE ENERGY PREDICTED BY IDOCK:   -4.26 KCAL/MOL
REMARK 922        TOTAL FREE ENERGY PREDICTED BY IDOCK:   -6.94 KCAL/MOL
REMARK 923 INTER-LIGAND FREE ENERGY PREDICTED BY IDOCK:   -6.04 KCAL/MOL
REMARK 924 INTRA-LIGAND FREE ENERGY PREDICTED BY IDOCK:   -0.91 KCAL/MOL
REMARK 927      BINDING AFFINITY PREDICTED BY RF-SCORE:    0.00 PKD
ROOT
HETATM    1  O   UNL     1      -9.593   9.035  65.630  1.00  0.00    -0.247 OA 
HETATM    2  N   UNL     1      -9.283   9.847  66.497  1.00  0.00    -0.151 N  
HETATM    3  O   UNL     1      -9.041   9.679  67.693  1.00  0.00    -0.131 OA 
HETATM    4  O   UNL     1      -9.195  11.174  66.000  1.00  0.00    -0.192 OA 
ENDROOT
BRANCH   4   5
HETATM    5  C   UNL     1      -8.861  12.118  67.018  1.00  0.00    -0.203 C  
BRANCH   5   6
HETATM    6  C   UNL     1     -10.154  12.832  67.491  1.00  0.00    -0.213 C  
BRANCH   6   7
HETATM    7  O   UNL     1     -10.432  12.662  68.891  1.00  0.00    -0.188 OA 
HETATM    8  O   UNL     1     -12.017  11.159  68.294  1.00  0.00    -0.592 OA 
HETATM    9  N   UNL     1     -11.437  11.720  69.222  1.00  0.00    -0.282 N  
HETATM   10  O   UNL     1     -11.563  11.563  70.433  1.00  0.00    -0.281 OA 
ENDBRANCH   6   7
BRANCH   6  11
HETATM   11  C   UNL     1     -10.256  14.316  67.043  1.00  0.00    -0.260 C  
BRANCH  11  12
HETATM   12  O   UNL     1     -11.633  14.620  66.797  1.00  0.00    -0.365 OA 
HETATM   13  O   UNL     1     -11.180  14.228  64.623  1.00  0.00    -0.373 OA 
HETATM   14  O   UNL     1     -13.259  14.058  65.420  1.00  0.00    -0.761 OA 
HETATM   15  N   UNL     1     -12.051  14.265  65.491  1.00  0.00    -0.390 N  
ENDBRANCH  11  12
BRANCH  11  16
HETATM   16  C   UNL     1      -9.644  15.301  68.061  1.00  0.00    -0.203 C  
BRANCH  16  17
HETATM   17  O   UNL     1      -9.668  16.639  67.567  1.00  0.00    -0.241 OA 
HETATM   18  N   UNL     1     -10.508  17.479  68.358  1.00  0.00    -0.375 N  
HETATM   19  O   UNL     1     -10.466  18.656  68.005  1.00  0.00    -0.377 OA 
HETATM   20  O   UNL     1     -11.160  16.940  69.249  1.00  0.00    -0.212 OA 
ENDBRANCH  16  17
ENDBRANCH  11  16
ENDBRANCH   6  11
ENDBRANCH   5   6
ENDBRANCH   4   5
TORSDOF 7
ENDMDL
MODEL      146
REMARK 921   NORMALIZED FREE ENERGY PREDICTED BY IDOCK:   -4.26 KCAL/MOL
REMARK 922        TOTAL FREE ENERGY PREDICTED BY IDOCK:   -6.94 KCAL/MOL
REMARK 923 INTER-LIGAND FREE ENERGY PREDICTED BY IDOCK:   -6.34 KCAL/MOL
REMARK 924 INTRA-LIGAND FREE ENERGY PREDICTED BY IDOCK:   -0.60 KCAL/MOL
REMARK 927      BINDING AFFINITY PREDICTED BY RF-SCORE:    0.00 PKD
ROOT
HETATM    1  O   UNL     1      -8.240  17.279  67.015  1.00  0.00    -0.192 OA 
HETATM    2  N   UNL     1      -9.462  17.229  67.118  1.00  0.00    -0.250 N  
HETATM    3  O   UNL     1     -10.325  18.024  66.742  1.00  0.00    -0.350 OA 
HETATM    4  O   UNL     1      -9.911  16.053  67.775  1.00  0.00    -0.227 OA 
ENDROOT
BRANCH   4   5
HETATM    5  C   UNL     1     -11.331  16.014  67.918  1.00  0.00    -0.218 C  
BRANCH   5   6
HETATM    6  C   UNL     1     -11.819  14.555  67.728  1.00  0.00    -0.357 C  
BRANCH   6   7
HETATM    7  O   UNL     1     -11.244  13.894  66.588  1.00  0.00    -0.308 OA 
HETATM    8  O   UNL     1     -13.249  14.130  65.563  1.00  0.00    -0.688 OA 
HETATM    9  N   UNL     1     -12.089  13.734  65.463  1.00  0.00    -0.385 N  
HETATM   10  O   UNL     1     -11.511  13.240  64.499  1.00  0.00    -0.337 OA 
ENDBRANCH   6   7
BRANCH   6  11
HETATM   11  C   UNL     1     -11.739  13.690  69.017  1.00  0.00    -0.333 C  
BRANCH  11  12
HETATM   12  O   UNL     1     -12.674  14.210  69.968  1.00  0.00    -0.292 OA 
HETATM   13  O   UNL     1     -10.879  15.013  71.072  1.00  0.00    -0.183 OA 
HETATM   14  O   UNL     1     -12.901  15.921  71.338  1.00  0.00    -0.468 OA 
HETATM   15  N   UNL     1     -12.086  15.132  70.870  1.00  0.00    -0.305 N  
ENDBRANCH  11  12
BRANCH  11  16
HETATM   16  C   UNL     1     -11.990  12.190  68.757  1.00  0.00    -0.239 C  
BRANCH  16  17
HETATM   17  O   UNL     1     -10.958  11.385  69.325  1.00  0.00    -0.233 OA 
HETATM   18  N   UNL     1     -11.440  10.600  70.415  1.00  0.00    -0.325 N  
HETATM   19  O   UNL     1     -10.589   9.830  70.856  1.00  0.00    -0.313 OA 
HETATM   20  O   UNL     1     -12.597  10.796  70.778  1.00  0.00    -0.336 OA 
ENDBRANCH  16  17
ENDBRANCH  11  16
ENDBRANCH   6  11
ENDBRANCH   5   6
ENDBRANCH   4   5
TORSDOF 7
ENDMDL
MODEL      147
REMARK 921   NORMALIZED FREE ENERGY PREDICTED BY IDOCK:   -4.25 KCAL/MOL
REMARK 922        TOTAL FREE ENERGY PREDICTED BY IDOCK:   -6.92 KCAL/MOL
REMARK 923 INTER-LIGAND FREE ENERGY PREDICTED BY IDOCK:   -6.27 KCAL/MOL
REMARK 924 INTRA-LIGAND FREE ENERGY PREDICTED BY IDOCK:   -0.65 KCAL/MOL
REMARK 927      BINDING AFFINITY PREDICTED BY RF-SCORE:    0.00 PKD
ROOT
HETATM    1  O   UNL     1     -11.061   9.984  70.008  1.00  0.00    -0.256 OA 
HETATM    2  N   UNL     1     -11.252  10.796  69.107  1.00  0.00    -0.241 N  
HETATM    3  O   UNL     1     -12.298  11.144  68.558  1.00  0.00    -0.561 OA 
HETATM    4  O   UNL     1     -10.053  11.412  68.660  1.00  0.00    -0.203 OA 
ENDROOT
BRANCH   4   5
HETATM    5  C   UNL     1     -10.277  12.335  67.593  1.00  0.00    -0.203 C  
BRANCH   5   6
HETATM    6  C   UNL     1      -9.268  13.506  67.717  1.00  0.00    -0.213 C  
BRANCH   6   7
HETATM    7  O   UNL     1      -7.976  13.222  67.155  1.00  0.00    -0.154 OA 
HETATM    8  O   UNL     1      -7.073  14.221  68.975  1.00  0.00    -0.109 OA 
HETATM    9  N   UNL     1      -6.855  13.626  67.921  1.00  0.00    -0.135 N  
HETATM   10  O   UNL     1      -5.788  13.278  67.424  1.00  0.00    -0.327 OA 
ENDBRANCH   6   7
BRANCH   6  11
HETATM   11  C   UNL     1      -9.831  14.876  67.247  1.00  0.00    -0.229 C  
BRANCH  11  12
HETATM   12  O   UNL     1      -8.986  15.378  66.206  1.00  0.00    -0.297 OA 
HETATM   13  O   UNL     1      -9.427  17.427  67.038  1.00  0.00    -0.252 OA 
HETATM   14  O   UNL     1      -7.590  17.041  65.831  1.00  0.00    -0.354 OA 
HETATM   15  N   UNL     1      -8.642  16.741  66.386  1.00  0.00    -0.279 N  
ENDBRANCH  11  12
BRANCH  11  16
HETATM   16  C   UNL     1     -11.300  14.800  66.780  1.00  0.00    -0.346 C  
BRANCH  16  17
HETATM   17  O   UNL     1     -11.424  15.140  65.400  1.00  0.00    -0.324 OA 
HETATM   18  N   UNL     1     -12.493  14.429  64.775  1.00  0.00    -0.413 N  
HETATM   19  O   UNL     1     -12.675  14.779  63.611  1.00  0.00    -0.713 OA 
HETATM   20  O   UNL     1     -13.064  13.573  65.445  1.00  0.00    -0.663 OA 
ENDBRANCH  16  17
ENDBRANCH  11  16
ENDBRANCH   6  11
ENDBRANCH   5   6
ENDBRANCH   4   5
TORSDOF 7
ENDMDL
MODEL      148
REMARK 921   NORMALIZED FREE ENERGY PREDICTED BY IDOCK:   -4.25 KCAL/MOL
REMARK 922        TOTAL FREE ENERGY PREDICTED BY IDOCK:   -6.92 KCAL/MOL
REMARK 923 INTER-LIGAND FREE ENERGY PREDICTED BY IDOCK:   -6.06 KCAL/MOL
REMARK 924 INTRA-LIGAND FREE ENERGY PREDICTED BY IDOCK:   -0.86 KCAL/MOL
REMARK 927      BINDING AFFINITY PREDICTED BY RF-SCORE:    0.00 PKD
ROOT
HETATM    1  O   UNL     1     -10.236   9.384  71.277  1.00  0.00    -0.315 OA 
HETATM    2  N   UNL     1     -10.869   9.892  70.355  1.00  0.00    -0.298 N  
HETATM    3  O   UNL     1     -11.736  10.767  70.373  1.00  0.00    -0.302 OA 
HETATM    4  O   UNL     1     -10.512   9.363  69.087  1.00  0.00    -0.208 OA 
ENDROOT
BRANCH   4   5
HETATM    5  C   UNL     1     -11.271   9.937  68.022  1.00  0.00    -0.061 C  
BRANCH   5   6
HETATM    6  C   UNL     1     -10.305  10.373  66.890  1.00  0.00    -0.240 C  
BRANCH   6   7
HETATM    7  O   UNL     1      -9.996   9.327  65.954  1.00  0.00    -0.307 OA 
HETATM    8  O   UNL     1      -7.846   9.473  66.649  1.00  0.00    -0.100 OA 
HETATM    9  N   UNL     1      -8.647   8.895  65.917  1.00  0.00    -0.148 N  
HETATM   10  O   UNL     1      -8.472   7.945  65.159  1.00  0.00    -0.143 OA 
ENDBRANCH   6   7
BRANCH   6  11
HETATM   11  C   UNL     1     -10.714  11.697  66.186  1.00  0.00    -0.278 C  
BRANCH  11  12
HETATM   12  O   UNL     1      -9.788  12.719  66.570  1.00  0.00    -0.245 OA 
HETATM   13  O   UNL     1     -11.595  13.912  67.204  1.00  0.00    -0.325 OA 
HETATM   14  O   UNL     1      -9.579  14.317  68.073  1.00  0.00    -0.210 OA 
HETATM   15  N   UNL     1     -10.386  13.737  67.354  1.00  0.00    -0.251 N  
ENDBRANCH  11  12
BRANCH  11  16
HETATM   16  C   UNL     1     -10.791  11.568  64.650  1.00  0.00    -0.310 C  
BRANCH  16  17
HETATM   17  O   UNL     1     -11.007  12.836  64.033  1.00  0.00    -0.363 OA 
HETATM   18  N   UNL     1     -12.394  13.081  63.800  1.00  0.00    -0.415 N  
HETATM   19  O   UNL     1     -12.606  14.208  63.357  1.00  0.00    -0.818 OA 
HETATM   20  O   UNL     1     -13.173  12.164  64.043  1.00  0.00    -0.728 OA 
ENDBRANCH  16  17
ENDBRANCH  11  16
ENDBRANCH   6  11
ENDBRANCH   5   6
ENDBRANCH   4   5
TORSDOF 7
ENDMDL
MODEL      149
REMARK 921   NORMALIZED FREE ENERGY PREDICTED BY IDOCK:   -4.24 KCAL/MOL
REMARK 922        TOTAL FREE ENERGY PREDICTED BY IDOCK:   -6.91 KCAL/MOL
REMARK 923 INTER-LIGAND FREE ENERGY PREDICTED BY IDOCK:   -6.19 KCAL/MOL
REMARK 924 INTRA-LIGAND FREE ENERGY PREDICTED BY IDOCK:   -0.73 KCAL/MOL
REMARK 927      BINDING AFFINITY PREDICTED BY RF-SCORE:    0.00 PKD
ROOT
HETATM    1  O   UNL     1      -9.079  19.800  68.045  1.00  0.00    -0.320 OA 
HETATM    2  N   UNL     1     -10.058  19.099  67.805  1.00  0.00    -0.360 N  
HETATM    3  O   UNL     1     -11.075  19.348  67.155  1.00  0.00    -0.445 OA 
HETATM    4  O   UNL     1      -9.962  17.805  68.383  1.00  0.00    -0.320 OA 
ENDROOT
BRANCH   4   5
HETATM    5  C   UNL     1     -11.116  17.004  68.126  1.00  0.00    -0.163 C  
BRANCH   5   6
HETATM    6  C   UNL     1     -10.675  15.533  67.918  1.00  0.00    -0.294 C  
BRANCH   6   7
HETATM    7  O   UNL     1      -9.520  15.159  68.688  1.00  0.00    -0.191 OA 
HETATM    8  O   UNL     1      -8.323  15.285  66.770  1.00  0.00    -0.234 OA 
HETATM    9  N   UNL     1      -8.295  15.075  67.981  1.00  0.00    -0.144 N  
HETATM   10  O   UNL     1      -7.339  14.835  68.713  1.00  0.00    -0.114 OA 
ENDBRANCH   6   7
BRANCH   6  11
HETATM   11  C   UNL     1     -11.832  14.503  68.047  1.00  0.00    -0.315 C  
BRANCH  11  12
HETATM   12  O   UNL     1     -11.510  13.360  67.247  1.00  0.00    -0.307 OA 
HETATM   13  O   UNL     1     -13.056  14.125  65.794  1.00  0.00    -0.512 OA 
HETATM   14  O   UNL     1     -11.415  12.765  65.128  1.00  0.00    -0.302 OA 
HETATM   15  N   UNL     1     -12.048  13.435  65.938  1.00  0.00    -0.415 N  
ENDBRANCH  11  12
BRANCH  11  16
HETATM   16  C   UNL     1     -12.121  14.095  69.506  1.00  0.00    -0.340 C  
BRANCH  16  17
HETATM   17  O   UNL     1     -13.044  14.990  70.122  1.00  0.00    -0.155 OA 
HETATM   18  N   UNL     1     -13.583  14.448  71.328  1.00  0.00    -0.350 N  
HETATM   19  O   UNL     1     -14.308  15.244  71.922  1.00  0.00    -0.523 OA 
HETATM   20  O   UNL     1     -13.284  13.289  71.603  1.00  0.00    -0.383 OA 
ENDBRANCH  16  17
ENDBRANCH  11  16
ENDBRANCH   6  11
ENDBRANCH   5   6
ENDBRANCH   4   5
TORSDOF 7
ENDMDL
MODEL      150
REMARK 921   NORMALIZED FREE ENERGY PREDICTED BY IDOCK:   -4.20 KCAL/MOL
REMARK 922        TOTAL FREE ENERGY PREDICTED BY IDOCK:   -6.86 KCAL/MOL
REMARK 923 INTER-LIGAND FREE ENERGY PREDICTED BY IDOCK:   -6.06 KCAL/MOL
REMARK 924 INTRA-LIGAND FREE ENERGY PREDICTED BY IDOCK:   -0.81 KCAL/MOL
REMARK 927      BINDING AFFINITY PREDICTED BY RF-SCORE:    0.00 PKD
ROOT
HETATM    1  O   UNL     1     -12.414  14.963  63.902  1.00  0.00    -0.806 OA 
HETATM    2  N   UNL     1     -12.475  13.775  64.205  1.00  0.00    -0.303 N  
HETATM    3  O   UNL     1     -13.283  13.176  64.915  1.00  0.00    -0.705 OA 
HETATM    4  O   UNL     1     -11.435  13.005  63.619  1.00  0.00    -0.432 OA 
ENDROOT
BRANCH   4   5
HETATM    5  C   UNL     1     -11.495  11.629  63.996  1.00  0.00    -0.316 C  
BRANCH   5   6
HETATM    6  C   UNL     1     -10.396  11.345  65.053  1.00  0.00    -0.287 C  
BRANCH   6   7
HETATM    7  O   UNL     1      -9.069  11.271  64.506  1.00  0.00    -0.118 OA 
HETATM    8  O   UNL     1      -9.066   9.078  65.066  1.00  0.00    -0.197 OA 
HETATM    9  N   UNL     1      -8.446   9.999  64.538  1.00  0.00    -0.163 N  
HETATM   10  O   UNL     1      -7.354   9.989  63.980  1.00  0.00    -0.131 OA 
ENDBRANCH   6   7
BRANCH   6  11
HETATM   11  C   UNL     1     -10.471  12.264  66.303  1.00  0.00    -0.238 C  
BRANCH  11  12
HETATM   12  O   UNL     1     -10.636  11.439  67.462  1.00  0.00    -0.196 OA 
HETATM   13  O   UNL     1     -12.121  12.982  68.169  1.00  0.00    -0.307 OA 
HETATM   14  O   UNL     1     -12.190  10.881  68.920  1.00  0.00    -0.494 OA 
HETATM   15  N   UNL     1     -11.755  11.810  68.248  1.00  0.00    -0.316 N  
ENDBRANCH  11  12
BRANCH  11  16
HETATM   16  C   UNL     1      -9.244  13.189  66.451  1.00  0.00    -0.122 C  
BRANCH  16  17
HETATM   17  O   UNL     1      -9.573  14.541  66.141  1.00  0.00    -0.298 OA 
HETATM   18  N   UNL     1      -9.499  15.381  67.293  1.00  0.00    -0.208 N  
HETATM   19  O   UNL     1      -9.686  16.566  67.026  1.00  0.00    -0.240 OA 
HETATM   20  O   UNL     1      -9.285  14.834  68.371  1.00  0.00    -0.177 OA 
ENDBRANCH  16  17
ENDBRANCH  11  16
ENDBRANCH   6  11
ENDBRANCH   5   6
ENDBRANCH   4   5
TORSDOF 7
ENDMDL
MODEL      151
REMARK 921   NORMALIZED FREE ENERGY PREDICTED BY IDOCK:   -4.19 KCAL/MOL
REMARK 922        TOTAL FREE ENERGY PREDICTED BY IDOCK:   -6.84 KCAL/MOL
REMARK 923 INTER-LIGAND FREE ENERGY PREDICTED BY IDOCK:   -5.80 KCAL/MOL
REMARK 924 INTRA-LIGAND FREE ENERGY PREDICTED BY IDOCK:   -1.04 KCAL/MOL
REMARK 927      BINDING AFFINITY PREDICTED BY RF-SCORE:    0.00 PKD
ROOT
HETATM    1  O   UNL     1     -10.000   6.808  71.199  1.00  0.00    -0.182 OA 
HETATM    2  N   UNL     1     -10.597   6.969  70.138  1.00  0.00    -0.221 N  
HETATM    3  O   UNL     1     -11.725   6.609  69.798  1.00  0.00    -0.332 OA 
HETATM    4  O   UNL     1      -9.835   7.692  69.182  1.00  0.00    -0.166 OA 
ENDROOT
BRANCH   4   5
HETATM    5  C   UNL     1     -10.523   7.852  67.942  1.00  0.00    -0.198 C  
BRANCH   5   6
HETATM    6  C   UNL     1     -10.206   9.255  67.364  1.00  0.00    -0.243 C  
BRANCH   6   7
HETATM    7  O   UNL     1     -10.148   9.293  65.928  1.00  0.00    -0.293 OA 
HETATM    8  O   UNL     1      -7.913   9.592  66.123  1.00  0.00    -0.106 OA 
HETATM    9  N   UNL     1      -8.863   9.454  65.355  1.00  0.00    -0.171 N  
HETATM   10  O   UNL     1      -8.877   9.393  64.130  1.00  0.00    -0.214 OA 
ENDBRANCH   6   7
BRANCH   6  11
HETATM   11  C   UNL     1     -11.086  10.393  67.952  1.00  0.00    -0.299 C  
BRANCH  11  12
HETATM   12  O   UNL     1     -10.757  10.550  69.336  1.00  0.00    -0.211 OA 
HETATM   13  O   UNL     1     -12.981  10.584  69.709  1.00  0.00    -0.106 OA 
HETATM   14  O   UNL     1     -11.547  10.013  71.322  1.00  0.00    -0.367 OA 
HETATM   15  N   UNL     1     -11.872  10.362  70.192  1.00  0.00    -0.287 N  
ENDBRANCH  11  12
BRANCH  11  16
HETATM   16  C   UNL     1     -10.938  11.728  67.192  1.00  0.00    -0.276 C  
BRANCH  16  17
HETATM   17  O   UNL     1     -12.182  12.149  66.635  1.00  0.00    -0.566 OA 
HETATM   18  N   UNL     1     -12.082  12.373  65.228  1.00  0.00    -0.428 N  
HETATM   19  O   UNL     1     -13.166  12.643  64.715  1.00  0.00    -0.846 OA 
HETATM   20  O   UNL     1     -10.964  12.290  64.726  1.00  0.00    -0.284 OA 
ENDBRANCH  16  17
ENDBRANCH  11  16
ENDBRANCH   6  11
ENDBRANCH   5   6
ENDBRANCH   4   5
TORSDOF 7
ENDMDL
MODEL      152
REMARK 921   NORMALIZED FREE ENERGY PREDICTED BY IDOCK:   -4.16 KCAL/MOL
REMARK 922        TOTAL FREE ENERGY PREDICTED BY IDOCK:   -6.80 KCAL/MOL
REMARK 923 INTER-LIGAND FREE ENERGY PREDICTED BY IDOCK:   -5.90 KCAL/MOL
REMARK 924 INTRA-LIGAND FREE ENERGY PREDICTED BY IDOCK:   -0.90 KCAL/MOL
REMARK 927      BINDING AFFINITY PREDICTED BY RF-SCORE:    0.00 PKD
ROOT
HETATM    1  O   UNL     1     -13.331  12.754  64.761  1.00  0.00    -0.736 OA 
HETATM    2  N   UNL     1     -12.193  12.679  65.216  1.00  0.00    -0.472 N  
HETATM    3  O   UNL     1     -11.128  13.106  64.768  1.00  0.00    -0.305 OA 
HETATM    4  O   UNL     1     -12.141  11.989  66.456  1.00  0.00    -0.617 OA 
ENDROOT
BRANCH   4   5
HETATM    5  C   UNL     1     -10.812  11.880  66.967  1.00  0.00    -0.259 C  
BRANCH   5   6
HETATM    6  C   UNL     1     -10.263  10.465  66.651  1.00  0.00    -0.234 C  
BRANCH   6   7
HETATM    7  O   UNL     1      -8.881  10.455  66.253  1.00  0.00    -0.146 OA 
HETATM    8  O   UNL     1      -9.594  10.057  64.141  1.00  0.00    -0.292 OA 
HETATM    9  N   UNL     1      -8.626  10.250  64.874  1.00  0.00    -0.175 N  
HETATM   10  O   UNL     1      -7.435  10.337  64.592  1.00  0.00    -0.142 OA 
ENDBRANCH   6   7
BRANCH   6  11
HETATM   11  C   UNL     1     -10.571   9.409  67.747  1.00  0.00    -0.258 C  
BRANCH  11  12
HETATM   12  O   UNL     1      -9.536   8.421  67.728  1.00  0.00    -0.145 OA 
HETATM   13  O   UNL     1     -11.141   6.962  67.111  1.00  0.00    -0.370 OA 
HETATM   14  O   UNL     1      -8.991   6.579  66.648  1.00  0.00    -0.128 OA 
HETATM   15  N   UNL     1      -9.938   7.214  67.102  1.00  0.00    -0.190 N  
ENDBRANCH  11  12
BRANCH  11  16
HETATM   16  C   UNL     1     -10.725  10.023  69.155  1.00  0.00    -0.220 C  
BRANCH  16  17
HETATM   17  O   UNL     1     -10.929   9.013  70.142  1.00  0.00    -0.237 OA 
HETATM   18  N   UNL     1     -11.832   9.443  71.160  1.00  0.00    -0.315 N  
HETATM   19  O   UNL     1     -12.093   8.552  71.966  1.00  0.00    -0.316 OA 
HETATM   20  O   UNL     1     -12.208  10.611  71.117  1.00  0.00    -0.349 OA 
ENDBRANCH  16  17
ENDBRANCH  11  16
ENDBRANCH   6  11
ENDBRANCH   5   6
ENDBRANCH   4   5
TORSDOF 7
ENDMDL
MODEL      153
REMARK 921   NORMALIZED FREE ENERGY PREDICTED BY IDOCK:   -4.15 KCAL/MOL
REMARK 922        TOTAL FREE ENERGY PREDICTED BY IDOCK:   -6.79 KCAL/MOL
REMARK 923 INTER-LIGAND FREE ENERGY PREDICTED BY IDOCK:   -5.84 KCAL/MOL
REMARK 924 INTRA-LIGAND FREE ENERGY PREDICTED BY IDOCK:   -0.95 KCAL/MOL
REMARK 927      BINDING AFFINITY PREDICTED BY RF-SCORE:    0.00 PKD
ROOT
HETATM    1  O   UNL     1      -7.846   7.560  67.964  1.00  0.00    -0.117 OA 
HETATM    2  N   UNL     1      -8.042   8.685  68.417  1.00  0.00    -0.117 N  
HETATM    3  O   UNL     1      -7.247   9.594  68.660  1.00  0.00    -0.071 OA 
HETATM    4  O   UNL     1      -9.413   8.938  68.686  1.00  0.00    -0.149 OA 
ENDROOT
BRANCH   4   5
HETATM    5  C   UNL     1      -9.632  10.236  69.238  1.00  0.00    -0.224 C  
BRANCH   5   6
HETATM    6  C   UNL     1     -10.170  11.175  68.128  1.00  0.00    -0.181 C  
BRANCH   6   7
HETATM    7  O   UNL     1     -10.559  10.490  66.926  1.00  0.00    -0.248 OA 
HETATM    8  O   UNL     1      -8.859  11.560  65.882  1.00  0.00    -0.187 OA 
HETATM    9  N   UNL     1      -9.774  10.746  65.774  1.00  0.00    -0.216 N  
HETATM   10  O   UNL     1     -10.108  10.066  64.809  1.00  0.00    -0.296 OA 
ENDBRANCH   6   7
BRANCH   6  11
HETATM   11  C   UNL     1     -11.254  12.175  68.617  1.00  0.00    -0.269 C  
BRANCH  11  12
HETATM   12  O   UNL     1     -12.232  12.323  67.583  1.00  0.00    -0.442 OA 
HETATM   13  O   UNL     1     -11.566  14.474  67.463  1.00  0.00    -0.347 OA 
HETATM   14  O   UNL     1     -12.560  13.473  65.732  1.00  0.00    -0.464 OA 
HETATM   15  N   UNL     1     -12.097  13.538  66.867  1.00  0.00    -0.387 N  
ENDBRANCH  11  12
BRANCH  11  16
HETATM   16  C   UNL     1     -11.913  11.752  69.947  1.00  0.00    -0.332 C  
BRANCH  16  17
HETATM   17  O   UNL     1     -12.418  12.881  70.658  1.00  0.00    -0.323 OA 
HETATM   18  N   UNL     1     -13.090  12.494  71.856  1.00  0.00    -0.407 N  
HETATM   19  O   UNL     1     -13.448  13.458  72.529  1.00  0.00    -0.558 OA 
HETATM   20  O   UNL     1     -13.240  11.290  72.050  1.00  0.00    -0.506 OA 
ENDBRANCH  16  17
ENDBRANCH  11  16
ENDBRANCH   6  11
ENDBRANCH   5   6
ENDBRANCH   4   5
TORSDOF 7
ENDMDL
MODEL      154
REMARK 921   NORMALIZED FREE ENERGY PREDICTED BY IDOCK:   -4.15 KCAL/MOL
REMARK 922        TOTAL FREE ENERGY PREDICTED BY IDOCK:   -6.79 KCAL/MOL
REMARK 923 INTER-LIGAND FREE ENERGY PREDICTED BY IDOCK:   -6.01 KCAL/MOL
REMARK 924 INTRA-LIGAND FREE ENERGY PREDICTED BY IDOCK:   -0.79 KCAL/MOL
REMARK 927      BINDING AFFINITY PREDICTED BY RF-SCORE:    0.00 PKD
ROOT
HETATM    1  O   UNL     1      -8.571   8.941  70.431  1.00  0.00    -0.146 OA 
HETATM    2  N   UNL     1      -8.798   9.955  69.776  1.00  0.00    -0.210 N  
HETATM    3  O   UNL     1      -8.019  10.758  69.260  1.00  0.00    -0.147 OA 
HETATM    4  O   UNL     1     -10.186  10.201  69.607  1.00  0.00    -0.218 OA 
ENDROOT
BRANCH   4   5
HETATM    5  C   UNL     1     -10.443  11.396  68.869  1.00  0.00    -0.193 C  
BRANCH   5   6
HETATM    6  C   UNL     1     -11.703  12.089  69.450  1.00  0.00    -0.340 C  
BRANCH   6   7
HETATM    7  O   UNL     1     -11.975  11.745  70.819  1.00  0.00    -0.319 OA 
HETATM    8  O   UNL     1     -13.526  10.289  70.043  1.00  0.00     0.124 OA 
HETATM    9  N   UNL     1     -12.958  10.747  71.032  1.00  0.00    -0.360 N  
HETATM   10  O   UNL     1     -13.079  10.444  72.215  1.00  0.00    -0.397 OA 
ENDBRANCH   6   7
BRANCH   6  11
HETATM   11  C   UNL     1     -11.750  13.622  69.203  1.00  0.00    -0.329 C  
BRANCH  11  12
HETATM   12  O   UNL     1     -11.092  14.276  70.293  1.00  0.00    -0.081 OA 
HETATM   13  O   UNL     1     -12.975  15.500  70.503  1.00  0.00    -0.427 OA 
HETATM   14  O   UNL     1     -11.577  15.226  72.221  1.00  0.00    -0.429 OA 
HETATM   15  N   UNL     1     -11.972  15.070  71.070  1.00  0.00    -0.298 N  
ENDBRANCH  11  12
BRANCH  11  16
HETATM   16  C   UNL     1     -11.130  14.038  67.852  1.00  0.00    -0.255 C  
BRANCH  16  17
HETATM   17  O   UNL     1     -12.114  14.586  66.977  1.00  0.00    -0.398 OA 
HETATM   18  N   UNL     1     -12.448  13.681  65.924  1.00  0.00    -0.461 N  
HETATM   19  O   UNL     1     -13.362  14.096  65.216  1.00  0.00    -0.715 OA 
HETATM   20  O   UNL     1     -11.791  12.646  65.847  1.00  0.00    -0.406 OA 
ENDBRANCH  16  17
ENDBRANCH  11  16
ENDBRANCH   6  11
ENDBRANCH   5   6
ENDBRANCH   4   5
TORSDOF 7
ENDMDL
MODEL      155
REMARK 921   NORMALIZED FREE ENERGY PREDICTED BY IDOCK:   -4.15 KCAL/MOL
REMARK 922        TOTAL FREE ENERGY PREDICTED BY IDOCK:   -6.79 KCAL/MOL
REMARK 923 INTER-LIGAND FREE ENERGY PREDICTED BY IDOCK:   -5.98 KCAL/MOL
REMARK 924 INTRA-LIGAND FREE ENERGY PREDICTED BY IDOCK:   -0.80 KCAL/MOL
REMARK 927      BINDING AFFINITY PREDICTED BY RF-SCORE:    0.00 PKD
ROOT
HETATM    1  O   UNL     1     -10.834   9.270  70.799  1.00  0.00    -0.238 OA 
HETATM    2  N   UNL     1     -10.855   9.437  69.582  1.00  0.00    -0.238 N  
HETATM    3  O   UNL     1     -10.438   8.717  68.674  1.00  0.00    -0.211 OA 
HETATM    4  O   UNL     1     -11.468  10.661  69.206  1.00  0.00    -0.252 OA 
ENDROOT
BRANCH   4   5
HETATM    5  C   UNL     1     -11.465  10.862  67.792  1.00  0.00    -0.243 C  
BRANCH   5   6
HETATM    6  C   UNL     1     -10.566  12.080  67.456  1.00  0.00    -0.221 C  
BRANCH   6   7
HETATM    7  O   UNL     1      -9.478  11.772  66.569  1.00  0.00    -0.202 OA 
HETATM    8  O   UNL     1      -8.175  11.538  68.405  1.00  0.00    -0.140 OA 
HETATM    9  N   UNL     1      -8.236  11.470  67.179  1.00  0.00    -0.154 N  
HETATM   10  O   UNL     1      -7.377  11.135  66.369  1.00  0.00    -0.143 OA 
ENDBRANCH   6   7
BRANCH   6  11
HETATM   11  C   UNL     1     -11.355  13.343  67.011  1.00  0.00    -0.317 C  
BRANCH  11  12
HETATM   12  O   UNL     1     -12.556  12.918  66.358  1.00  0.00    -0.343 OA 
HETATM   13  O   UNL     1     -11.613  13.672  64.453  1.00  0.00    -0.369 OA 
HETATM   14  O   UNL     1     -13.222  12.124  64.414  1.00  0.00    -0.758 OA 
HETATM   15  N   UNL     1     -12.441  12.907  64.946  1.00  0.00    -0.478 N  
ENDBRANCH  11  12
BRANCH  11  16
HETATM   16  C   UNL     1     -11.667  14.305  68.176  1.00  0.00    -0.350 C  
BRANCH  16  17
HETATM   17  O   UNL     1     -12.363  13.638  69.228  1.00  0.00    -0.288 OA 
HETATM   18  N   UNL     1     -12.614  14.508  70.331  1.00  0.00    -0.350 N  
HETATM   19  O   UNL     1     -13.296  13.978  71.205  1.00  0.00    -0.325 OA 
HETATM   20  O   UNL     1     -12.121  15.632  70.281  1.00  0.00    -0.363 OA 
ENDBRANCH  16  17
ENDBRANCH  11  16
ENDBRANCH   6  11
ENDBRANCH   5   6
ENDBRANCH   4   5
TORSDOF 7
ENDMDL
MODEL      156
REMARK 921   NORMALIZED FREE ENERGY PREDICTED BY IDOCK:   -4.15 KCAL/MOL
REMARK 922        TOTAL FREE ENERGY PREDICTED BY IDOCK:   -6.78 KCAL/MOL
REMARK 923 INTER-LIGAND FREE ENERGY PREDICTED BY IDOCK:   -6.10 KCAL/MOL
REMARK 924 INTRA-LIGAND FREE ENERGY PREDICTED BY IDOCK:   -0.68 KCAL/MOL
REMARK 927      BINDING AFFINITY PREDICTED BY RF-SCORE:    0.00 PKD
ROOT
HETATM    1  O   UNL     1      -7.593   9.592  69.977  1.00  0.00    -0.109 OA 
HETATM    2  N   UNL     1      -8.525   8.932  70.428  1.00  0.00    -0.148 N  
HETATM    3  O   UNL     1      -8.802   7.741  70.278  1.00  0.00    -0.142 OA 
HETATM    4  O   UNL     1      -9.394   9.699  71.249  1.00  0.00    -0.152 OA 
ENDROOT
BRANCH   4   5
HETATM    5  C   UNL     1     -10.491   8.934  71.748  1.00  0.00    -0.360 C  
BRANCH   5   6
HETATM    6  C   UNL     1     -11.743   9.217  70.879  1.00  0.00    -0.296 C  
BRANCH   6   7
HETATM    7  O   UNL     1     -12.970   8.732  71.451  1.00  0.00    -0.320 OA 
HETATM    8  O   UNL     1     -12.406   6.681  70.677  1.00  0.00    -0.340 OA 
HETATM    9  N   UNL     1     -13.224   7.346  71.309  1.00  0.00    -0.327 N  
HETATM   10  O   UNL     1     -14.242   6.986  71.892  1.00  0.00    -0.343 OA 
ENDBRANCH   6   7
BRANCH   6  11
HETATM   11  C   UNL     1     -11.856  10.690  70.397  1.00  0.00    -0.349 C  
BRANCH  11  12
HETATM   12  O   UNL     1     -12.223  10.685  69.013  1.00  0.00    -0.354 OA 
HETATM   13  O   UNL     1     -10.197  11.596  68.624  1.00  0.00    -0.209 OA 
HETATM   14  O   UNL     1     -11.288  10.481  67.028  1.00  0.00    -0.266 OA 
HETATM   15  N   UNL     1     -11.127  10.945  68.152  1.00  0.00    -0.257 N  
ENDBRANCH  11  12
BRANCH  11  16
HETATM   16  C   UNL     1     -12.850  11.527  71.230  1.00  0.00    -0.360 C  
BRANCH  16  17
HETATM   17  O   UNL     1     -12.647  12.924  71.029  1.00  0.00    -0.366 OA 
HETATM   18  N   UNL     1     -13.396  13.707  71.959  1.00  0.00    -0.421 N  
HETATM   19  O   UNL     1     -13.160  14.909  71.862  1.00  0.00    -0.304 OA 
HETATM   20  O   UNL     1     -14.169  13.106  72.700  1.00  0.00    -0.677 OA 
ENDBRANCH  16  17
ENDBRANCH  11  16
ENDBRANCH   6  11
ENDBRANCH   5   6
ENDBRANCH   4   5
TORSDOF 7
ENDMDL
MODEL      157
REMARK 921   NORMALIZED FREE ENERGY PREDICTED BY IDOCK:   -4.15 KCAL/MOL
REMARK 922        TOTAL FREE ENERGY PREDICTED BY IDOCK:   -6.78 KCAL/MOL
REMARK 923 INTER-LIGAND FREE ENERGY PREDICTED BY IDOCK:   -6.02 KCAL/MOL
REMARK 924 INTRA-LIGAND FREE ENERGY PREDICTED BY IDOCK:   -0.76 KCAL/MOL
REMARK 927      BINDING AFFINITY PREDICTED BY RF-SCORE:    0.00 PKD
ROOT
HETATM    1  O   UNL     1     -13.616  12.755  72.334  1.00  0.00    -0.565 OA 
HETATM    2  N   UNL     1     -13.208  11.692  71.875  1.00  0.00    -0.454 N  
HETATM    3  O   UNL     1     -13.393  10.537  72.260  1.00  0.00    -0.384 OA 
HETATM    4  O   UNL     1     -12.405  11.866  70.717  1.00  0.00    -0.374 OA 
ENDROOT
BRANCH   4   5
HETATM    5  C   UNL     1     -11.910  10.629  70.203  1.00  0.00    -0.337 C  
BRANCH   5   6
HETATM    6  C   UNL     1     -11.251  10.881  68.823  1.00  0.00    -0.270 C  
BRANCH   6   7
HETATM    7  O   UNL     1     -10.882  12.252  68.597  1.00  0.00    -0.221 OA 
HETATM    8  O   UNL     1     -12.155  12.183  66.725  1.00  0.00    -0.609 OA 
HETATM    9  N   UNL     1     -11.441  12.872  67.452  1.00  0.00    -0.315 N  
HETATM   10  O   UNL     1     -11.154  14.062  67.367  1.00  0.00    -0.290 OA 
ENDBRANCH   6   7
BRANCH   6  11
HETATM   11  C   UNL     1     -10.099   9.895  68.485  1.00  0.00    -0.168 C  
BRANCH  11  12
HETATM   12  O   UNL     1      -9.859   9.069  69.630  1.00  0.00    -0.169 OA 
HETATM   13  O   UNL     1      -7.961  10.255  69.905  1.00  0.00    -0.160 OA 
HETATM   14  O   UNL     1      -8.914   9.186  71.617  1.00  0.00    -0.336 OA 
HETATM   15  N   UNL     1      -8.814   9.558  70.452  1.00  0.00    -0.243 N  
ENDBRANCH  11  12
BRANCH  11  16
HETATM   16  C   UNL     1     -10.382   9.037  67.233  1.00  0.00    -0.273 C  
BRANCH  16  17
HETATM   17  O   UNL     1      -9.392   8.025  67.062  1.00  0.00    -0.141 OA 
HETATM   18  N   UNL     1      -9.978   6.739  66.863  1.00  0.00    -0.180 N  
HETATM   19  O   UNL     1      -9.142   5.872  66.618  1.00  0.00    -0.126 OA 
HETATM   20  O   UNL     1     -11.198   6.657  66.974  1.00  0.00    -0.404 OA 
ENDBRANCH  16  17
ENDBRANCH  11  16
ENDBRANCH   6  11
ENDBRANCH   5   6
ENDBRANCH   4   5
TORSDOF 7
ENDMDL
MODEL      158
REMARK 921   NORMALIZED FREE ENERGY PREDICTED BY IDOCK:   -4.13 KCAL/MOL
REMARK 922        TOTAL FREE ENERGY PREDICTED BY IDOCK:   -6.76 KCAL/MOL
REMARK 923 INTER-LIGAND FREE ENERGY PREDICTED BY IDOCK:   -5.99 KCAL/MOL
REMARK 924 INTRA-LIGAND FREE ENERGY PREDICTED BY IDOCK:   -0.77 KCAL/MOL
REMARK 927      BINDING AFFINITY PREDICTED BY RF-SCORE:    0.00 PKD
ROOT
HETATM    1  O   UNL     1     -11.456  16.569  63.981  1.00  0.00    -1.137 OA 
HETATM    2  N   UNL     1     -11.894  15.526  64.459  1.00  0.00    -0.299 N  
HETATM    3  O   UNL     1     -12.800  14.789  64.066  1.00  0.00    -0.697 OA 
HETATM    4  O   UNL     1     -11.222  15.143  65.650  1.00  0.00    -0.336 OA 
ENDROOT
BRANCH   4   5
HETATM    5  C   UNL     1     -11.754  13.946  66.217  1.00  0.00    -0.383 C  
BRANCH   5   6
HETATM    6  C   UNL     1     -10.651  12.856  66.228  1.00  0.00    -0.266 C  
BRANCH   6   7
HETATM    7  O   UNL     1      -9.791  12.889  65.075  1.00  0.00    -0.174 OA 
HETATM    8  O   UNL     1     -10.994  11.157  64.250  1.00  0.00    -0.341 OA 
HETATM    9  N   UNL     1     -10.074  11.948  64.055  1.00  0.00    -0.320 N  
HETATM   10  O   UNL     1      -9.357  12.087  63.068  1.00  0.00    -0.281 OA 
ENDBRANCH   6   7
BRANCH   6  11
HETATM   11  C   UNL     1      -9.854  12.777  67.559  1.00  0.00    -0.211 C  
BRANCH  11  12
HETATM   12  O   UNL     1      -9.011  11.621  67.514  1.00  0.00    -0.158 OA 
HETATM   13  O   UNL     1     -10.406  10.724  69.042  1.00  0.00    -0.197 OA 
HETATM   14  O   UNL     1      -9.148   9.432  67.727  1.00  0.00    -0.126 OA 
HETATM   15  N   UNL     1      -9.584  10.495  68.156  1.00  0.00    -0.151 N  
ENDBRANCH  11  12
BRANCH  11  16
HETATM   16  C   UNL     1      -9.033  14.051  67.851  1.00  0.00    -0.188 C  
BRANCH  16  17
HETATM   17  O   UNL     1      -7.909  13.764  68.681  1.00  0.00    -0.136 OA 
HETATM   18  N   UNL     1      -7.533  14.892  69.471  1.00  0.00    -0.181 N  
HETATM   19  O   UNL     1      -6.628  14.635  70.261  1.00  0.00    -0.182 OA 
HETATM   20  O   UNL     1      -8.126  15.947  69.259  1.00  0.00    -0.224 OA 
ENDBRANCH  16  17
ENDBRANCH  11  16
ENDBRANCH   6  11
ENDBRANCH   5   6
ENDBRANCH   4   5
TORSDOF 7
ENDMDL
MODEL      159
REMARK 921   NORMALIZED FREE ENERGY PREDICTED BY IDOCK:   -4.13 KCAL/MOL
REMARK 922        TOTAL FREE ENERGY PREDICTED BY IDOCK:   -6.76 KCAL/MOL
REMARK 923 INTER-LIGAND FREE ENERGY PREDICTED BY IDOCK:   -5.47 KCAL/MOL
REMARK 924 INTRA-LIGAND FREE ENERGY PREDICTED BY IDOCK:   -1.29 KCAL/MOL
REMARK 927      BINDING AFFINITY PREDICTED BY RF-SCORE:    0.00 PKD
ROOT
HETATM    1  O   UNL     1     -10.348   4.385  72.368  1.00  0.00    -0.183 OA 
HETATM    2  N   UNL     1     -10.100   5.573  72.555  1.00  0.00    -0.173 N  
HETATM    3  O   UNL     1      -9.023   6.142  72.735  1.00  0.00    -0.128 OA 
HETATM    4  O   UNL     1     -11.266   6.385  72.551  1.00  0.00    -0.253 OA 
ENDROOT
BRANCH   4   5
HETATM    5  C   UNL     1     -10.975   7.761  72.797  1.00  0.00    -0.388 C  
BRANCH   5   6
HETATM    6  C   UNL     1     -11.386   8.595  71.556  1.00  0.00    -0.289 C  
BRANCH   6   7
HETATM    7  O   UNL     1     -11.763   9.947  71.864  1.00  0.00    -0.252 OA 
HETATM    8  O   UNL     1     -13.907   9.337  71.472  1.00  0.00    -0.360 OA 
HETATM    9  N   UNL     1     -13.148  10.241  71.814  1.00  0.00    -0.446 N  
HETATM   10  O   UNL     1     -13.405  11.387  72.170  1.00  0.00    -0.469 OA 
ENDBRANCH   6   7
BRANCH   6  11
HETATM   11  C   UNL     1     -10.376   8.515  70.378  1.00  0.00    -0.202 C  
BRANCH  11  12
HETATM   12  O   UNL     1     -10.863   7.559  69.429  1.00  0.00    -0.224 OA 
HETATM   13  O   UNL     1      -8.779   6.696  69.451  1.00  0.00    -0.133 OA 
HETATM   14  O   UNL     1     -10.536   5.462  68.839  1.00  0.00    -0.211 OA 
HETATM   15  N   UNL     1      -9.969   6.477  69.230  1.00  0.00    -0.151 N  
ENDBRANCH  11  12
BRANCH  11  16
HETATM   16  C   UNL     1     -10.118   9.880  69.707  1.00  0.00    -0.242 C  
BRANCH  16  17
HETATM   17  O   UNL     1     -10.911  10.039  68.532  1.00  0.00    -0.232 OA 
HETATM   18  N   UNL     1     -11.509  11.334  68.470  1.00  0.00    -0.277 N  
HETATM   19  O   UNL     1     -12.118  11.522  67.419  1.00  0.00    -0.593 OA 
HETATM   20  O   UNL     1     -11.363  12.066  69.445  1.00  0.00    -0.261 OA 
ENDBRANCH  16  17
ENDBRANCH  11  16
ENDBRANCH   6  11
ENDBRANCH   5   6
ENDBRANCH   4   5
TORSDOF 7
ENDMDL
MODEL      160
REMARK 921   NORMALIZED FREE ENERGY PREDICTED BY IDOCK:   -4.13 KCAL/MOL
REMARK 922        TOTAL FREE ENERGY PREDICTED BY IDOCK:   -6.76 KCAL/MOL
REMARK 923 INTER-LIGAND FREE ENERGY PREDICTED BY IDOCK:   -5.79 KCAL/MOL
REMARK 924 INTRA-LIGAND FREE ENERGY PREDICTED BY IDOCK:   -0.96 KCAL/MOL
REMARK 927      BINDING AFFINITY PREDICTED BY RF-SCORE:    0.00 PKD
ROOT
HETATM    1  O   UNL     1     -13.142  10.212  70.510  1.00  0.00    -0.288 OA 
HETATM    2  N   UNL     1     -12.137  10.703  70.004  1.00  0.00    -0.313 N  
HETATM    3  O   UNL     1     -10.951  10.587  70.319  1.00  0.00    -0.292 OA 
HETATM    4  O   UNL     1     -12.430  11.522  68.882  1.00  0.00    -0.331 OA 
ENDROOT
BRANCH   4   5
HETATM    5  C   UNL     1     -11.260  12.113  68.316  1.00  0.00    -0.268 C  
BRANCH   5   6
HETATM    6  C   UNL     1     -11.353  12.038  66.770  1.00  0.00    -0.339 C  
BRANCH   6   7
HETATM    7  O   UNL     1     -11.489  13.320  66.133  1.00  0.00    -0.309 OA 
HETATM    8  O   UNL     1     -13.081  12.390  64.820  1.00  0.00    -0.806 OA 
HETATM    9  N   UNL     1     -12.464  13.413  65.110  1.00  0.00    -0.452 N  
HETATM   10  O   UNL     1     -12.586  14.552  64.670  1.00  0.00    -0.607 OA 
ENDBRANCH   6   7
BRANCH   6  11
HETATM   11  C   UNL     1     -10.249  11.164  66.113  1.00  0.00    -0.244 C  
BRANCH  11  12
HETATM   12  O   UNL     1      -9.595  11.944  65.106  1.00  0.00    -0.212 OA 
HETATM   13  O   UNL     1     -10.026  10.229  63.706  1.00  0.00    -0.262 OA 
HETATM   14  O   UNL     1      -9.682  12.294  62.932  1.00  0.00    -0.171 OA 
HETATM   15  N   UNL     1      -9.793  11.433  63.799  1.00  0.00    -0.290 N  
ENDBRANCH  11  12
BRANCH  11  16
HETATM   16  C   UNL     1      -9.231  10.607  67.130  1.00  0.00    -0.147 C  
BRANCH  16  17
HETATM   17  O   UNL     1      -9.470   9.227  67.400  1.00  0.00    -0.129 OA 
HETATM   18  N   UNL     1      -8.552   8.385  66.703  1.00  0.00    -0.117 N  
HETATM   19  O   UNL     1      -8.681   7.199  66.998  1.00  0.00    -0.119 OA 
HETATM   20  O   UNL     1      -7.787   8.927  65.910  1.00  0.00    -0.098 OA 
ENDBRANCH  16  17
ENDBRANCH  11  16
ENDBRANCH   6  11
ENDBRANCH   5   6
ENDBRANCH   4   5
TORSDOF 7
ENDMDL
MODEL      161
REMARK 921   NORMALIZED FREE ENERGY PREDICTED BY IDOCK:   -4.11 KCAL/MOL
REMARK 922        TOTAL FREE ENERGY PREDICTED BY IDOCK:   -6.73 KCAL/MOL
REMARK 923 INTER-LIGAND FREE ENERGY PREDICTED BY IDOCK:   -5.95 KCAL/MOL
REMARK 924 INTRA-LIGAND FREE ENERGY PREDICTED BY IDOCK:   -0.78 KCAL/MOL
REMARK 927      BINDING AFFINITY PREDICTED BY RF-SCORE:    0.00 PKD
ROOT
HETATM    1  O   UNL     1      -7.620  15.249  66.988  1.00  0.00    -0.205 OA 
HETATM    2  N   UNL     1      -7.848  14.074  67.264  1.00  0.00    -0.162 N  
HETATM    3  O   UNL     1      -7.183  13.267  67.915  1.00  0.00    -0.104 OA 
HETATM    4  O   UNL     1      -9.083  13.615  66.734  1.00  0.00    -0.247 OA 
ENDROOT
BRANCH   4   5
HETATM    5  C   UNL     1      -9.330  12.241  67.034  1.00  0.00    -0.205 C  
BRANCH   5   6
HETATM    6  C   UNL     1     -10.842  12.048  67.317  1.00  0.00    -0.246 C  
BRANCH   6   7
HETATM    7  O   UNL     1     -11.669  12.144  66.145  1.00  0.00    -0.452 OA 
HETATM    8  O   UNL     1     -12.320  14.180  66.891  1.00  0.00    -0.419 OA 
HETATM    9  N   UNL     1     -12.409  13.343  65.995  1.00  0.00    -0.429 N  
HETATM   10  O   UNL     1     -13.025  13.392  64.935  1.00  0.00    -0.717 OA 
ENDBRANCH   6   7
BRANCH   6  11
HETATM   11  C   UNL     1     -11.169  10.793  68.172  1.00  0.00    -0.302 C  
BRANCH  11  12
HETATM   12  O   UNL     1      -9.936  10.181  68.568  1.00  0.00    -0.154 OA 
HETATM   13  O   UNL     1     -10.534   8.459  67.240  1.00  0.00    -0.279 OA 
HETATM   14  O   UNL     1      -8.395   8.831  67.758  1.00  0.00    -0.117 OA 
HETATM   15  N   UNL     1      -9.601   9.055  67.775  1.00  0.00    -0.147 N  
ENDBRANCH  11  12
BRANCH  11  16
HETATM   16  C   UNL     1     -12.049  11.108  69.400  1.00  0.00    -0.326 C  
BRANCH  16  17
HETATM   17  O   UNL     1     -11.997  12.493  69.735  1.00  0.00    -0.314 OA 
HETATM   18  N   UNL     1     -12.565  12.749  71.019  1.00  0.00    -0.335 N  
HETATM   19  O   UNL     1     -12.442  13.922  71.365  1.00  0.00    -0.351 OA 
HETATM   20  O   UNL     1     -13.103  11.805  71.591  1.00  0.00    -0.441 OA 
ENDBRANCH  16  17
ENDBRANCH  11  16
ENDBRANCH   6  11
ENDBRANCH   5   6
ENDBRANCH   4   5
TORSDOF 7
ENDMDL
MODEL      162
REMARK 921   NORMALIZED FREE ENERGY PREDICTED BY IDOCK:   -4.09 KCAL/MOL
REMARK 922        TOTAL FREE ENERGY PREDICTED BY IDOCK:   -6.70 KCAL/MOL
REMARK 923 INTER-LIGAND FREE ENERGY PREDICTED BY IDOCK:   -5.88 KCAL/MOL
REMARK 924 INTRA-LIGAND FREE ENERGY PREDICTED BY IDOCK:   -0.82 KCAL/MOL
REMARK 927      BINDING AFFINITY PREDICTED BY RF-SCORE:    0.00 PKD
ROOT
HETATM    1  O   UNL     1      -8.038  16.125  66.420  1.00  0.00    -0.293 OA 
HETATM    2  N   UNL     1      -8.141  15.346  67.363  1.00  0.00    -0.164 N  
HETATM    3  O   UNL     1      -7.950  15.524  68.567  1.00  0.00    -0.127 OA 
HETATM    4  O   UNL     1      -8.552  14.047  66.961  1.00  0.00    -0.213 OA 
ENDROOT
BRANCH   4   5
HETATM    5  C   UNL     1      -8.643  13.138  68.058  1.00  0.00    -0.182 C  
BRANCH   5   6
HETATM    6  C   UNL     1     -10.117  12.685  68.219  1.00  0.00    -0.233 C  
BRANCH   6   7
HETATM    7  O   UNL     1     -11.026  13.760  68.512  1.00  0.00    -0.244 OA 
HETATM    8  O   UNL     1     -11.796  12.510  70.235  1.00  0.00    -0.317 OA 
HETATM    9  N   UNL     1     -11.873  13.579  69.633  1.00  0.00    -0.319 N  
HETATM   10  O   UNL     1     -12.560  14.566  69.875  1.00  0.00    -0.296 OA 
ENDBRANCH   6   7
BRANCH   6  11
HETATM   11  C   UNL     1     -10.627  11.774  67.069  1.00  0.00    -0.232 C  
BRANCH  11  12
HETATM   12  O   UNL     1     -11.047  10.527  67.633  1.00  0.00    -0.300 OA 
HETATM   13  O   UNL     1      -9.992   9.554  65.893  1.00  0.00    -0.291 OA 
HETATM   14  O   UNL     1     -10.359   8.439  67.792  1.00  0.00    -0.217 OA 
HETATM   15  N   UNL     1     -10.400   9.412  67.044  1.00  0.00    -0.253 N  
ENDBRANCH  11  12
BRANCH  11  16
HETATM   16  C   UNL     1     -11.761  12.418  66.243  1.00  0.00    -0.395 C  
BRANCH  16  17
HETATM   17  O   UNL     1     -11.252  13.394  65.336  1.00  0.00    -0.287 OA 
HETATM   18  N   UNL     1     -12.258  14.328  64.945  1.00  0.00    -0.425 N  
HETATM   19  O   UNL     1     -11.814  15.232  64.239  1.00  0.00    -0.384 OA 
HETATM   20  O   UNL     1     -13.403  14.112  65.332  1.00  0.00    -0.705 OA 
ENDBRANCH  16  17
ENDBRANCH  11  16
ENDBRANCH   6  11
ENDBRANCH   5   6
ENDBRANCH   4   5
TORSDOF 7
ENDMDL
MODEL      163
REMARK 921   NORMALIZED FREE ENERGY PREDICTED BY IDOCK:   -4.08 KCAL/MOL
REMARK 922        TOTAL FREE ENERGY PREDICTED BY IDOCK:   -6.69 KCAL/MOL
REMARK 923 INTER-LIGAND FREE ENERGY PREDICTED BY IDOCK:   -5.70 KCAL/MOL
REMARK 924 INTRA-LIGAND FREE ENERGY PREDICTED BY IDOCK:   -0.99 KCAL/MOL
REMARK 927      BINDING AFFINITY PREDICTED BY RF-SCORE:    0.00 PKD
ROOT
HETATM    1  O   UNL     1      -9.254   9.526  63.254  1.00  0.00    -0.205 OA 
HETATM    2  N   UNL     1      -9.120   9.882  64.421  1.00  0.00    -0.238 N  
HETATM    3  O   UNL     1      -8.707   9.257  65.400  1.00  0.00    -0.156 OA 
HETATM    4  O   UNL     1      -9.507  11.231  64.633  1.00  0.00    -0.226 OA 
ENDROOT
BRANCH   4   5
HETATM    5  C   UNL     1      -9.376  11.631  65.997  1.00  0.00    -0.227 C  
BRANCH   5   6
HETATM    6  C   UNL     1     -10.663  12.377  66.433  1.00  0.00    -0.247 C  
BRANCH   6   7
HETATM    7  O   UNL     1     -11.851  11.926  65.761  1.00  0.00    -0.435 OA 
HETATM    8  O   UNL     1     -11.856  13.902  64.655  1.00  0.00    -0.369 OA 
HETATM    9  N   UNL     1     -12.404  12.812  64.803  1.00  0.00    -0.459 N  
HETATM   10  O   UNL     1     -13.364  12.331  64.209  1.00  0.00    -0.777 OA 
ENDBRANCH   6   7
BRANCH   6  11
HETATM   11  C   UNL     1     -10.850  12.464  67.973  1.00  0.00    -0.221 C  
BRANCH  11  12
HETATM   12  O   UNL     1     -11.613  13.639  68.270  1.00  0.00    -0.295 OA 
HETATM   13  O   UNL     1      -9.694  14.500  69.086  1.00  0.00    -0.166 OA 
HETATM   14  O   UNL     1     -11.353  15.824  68.393  1.00  0.00    -0.344 OA 
HETATM   15  N   UNL     1     -10.802  14.750  68.612  1.00  0.00    -0.244 N  
ENDBRANCH  11  12
BRANCH  11  16
HETATM   16  C   UNL     1     -11.512  11.207  68.576  1.00  0.00    -0.302 C  
BRANCH  16  17
HETATM   17  O   UNL     1     -10.638  10.548  69.489  1.00  0.00    -0.224 OA 
HETATM   18  N   UNL     1     -10.205   9.283  68.988  1.00  0.00    -0.200 N  
HETATM   19  O   UNL     1      -9.376   8.744  69.717  1.00  0.00    -0.158 OA 
HETATM   20  O   UNL     1     -10.710   8.896  67.937  1.00  0.00    -0.210 OA 
ENDBRANCH  16  17
ENDBRANCH  11  16
ENDBRANCH   6  11
ENDBRANCH   5   6
ENDBRANCH   4   5
TORSDOF 7
ENDMDL
MODEL      164
REMARK 921   NORMALIZED FREE ENERGY PREDICTED BY IDOCK:   -4.08 KCAL/MOL
REMARK 922        TOTAL FREE ENERGY PREDICTED BY IDOCK:   -6.69 KCAL/MOL
REMARK 923 INTER-LIGAND FREE ENERGY PREDICTED BY IDOCK:   -5.81 KCAL/MOL
REMARK 924 INTRA-LIGAND FREE ENERGY PREDICTED BY IDOCK:   -0.88 KCAL/MOL
REMARK 927      BINDING AFFINITY PREDICTED BY RF-SCORE:    0.00 PKD
ROOT
HETATM    1  O   UNL     1      -9.449   7.254  68.816  1.00  0.00    -0.143 OA 
HETATM    2  N   UNL     1     -10.146   8.265  68.834  1.00  0.00    -0.194 N  
HETATM    3  O   UNL     1     -10.702   8.830  69.776  1.00  0.00    -0.228 OA 
HETATM    4  O   UNL     1     -10.306   8.843  67.547  1.00  0.00    -0.230 OA 
ENDROOT
BRANCH   4   5
HETATM    5  C   UNL     1     -11.140  10.002  67.569  1.00  0.00    -0.120 C  
BRANCH   5   6
HETATM    6  C   UNL     1     -10.503  11.102  66.681  1.00  0.00    -0.250 C  
BRANCH   6   7
HETATM    7  O   UNL     1     -10.718  10.907  65.272  1.00  0.00    -0.225 OA 
HETATM    8  O   UNL     1      -8.488  10.566  65.079  1.00  0.00    -0.173 OA 
HETATM    9  N   UNL     1      -9.572  10.600  64.499  1.00  0.00    -0.258 N  
HETATM   10  O   UNL     1      -9.839  10.364  63.325  1.00  0.00    -0.302 OA 
ENDBRANCH   6   7
BRANCH   6  11
HETATM   11  C   UNL     1     -10.832  12.550  67.136  1.00  0.00    -0.250 C  
BRANCH  11  12
HETATM   12  O   UNL     1     -12.198  12.828  66.809  1.00  0.00    -0.470 OA 
HETATM   13  O   UNL     1     -11.482  14.879  66.202  1.00  0.00    -0.341 OA 
HETATM   14  O   UNL     1     -13.374  14.024  65.380  1.00  0.00    -0.721 OA 
HETATM   15  N   UNL     1     -12.353  14.022  66.061  1.00  0.00    -0.469 N  
ENDBRANCH  11  12
BRANCH  11  16
HETATM   16  C   UNL     1     -10.562  12.791  68.636  1.00  0.00    -0.233 C  
BRANCH  16  17
HETATM   17  O   UNL     1     -11.777  12.984  69.358  1.00  0.00    -0.295 OA 
HETATM   18  N   UNL     1     -11.856  14.295  69.919  1.00  0.00    -0.303 N  
HETATM   19  O   UNL     1     -12.936  14.511  70.463  1.00  0.00    -0.350 OA 
HETATM   20  O   UNL     1     -10.864  15.010  69.811  1.00  0.00    -0.256 OA 
ENDBRANCH  16  17
ENDBRANCH  11  16
ENDBRANCH   6  11
ENDBRANCH   5   6
ENDBRANCH   4   5
TORSDOF 7
ENDMDL
MODEL      165
REMARK 921   NORMALIZED FREE ENERGY PREDICTED BY IDOCK:   -4.07 KCAL/MOL
REMARK 922        TOTAL FREE ENERGY PREDICTED BY IDOCK:   -6.68 KCAL/MOL
REMARK 923 INTER-LIGAND FREE ENERGY PREDICTED BY IDOCK:   -5.88 KCAL/MOL
REMARK 924 INTRA-LIGAND FREE ENERGY PREDICTED BY IDOCK:   -0.80 KCAL/MOL
REMARK 927      BINDING AFFINITY PREDICTED BY RF-SCORE:    0.00 PKD
ROOT
HETATM    1  O   UNL     1      -6.787  18.967  64.984  1.00  0.00    -0.478 OA 
HETATM    2  N   UNL     1      -6.948  17.919  65.604  1.00  0.00    -0.195 N  
HETATM    3  O   UNL     1      -6.119  17.124  66.049  1.00  0.00    -0.209 OA 
HETATM    4  O   UNL     1      -8.317  17.616  65.824  1.00  0.00    -0.537 OA 
ENDROOT
BRANCH   4   5
HETATM    5  C   UNL     1      -8.499  16.383  66.521  1.00  0.00    -0.301 C  
BRANCH   5   6
HETATM    6  C   UNL     1      -9.207  16.664  67.871  1.00  0.00    -0.219 C  
BRANCH   6   7
HETATM    7  O   UNL     1     -10.172  17.728  67.811  1.00  0.00    -0.327 OA 
HETATM    8  O   UNL     1      -8.663  19.024  68.894  1.00  0.00    -0.331 OA 
HETATM    9  N   UNL     1      -9.774  18.968  68.369  1.00  0.00    -0.359 N  
HETATM   10  O   UNL     1     -10.609  19.852  68.209  1.00  0.00    -0.376 OA 
ENDBRANCH   6   7
BRANCH   6  11
HETATM   11  C   UNL     1      -9.770  15.392  68.564  1.00  0.00    -0.204 C  
BRANCH  11  12
HETATM   12  O   UNL     1     -11.199  15.477  68.572  1.00  0.00    -0.295 OA 
HETATM   13  O   UNL     1     -11.090  14.645  70.666  1.00  0.00    -0.135 OA 
HETATM   14  O   UNL     1     -12.854  15.832  69.984  1.00  0.00    -0.225 OA 
HETATM   15  N   UNL     1     -11.754  15.301  69.865  1.00  0.00    -0.299 N  
ENDBRANCH  11  12
BRANCH  11  16
HETATM   16  C   UNL     1      -9.296  14.080  67.904  1.00  0.00    -0.206 C  
BRANCH  16  17
HETATM   17  O   UNL     1     -10.366  13.427  67.223  1.00  0.00    -0.242 OA 
HETATM   18  N   UNL     1     -10.880  12.329  67.977  1.00  0.00    -0.211 N  
HETATM   19  O   UNL     1     -11.863  11.813  67.450  1.00  0.00    -0.590 OA 
HETATM   20  O   UNL     1     -10.286  12.033  69.010  1.00  0.00    -0.143 OA 
ENDBRANCH  16  17
ENDBRANCH  11  16
ENDBRANCH   6  11
ENDBRANCH   5   6
ENDBRANCH   4   5
TORSDOF 7
ENDMDL
MODEL      166
REMARK 921   NORMALIZED FREE ENERGY PREDICTED BY IDOCK:   -4.07 KCAL/MOL
REMARK 922        TOTAL FREE ENERGY PREDICTED BY IDOCK:   -6.67 KCAL/MOL
REMARK 923 INTER-LIGAND FREE ENERGY PREDICTED BY IDOCK:   -6.05 KCAL/MOL
REMARK 924 INTRA-LIGAND FREE ENERGY PREDICTED BY IDOCK:   -0.62 KCAL/MOL
REMARK 927      BINDING AFFINITY PREDICTED BY RF-SCORE:    0.00 PKD
ROOT
HETATM    1  O   UNL     1     -12.755  12.073  71.697  1.00  0.00    -0.307 OA 
HETATM    2  N   UNL     1     -12.496  11.575  70.605  1.00  0.00    -0.334 N  
HETATM    3  O   UNL     1     -12.506  10.397  70.245  1.00  0.00    -0.282 OA 
HETATM    4  O   UNL     1     -12.140  12.545  69.630  1.00  0.00    -0.279 OA 
ENDROOT
BRANCH   4   5
HETATM    5  C   UNL     1     -11.813  11.959  68.370  1.00  0.00    -0.289 C  
BRANCH   5   6
HETATM    6  C   UNL     1     -10.562  12.668  67.790  1.00  0.00    -0.220 C  
BRANCH   6   7
HETATM    7  O   UNL     1      -9.398  11.828  67.721  1.00  0.00    -0.171 OA 
HETATM    8  O   UNL     1      -8.219  13.557  68.584  1.00  0.00    -0.130 OA 
HETATM    9  N   UNL     1      -8.188  12.391  68.195  1.00  0.00    -0.165 N  
HETATM   10  O   UNL     1      -7.255  11.593  68.185  1.00  0.00    -0.076 OA 
ENDBRANCH   6   7
BRANCH   6  11
HETATM   11  C   UNL     1     -10.827  13.426  66.460  1.00  0.00    -0.282 C  
BRANCH  11  12
HETATM   12  O   UNL     1     -11.554  12.560  65.583  1.00  0.00    -0.350 OA 
HETATM   13  O   UNL     1     -10.060  13.149  64.000  1.00  0.00    -0.356 OA 
HETATM   14  O   UNL     1     -11.203  11.237  63.856  1.00  0.00    -0.356 OA 
HETATM   15  N   UNL     1     -10.866  12.298  64.372  1.00  0.00    -0.307 N  
ENDBRANCH  11  12
BRANCH  11  16
HETATM   16  C   UNL     1     -11.571  14.763  66.661  1.00  0.00    -0.313 C  
BRANCH  16  17
HETATM   17  O   UNL     1     -10.658  15.839  66.869  1.00  0.00    -0.312 OA 
HETATM   18  N   UNL     1     -10.422  16.573  65.668  1.00  0.00    -0.361 N  
HETATM   19  O   UNL     1      -9.713  17.560  65.849  1.00  0.00    -0.513 OA 
HETATM   20  O   UNL     1     -10.923  16.133  64.636  1.00  0.00    -0.642 OA 
ENDBRANCH  16  17
ENDBRANCH  11  16
ENDBRANCH   6  11
ENDBRANCH   5   6
ENDBRANCH   4   5
TORSDOF 7
ENDMDL
MODEL      167
REMARK 921   NORMALIZED FREE ENERGY PREDICTED BY IDOCK:   -4.03 KCAL/MOL
REMARK 922        TOTAL FREE ENERGY PREDICTED BY IDOCK:   -6.63 KCAL/MOL
REMARK 923 INTER-LIGAND FREE ENERGY PREDICTED BY IDOCK:   -5.69 KCAL/MOL
REMARK 924 INTRA-LIGAND FREE ENERGY PREDICTED BY IDOCK:   -0.94 KCAL/MOL
REMARK 927      BINDING AFFINITY PREDICTED BY RF-SCORE:    0.00 PKD
ROOT
HETATM    1  O   UNL     1     -11.771  11.918  62.970  1.00  0.00    -0.211 OA 
HETATM    2  N   UNL     1     -10.925  12.056  63.849  1.00  0.00    -0.362 N  
HETATM    3  O   UNL     1      -9.903  12.744  63.868  1.00  0.00    -0.267 OA 
HETATM    4  O   UNL     1     -11.208  11.289  65.010  1.00  0.00    -0.154 OA 
ENDROOT
BRANCH   4   5
HETATM    5  C   UNL     1     -10.207  11.432  66.018  1.00  0.00    -0.245 C  
BRANCH   5   6
HETATM    6  C   UNL     1     -10.879  11.880  67.341  1.00  0.00    -0.243 C  
BRANCH   6   7
HETATM    7  O   UNL     1     -10.242  11.361  68.521  1.00  0.00    -0.195 OA 
HETATM    8  O   UNL     1     -12.300  10.761  69.250  1.00  0.00    -0.368 OA 
HETATM    9  N   UNL     1     -11.092  10.756  69.480  1.00  0.00    -0.258 N  
HETATM   10  O   UNL     1     -10.475  10.262  70.418  1.00  0.00    -0.247 OA 
ENDBRANCH   6   7
BRANCH   6  11
HETATM   11  C   UNL     1     -11.140  13.409  67.432  1.00  0.00    -0.278 C  
BRANCH  11  12
HETATM   12  O   UNL     1     -12.432  13.681  66.878  1.00  0.00    -0.320 OA 
HETATM   13  O   UNL     1     -11.382  15.157  65.534  1.00  0.00    -0.338 OA 
HETATM   14  O   UNL     1     -13.349  14.268  64.962  1.00  0.00    -0.509 OA 
HETATM   15  N   UNL     1     -12.369  14.438  65.682  1.00  0.00    -0.371 N  
ENDBRANCH  11  12
BRANCH  11  16
HETATM   16  C   UNL     1     -11.026  13.960  68.869  1.00  0.00    -0.263 C  
BRANCH  16  17
HETATM   17  O   UNL     1     -11.440  15.323  68.936  1.00  0.00    -0.293 OA 
HETATM   18  N   UNL     1     -10.349  16.218  68.724  1.00  0.00    -0.245 N  
HETATM   19  O   UNL     1     -10.704  17.394  68.684  1.00  0.00    -0.335 OA 
HETATM   20  O   UNL     1      -9.228  15.723  68.631  1.00  0.00    -0.189 OA 
ENDBRANCH  16  17
ENDBRANCH  11  16
ENDBRANCH   6  11
ENDBRANCH   5   6
ENDBRANCH   4   5
TORSDOF 7
ENDMDL
MODEL      168
REMARK 921   NORMALIZED FREE ENERGY PREDICTED BY IDOCK:   -4.02 KCAL/MOL
REMARK 922        TOTAL FREE ENERGY PREDICTED BY IDOCK:   -6.60 KCAL/MOL
REMARK 923 INTER-LIGAND FREE ENERGY PREDICTED BY IDOCK:   -6.43 KCAL/MOL
REMARK 924 INTRA-LIGAND FREE ENERGY PREDICTED BY IDOCK:   -0.17 KCAL/MOL
REMARK 927      BINDING AFFINITY PREDICTED BY RF-SCORE:    0.00 PKD
ROOT
HETATM    1  O   UNL     1     -10.571  20.179  69.184  1.00  0.00    -0.133 OA 
HETATM    2  N   UNL     1     -10.354  19.540  68.157  1.00  0.00    -0.437 N  
HETATM    3  O   UNL     1     -10.083  19.931  67.020  1.00  0.00    -0.389 OA 
HETATM    4  O   UNL     1     -10.434  18.137  68.356  1.00  0.00    -0.359 OA 
ENDROOT
BRANCH   4   5
HETATM    5  C   UNL     1     -10.209  17.400  67.154  1.00  0.00    -0.323 C  
BRANCH   5   6
HETATM    6  C   UNL     1     -10.636  15.927  67.375  1.00  0.00    -0.315 C  
BRANCH   6   7
HETATM    7  O   UNL     1     -10.257  15.045  66.304  1.00  0.00    -0.271 OA 
HETATM    8  O   UNL     1     -12.392  14.294  66.297  1.00  0.00    -0.443 OA 
HETATM    9  N   UNL     1     -11.281  14.222  65.776  1.00  0.00    -0.312 N  
HETATM   10  O   UNL     1     -10.910  13.559  64.812  1.00  0.00    -0.337 OA 
ENDBRANCH   6   7
BRANCH   6  11
HETATM   11  C   UNL     1     -10.255  15.361  68.771  1.00  0.00    -0.217 C  
BRANCH  11  12
HETATM   12  O   UNL     1      -9.186  16.152  69.303  1.00  0.00    -0.255 OA 
HETATM   13  O   UNL     1      -7.859  14.378  68.877  1.00  0.00    -0.138 OA 
HETATM   14  O   UNL     1      -7.017  16.439  69.039  1.00  0.00    -0.174 OA 
HETATM   15  N   UNL     1      -7.908  15.596  69.043  1.00  0.00    -0.186 N  
ENDBRANCH  11  12
BRANCH  11  16
HETATM   16  C   UNL     1     -11.446  15.311  69.751  1.00  0.00    -0.313 C  
BRANCH  16  17
HETATM   17  O   UNL     1     -11.120  15.925  70.996  1.00  0.00    -0.330 OA 
HETATM   18  N   UNL     1     -12.270  16.072  71.830  1.00  0.00    -0.483 N  
HETATM   19  O   UNL     1     -11.992  16.511  72.944  1.00  0.00    -0.536 OA 
HETATM   20  O   UNL     1     -13.356  15.771  71.343  1.00  0.00    -0.484 OA 
ENDBRANCH  16  17
ENDBRANCH  11  16
ENDBRANCH   6  11
ENDBRANCH   5   6
ENDBRANCH   4   5
TORSDOF 7
ENDMDL
MODEL      169
REMARK 921   NORMALIZED FREE ENERGY PREDICTED BY IDOCK:   -4.02 KCAL/MOL
REMARK 922        TOTAL FREE ENERGY PREDICTED BY IDOCK:   -6.60 KCAL/MOL
REMARK 923 INTER-LIGAND FREE ENERGY PREDICTED BY IDOCK:   -5.58 KCAL/MOL
REMARK 924 INTRA-LIGAND FREE ENERGY PREDICTED BY IDOCK:   -1.02 KCAL/MOL
REMARK 927      BINDING AFFINITY PREDICTED BY RF-SCORE:    0.00 PKD
ROOT
HETATM    1  O   UNL     1     -12.258   7.390  70.856  1.00  0.00    -0.298 OA 
HETATM    2  N   UNL     1     -11.227   7.892  70.417  1.00  0.00    -0.261 N  
HETATM    3  O   UNL     1     -10.131   7.380  70.181  1.00  0.00    -0.194 OA 
HETATM    4  O   UNL     1     -11.363   9.279  70.148  1.00  0.00    -0.240 OA 
ENDROOT
BRANCH   4   5
HETATM    5  C   UNL     1     -10.153   9.864  69.664  1.00  0.00    -0.230 C  
BRANCH   5   6
HETATM    6  C   UNL     1     -10.488  10.829  68.498  1.00  0.00    -0.187 C  
BRANCH   6   7
HETATM    7  O   UNL     1      -9.938  12.147  68.659  1.00  0.00    -0.202 OA 
HETATM    8  O   UNL     1     -12.056  12.888  68.966  1.00  0.00    -0.267 OA 
HETATM    9  N   UNL     1     -10.863  13.185  68.932  1.00  0.00    -0.232 N  
HETATM   10  O   UNL     1     -10.319  14.265  69.141  1.00  0.00    -0.213 OA 
ENDBRANCH   6   7
BRANCH   6  11
HETATM   11  C   UNL     1     -10.208  10.238  67.089  1.00  0.00    -0.225 C  
BRANCH  11  12
HETATM   12  O   UNL     1     -11.081   9.121  66.885  1.00  0.00     0.078 OA 
HETATM   13  O   UNL     1      -9.228   7.964  66.323  1.00  0.00    -0.181 OA 
HETATM   14  O   UNL     1     -11.064   6.924  67.051  1.00  0.00    -0.389 OA 
HETATM   15  N   UNL     1     -10.382   7.896  66.742  1.00  0.00    -0.316 N  
ENDBRANCH  11  12
BRANCH  11  16
HETATM   16  C   UNL     1     -10.360  11.274  65.955  1.00  0.00    -0.253 C  
BRANCH  16  17
HETATM   17  O   UNL     1     -11.676  11.824  65.928  1.00  0.00    -0.397 OA 
HETATM   18  N   UNL     1     -12.110  12.092  64.595  1.00  0.00    -0.345 N  
HETATM   19  O   UNL     1     -13.276  12.477  64.546  1.00  0.00    -0.832 OA 
HETATM   20  O   UNL     1     -11.289  11.931  63.696  1.00  0.00    -0.402 OA 
ENDBRANCH  16  17
ENDBRANCH  11  16
ENDBRANCH   6  11
ENDBRANCH   5   6
ENDBRANCH   4   5
TORSDOF 7
ENDMDL
MODEL      170
REMARK 921   NORMALIZED FREE ENERGY PREDICTED BY IDOCK:   -4.01 KCAL/MOL
REMARK 922        TOTAL FREE ENERGY PREDICTED BY IDOCK:   -6.59 KCAL/MOL
REMARK 923 INTER-LIGAND FREE ENERGY PREDICTED BY IDOCK:   -5.69 KCAL/MOL
REMARK 924 INTRA-LIGAND FREE ENERGY PREDICTED BY IDOCK:   -0.89 KCAL/MOL
REMARK 927      BINDING AFFINITY PREDICTED BY RF-SCORE:    0.00 PKD
ROOT
HETATM    1  O   UNL     1      -9.850   7.641  67.842  1.00  0.00    -0.147 OA 
HETATM    2  N   UNL     1     -10.390   8.651  68.286  1.00  0.00    -0.212 N  
HETATM    3  O   UNL     1     -10.745   8.923  69.434  1.00  0.00    -0.228 OA 
HETATM    4  O   UNL     1     -10.618   9.636  67.289  1.00  0.00    -0.258 OA 
ENDROOT
BRANCH   4   5
HETATM    5  C   UNL     1     -11.271  10.796  67.806  1.00  0.00    -0.316 C  
BRANCH   5   6
HETATM    6  C   UNL     1     -11.056  11.977  66.824  1.00  0.00    -0.305 C  
BRANCH   6   7
HETATM    7  O   UNL     1     -12.219  12.303  66.044  1.00  0.00    -0.646 OA 
HETATM    8  O   UNL     1     -10.932  12.051  64.199  1.00  0.00    -0.306 OA 
HETATM    9  N   UNL     1     -12.055  12.293  64.637  1.00  0.00    -0.391 N  
HETATM   10  O   UNL     1     -13.104  12.495  64.034  1.00  0.00    -0.741 OA 
ENDBRANCH   6   7
BRANCH   6  11
HETATM   11  C   UNL     1     -10.410  13.230  67.477  1.00  0.00    -0.229 C  
BRANCH  11  12
HETATM   12  O   UNL     1     -10.592  13.147  68.894  1.00  0.00    -0.216 OA 
HETATM   13  O   UNL     1     -11.866  14.997  68.692  1.00  0.00    -0.327 OA 
HETATM   14  O   UNL     1     -12.110  13.610  70.423  1.00  0.00    -0.332 OA 
HETATM   15  N   UNL     1     -11.620  14.000  69.368  1.00  0.00    -0.278 N  
ENDBRANCH  11  12
BRANCH  11  16
HETATM   16  C   UNL     1      -8.918  13.399  67.119  1.00  0.00    -0.226 C  
BRANCH  16  17
HETATM   17  O   UNL     1      -8.094  13.322  68.280  1.00  0.00    -0.145 OA 
HETATM   18  N   UNL     1      -7.520  14.588  68.607  1.00  0.00    -0.121 N  
HETATM   19  O   UNL     1      -6.884  14.561  69.658  1.00  0.00    -0.146 OA 
HETATM   20  O   UNL     1      -7.709  15.508  67.816  1.00  0.00    -0.123 OA 
ENDBRANCH  16  17
ENDBRANCH  11  16
ENDBRANCH   6  11
ENDBRANCH   5   6
ENDBRANCH   4   5
TORSDOF 7
ENDMDL
MODEL      171
REMARK 921   NORMALIZED FREE ENERGY PREDICTED BY IDOCK:   -4.01 KCAL/MOL
REMARK 922        TOTAL FREE ENERGY PREDICTED BY IDOCK:   -6.58 KCAL/MOL
REMARK 923 INTER-LIGAND FREE ENERGY PREDICTED BY IDOCK:   -5.64 KCAL/MOL
REMARK 924 INTRA-LIGAND FREE ENERGY PREDICTED BY IDOCK:   -0.94 KCAL/MOL
REMARK 927      BINDING AFFINITY PREDICTED BY RF-SCORE:    0.00 PKD
ROOT
HETATM    1  O   UNL     1     -13.208  12.115  63.617  1.00  0.00    -0.770 OA 
HETATM    2  N   UNL     1     -12.795  12.891  64.475  1.00  0.00    -0.267 N  
HETATM    3  O   UNL     1     -12.757  14.122  64.482  1.00  0.00    -0.656 OA 
HETATM    4  O   UNL     1     -12.296  12.223  65.624  1.00  0.00    -0.619 OA 
ENDROOT
BRANCH   4   5
HETATM    5  C   UNL     1     -11.792  13.128  66.607  1.00  0.00    -0.391 C  
BRANCH   5   6
HETATM    6  C   UNL     1     -10.349  12.709  66.988  1.00  0.00    -0.232 C  
BRANCH   6   7
HETATM    7  O   UNL     1      -9.796  11.690  66.138  1.00  0.00    -0.210 OA 
HETATM    8  O   UNL     1     -10.014  10.258  67.878  1.00  0.00    -0.158 OA 
HETATM    9  N   UNL     1      -9.679  10.396  66.704  1.00  0.00    -0.183 N  
HETATM   10  O   UNL     1      -9.280   9.560  65.900  1.00  0.00    -0.174 OA 
ENDBRANCH   6   7
BRANCH   6  11
HETATM   11  C   UNL     1      -9.377  13.905  67.189  1.00  0.00    -0.243 C  
BRANCH  11  12
HETATM   12  O   UNL     1      -9.975  14.825  68.108  1.00  0.00    -0.214 OA 
HETATM   13  O   UNL     1      -9.380  16.441  66.651  1.00  0.00    -0.231 OA 
HETATM   14  O   UNL     1     -11.050  16.748  68.100  1.00  0.00    -0.363 OA 
HETATM   15  N   UNL     1     -10.147  16.120  67.558  1.00  0.00    -0.251 N  
ENDBRANCH  11  12
BRANCH  11  16
HETATM   16  C   UNL     1      -7.976  13.474  67.670  1.00  0.00    -0.176 C  
BRANCH  16  17
HETATM   17  O   UNL     1      -7.687  13.998  68.964  1.00  0.00    -0.103 OA 
HETATM   18  N   UNL     1      -6.692  15.020  68.911  1.00  0.00    -0.095 N  
HETATM   19  O   UNL     1      -6.500  15.550  70.003  1.00  0.00    -0.163 OA 
HETATM   20  O   UNL     1      -6.156  15.223  67.825  1.00  0.00    -0.144 OA 
ENDBRANCH  16  17
ENDBRANCH  11  16
ENDBRANCH   6  11
ENDBRANCH   5   6
ENDBRANCH   4   5
TORSDOF 7
ENDMDL
MODEL      172
REMARK 921   NORMALIZED FREE ENERGY PREDICTED BY IDOCK:   -3.98 KCAL/MOL
REMARK 922        TOTAL FREE ENERGY PREDICTED BY IDOCK:   -6.55 KCAL/MOL
REMARK 923 INTER-LIGAND FREE ENERGY PREDICTED BY IDOCK:   -5.72 KCAL/MOL
REMARK 924 INTRA-LIGAND FREE ENERGY PREDICTED BY IDOCK:   -0.83 KCAL/MOL
REMARK 927      BINDING AFFINITY PREDICTED BY RF-SCORE:    0.00 PKD
ROOT
HETATM    1  O   UNL     1     -10.179   7.421  67.453  1.00  0.00    -0.198 OA 
HETATM    2  N   UNL     1     -10.558   8.491  67.923  1.00  0.00    -0.196 N  
HETATM    3  O   UNL     1     -11.018   8.751  69.036  1.00  0.00    -0.089 OA 
HETATM    4  O   UNL     1     -10.422   9.570  67.011  1.00  0.00    -0.249 OA 
ENDROOT
BRANCH   4   5
HETATM    5  C   UNL     1     -10.889  10.806  67.553  1.00  0.00    -0.288 C  
BRANCH   5   6
HETATM    6  C   UNL     1     -10.856  11.890  66.445  1.00  0.00    -0.279 C  
BRANCH   6   7
HETATM    7  O   UNL     1     -12.128  12.116  65.816  1.00  0.00    -0.572 OA 
HETATM    8  O   UNL     1     -11.140  11.583  63.850  1.00  0.00    -0.372 OA 
HETATM    9  N   UNL     1     -12.184  11.901  64.416  1.00  0.00    -0.239 N  
HETATM   10  O   UNL     1     -13.315  12.030  63.960  1.00  0.00    -0.703 OA 
ENDBRANCH   6   7
BRANCH   6  11
HETATM   11  C   UNL     1     -10.165  13.213  66.877  1.00  0.00    -0.245 C  
BRANCH  11  12
HETATM   12  O   UNL     1      -8.781  13.139  66.516  1.00  0.00    -0.073 OA 
HETATM   13  O   UNL     1      -8.352  13.956  68.574  1.00  0.00    -0.155 OA 
HETATM   14  O   UNL     1      -6.817  12.787  67.451  1.00  0.00    -0.152 OA 
HETATM   15  N   UNL     1      -7.913  13.311  67.623  1.00  0.00    -0.162 N  
ENDBRANCH  11  12
BRANCH  11  16
HETATM   16  C   UNL     1     -10.828  14.469  66.274  1.00  0.00    -0.317 C  
BRANCH  16  17
HETATM   17  O   UNL     1      -9.878  15.276  65.581  1.00  0.00    -0.333 OA 
HETATM   18  N   UNL     1      -9.744  16.565  66.178  1.00  0.00    -0.306 N  
HETATM   19  O   UNL     1      -8.861  17.239  65.652  1.00  0.00    -0.476 OA 
HETATM   20  O   UNL     1     -10.512  16.840  67.096  1.00  0.00    -0.317 OA 
ENDBRANCH  16  17
ENDBRANCH  11  16
ENDBRANCH   6  11
ENDBRANCH   5   6
ENDBRANCH   4   5
TORSDOF 7
ENDMDL
MODEL      173
REMARK 921   NORMALIZED FREE ENERGY PREDICTED BY IDOCK:   -3.98 KCAL/MOL
REMARK 922        TOTAL FREE ENERGY PREDICTED BY IDOCK:   -6.54 KCAL/MOL
REMARK 923 INTER-LIGAND FREE ENERGY PREDICTED BY IDOCK:   -5.70 KCAL/MOL
REMARK 924 INTRA-LIGAND FREE ENERGY PREDICTED BY IDOCK:   -0.84 KCAL/MOL
REMARK 927      BINDING AFFINITY PREDICTED BY RF-SCORE:    0.00 PKD
ROOT
HETATM    1  O   UNL     1      -8.620   8.934  64.682  1.00  0.00    -0.175 OA 
HETATM    2  N   UNL     1      -9.250   9.979  64.542  1.00  0.00    -0.243 N  
HETATM    3  O   UNL     1      -9.217  10.811  63.634  1.00  0.00    -0.213 OA 
HETATM    4  O   UNL     1     -10.148  10.227  65.613  1.00  0.00    -0.273 OA 
ENDROOT
BRANCH   4   5
HETATM    5  C   UNL     1     -10.858  11.456  65.459  1.00  0.00    -0.220 C  
BRANCH   5   6
HETATM    6  C   UNL     1     -10.891  12.196  66.821  1.00  0.00    -0.248 C  
BRANCH   6   7
HETATM    7  O   UNL     1     -10.233  11.486  67.884  1.00  0.00    -0.177 OA 
HETATM    8  O   UNL     1     -12.284  11.074  68.748  1.00  0.00    -0.546 OA 
HETATM    9  N   UNL     1     -11.073  10.897  68.861  1.00  0.00    -0.230 N  
HETATM   10  O   UNL     1     -10.451  10.238  69.688  1.00  0.00    -0.226 OA 
ENDBRANCH   6   7
BRANCH   6  11
HETATM   11  C   UNL     1     -10.453  13.684  66.742  1.00  0.00    -0.270 C  
BRANCH  11  12
HETATM   12  O   UNL     1      -9.118  13.736  66.229  1.00  0.00    -0.138 OA 
HETATM   13  O   UNL     1      -8.635  15.016  68.023  1.00  0.00    -0.151 OA 
HETATM   14  O   UNL     1      -7.042  13.871  66.957  1.00  0.00    -0.001 OA 
HETATM   15  N   UNL     1      -8.189  14.256  67.164  1.00  0.00    -0.189 N  
ENDBRANCH  11  12
BRANCH  11  16
HETATM   16  C   UNL     1     -11.407  14.553  65.894  1.00  0.00    -0.341 C  
BRANCH  16  17
HETATM   17  O   UNL     1     -10.905  15.880  65.746  1.00  0.00    -0.314 OA 
HETATM   18  N   UNL     1     -11.453  16.527  64.598  1.00  0.00    -0.179 N  
HETATM   19  O   UNL     1     -11.106  17.703  64.508  1.00  0.00    -0.784 OA 
HETATM   20  O   UNL     1     -12.161  15.849  63.858  1.00  0.00    -0.785 OA 
ENDBRANCH  16  17
ENDBRANCH  11  16
ENDBRANCH   6  11
ENDBRANCH   5   6
ENDBRANCH   4   5
TORSDOF 7
ENDMDL
MODEL      174
REMARK 921   NORMALIZED FREE ENERGY PREDICTED BY IDOCK:   -3.98 KCAL/MOL
REMARK 922        TOTAL FREE ENERGY PREDICTED BY IDOCK:   -6.54 KCAL/MOL
REMARK 923 INTER-LIGAND FREE ENERGY PREDICTED BY IDOCK:   -5.68 KCAL/MOL
REMARK 924 INTRA-LIGAND FREE ENERGY PREDICTED BY IDOCK:   -0.86 KCAL/MOL
REMARK 927      BINDING AFFINITY PREDICTED BY RF-SCORE:    0.00 PKD
ROOT
HETATM    1  O   UNL     1     -13.294  11.076  72.045  1.00  0.00    -0.455 OA 
HETATM    2  N   UNL     1     -12.634  10.327  71.329  1.00  0.00    -0.380 N  
HETATM    3  O   UNL     1     -12.731   9.113  71.146  1.00  0.00    -0.295 OA 
HETATM    4  O   UNL     1     -11.613  11.009  70.615  1.00  0.00    -0.312 OA 
ENDROOT
BRANCH   4   5
HETATM    5  C   UNL     1     -10.831  10.129  69.807  1.00  0.00    -0.279 C  
BRANCH   5   6
HETATM    6  C   UNL     1      -9.812  10.964  68.989  1.00  0.00    -0.180 C  
BRANCH   6   7
HETATM    7  O   UNL     1      -8.862  10.169  68.260  1.00  0.00    -0.121 OA 
HETATM    8  O   UNL     1      -7.231  11.253  69.396  1.00  0.00    -0.118 OA 
HETATM    9  N   UNL     1      -7.496  10.383  68.569  1.00  0.00    -0.086 N  
HETATM   10  O   UNL     1      -6.747   9.614  67.974  1.00  0.00    -0.061 OA 
ENDBRANCH   6   7
BRANCH   6  11
HETATM   11  C   UNL     1     -10.462  12.066  68.108  1.00  0.00    -0.202 C  
BRANCH  11  12
HETATM   12  O   UNL     1      -9.501  13.108  67.905  1.00  0.00    -0.203 OA 
HETATM   13  O   UNL     1     -11.203  14.546  68.257  1.00  0.00    -0.256 OA 
HETATM   14  O   UNL     1      -9.083  15.163  68.583  1.00  0.00    -0.179 OA 
HETATM   15  N   UNL     1      -9.984  14.385  68.287  1.00  0.00    -0.226 N  
ENDBRANCH  11  12
BRANCH  11  16
HETATM   16  C   UNL     1     -10.992  11.532  66.761  1.00  0.00    -0.294 C  
BRANCH  16  17
HETATM   17  O   UNL     1     -12.253  12.113  66.432  1.00  0.00    -0.592 OA 
HETATM   18  N   UNL     1     -12.144  13.035  65.348  1.00  0.00    -0.417 N  
HETATM   19  O   UNL     1     -13.235  13.473  64.990  1.00  0.00    -0.721 OA 
HETATM   20  O   UNL     1     -11.014  13.284  64.936  1.00  0.00    -0.302 OA 
ENDBRANCH  16  17
ENDBRANCH  11  16
ENDBRANCH   6  11
ENDBRANCH   5   6
ENDBRANCH   4   5
TORSDOF 7
ENDMDL
MODEL      175
REMARK 921   NORMALIZED FREE ENERGY PREDICTED BY IDOCK:   -3.97 KCAL/MOL
REMARK 922        TOTAL FREE ENERGY PREDICTED BY IDOCK:   -6.54 KCAL/MOL
REMARK 923 INTER-LIGAND FREE ENERGY PREDICTED BY IDOCK:   -5.53 KCAL/MOL
REMARK 924 INTRA-LIGAND FREE ENERGY PREDICTED BY IDOCK:   -1.00 KCAL/MOL
REMARK 927      BINDING AFFINITY PREDICTED BY RF-SCORE:    0.00 PKD
ROOT
HETATM    1  O   UNL     1     -10.622   6.547  69.552  1.00  0.00    -0.206 OA 
HETATM    2  N   UNL     1     -10.123   7.650  69.761  1.00  0.00    -0.192 N  
HETATM    3  O   UNL     1      -9.222   7.982  70.532  1.00  0.00    -0.152 OA 
HETATM    4  O   UNL     1     -10.701   8.674  68.964  1.00  0.00    -0.198 OA 
ENDROOT
BRANCH   4   5
HETATM    5  C   UNL     1     -10.137   9.958  69.231  1.00  0.00    -0.203 C  
BRANCH   5   6
HETATM    6  C   UNL     1     -11.220  11.044  69.004  1.00  0.00    -0.258 C  
BRANCH   6   7
HETATM    7  O   UNL     1     -11.775  11.043  67.678  1.00  0.00    -0.576 OA 
HETATM    8  O   UNL     1     -10.896  13.113  67.415  1.00  0.00    -0.250 OA 
HETATM    9  N   UNL     1     -11.524  12.195  66.892  1.00  0.00    -0.345 N  
HETATM   10  O   UNL     1     -11.953  12.092  65.747  1.00  0.00    -0.514 OA 
ENDBRANCH   6   7
BRANCH   6  11
HETATM   11  C   UNL     1     -12.315  11.082  70.105  1.00  0.00    -0.311 C  
BRANCH  11  12
HETATM   12  O   UNL     1     -11.759  10.557  71.316  1.00  0.00    -0.306 OA 
HETATM   13  O   UNL     1     -13.736   9.509  71.597  1.00  0.00    -0.357 OA 
HETATM   14  O   UNL     1     -11.878   8.753  72.575  1.00  0.00    -0.334 OA 
HETATM   15  N   UNL     1     -12.537   9.511  71.871  1.00  0.00    -0.386 N  
ENDBRANCH  11  12
BRANCH  11  16
HETATM   16  C   UNL     1     -12.900  12.493  70.330  1.00  0.00     0.251 C  
BRANCH  16  17
HETATM   17  O   UNL     1     -12.467  13.042  71.574  1.00  0.00    -0.232 OA 
HETATM   18  N   UNL     1     -12.181  14.436  71.465  1.00  0.00    -0.347 N  
HETATM   19  O   UNL     1     -11.898  14.946  72.547  1.00  0.00    -0.324 OA 
HETATM   20  O   UNL     1     -12.233  14.932  70.342  1.00  0.00    -0.295 OA 
ENDBRANCH  16  17
ENDBRANCH  11  16
ENDBRANCH   6  11
ENDBRANCH   5   6
ENDBRANCH   4   5
TORSDOF 7
ENDMDL
MODEL      176
REMARK 921   NORMALIZED FREE ENERGY PREDICTED BY IDOCK:   -3.96 KCAL/MOL
REMARK 922        TOTAL FREE ENERGY PREDICTED BY IDOCK:   -6.53 KCAL/MOL
REMARK 923 INTER-LIGAND FREE ENERGY PREDICTED BY IDOCK:   -5.97 KCAL/MOL
REMARK 924 INTRA-LIGAND FREE ENERGY PREDICTED BY IDOCK:   -0.56 KCAL/MOL
REMARK 927      BINDING AFFINITY PREDICTED BY RF-SCORE:    0.00 PKD
ROOT
HETATM    1  O   UNL     1     -12.264  15.300  63.987  1.00  0.00    -0.625 OA 
HETATM    2  N   UNL     1     -12.490  14.450  64.845  1.00  0.00    -0.412 N  
HETATM    3  O   UNL     1     -13.258  13.487  64.826  1.00  0.00    -0.555 OA 
HETATM    4  O   UNL     1     -11.722  14.641  66.023  1.00  0.00    -0.359 OA 
ENDROOT
BRANCH   4   5
HETATM    5  C   UNL     1     -12.009  13.667  67.027  1.00  0.00    -0.406 C  
BRANCH   5   6
HETATM    6  C   UNL     1     -10.676  13.144  67.622  1.00  0.00    -0.238 C  
BRANCH   6   7
HETATM    7  O   UNL     1     -10.101  14.014  68.612  1.00  0.00    -0.230 OA 
HETATM    8  O   UNL     1      -8.434  14.429  67.138  1.00  0.00    -0.203 OA 
HETATM    9  N   UNL     1      -8.905  14.679  68.245  1.00  0.00    -0.169 N  
HETATM   10  O   UNL     1      -8.517  15.467  69.102  1.00  0.00    -0.206 OA 
ENDBRANCH   6   7
BRANCH   6  11
HETATM   11  C   UNL     1     -10.732  11.665  68.093  1.00  0.00    -0.213 C  
BRANCH  11  12
HETATM   12  O   UNL     1     -12.080  11.361  68.468  1.00  0.00    -0.550 OA 
HETATM   13  O   UNL     1     -11.185   9.908  69.944  1.00  0.00    -0.242 OA 
HETATM   14  O   UNL     1     -13.231  10.748  70.244  1.00  0.00    -0.116 OA 
HETATM   15  N   UNL     1     -12.161  10.603  69.663  1.00  0.00    -0.274 N  
ENDBRANCH  11  12
BRANCH  11  16
HETATM   16  C   UNL     1     -10.214  10.670  67.033  1.00  0.00    -0.220 C  
BRANCH  16  17
HETATM   17  O   UNL     1     -10.678  11.014  65.729  1.00  0.00    -0.228 OA 
HETATM   18  N   UNL     1      -9.648  10.881  64.749  1.00  0.00    -0.234 N  
HETATM   19  O   UNL     1     -10.054  11.081  63.607  1.00  0.00    -0.312 OA 
HETATM   20  O   UNL     1      -8.520  10.612  65.155  1.00  0.00    -0.175 OA 
ENDBRANCH  16  17
ENDBRANCH  11  16
ENDBRANCH   6  11
ENDBRANCH   5   6
ENDBRANCH   4   5
TORSDOF 7
ENDMDL
MODEL      177
REMARK 921   NORMALIZED FREE ENERGY PREDICTED BY IDOCK:   -3.93 KCAL/MOL
REMARK 922        TOTAL FREE ENERGY PREDICTED BY IDOCK:   -6.48 KCAL/MOL
REMARK 923 INTER-LIGAND FREE ENERGY PREDICTED BY IDOCK:   -5.51 KCAL/MOL
REMARK 924 INTRA-LIGAND FREE ENERGY PREDICTED BY IDOCK:   -0.97 KCAL/MOL
REMARK 927      BINDING AFFINITY PREDICTED BY RF-SCORE:    0.00 PKD
ROOT
HETATM    1  O   UNL     1     -10.504  11.085  68.873  1.00  0.00    -0.188 OA 
HETATM    2  N   UNL     1     -10.422  11.693  67.809  1.00  0.00    -0.183 N  
HETATM    3  O   UNL     1     -11.054  11.550  66.761  1.00  0.00    -0.286 OA 
HETATM    4  O   UNL     1      -9.437  12.715  67.835  1.00  0.00    -0.191 OA 
ENDROOT
BRANCH   4   5
HETATM    5  C   UNL     1      -9.327  13.401  66.588  1.00  0.00    -0.241 C  
BRANCH   5   6
HETATM    6  C   UNL     1      -9.199  14.922  66.855  1.00  0.00    -0.246 C  
BRANCH   6   7
HETATM    7  O   UNL     1      -7.924  15.473  66.482  1.00  0.00    -0.181 OA 
HETATM    8  O   UNL     1      -7.659  16.074  68.648  1.00  0.00    -0.153 OA 
HETATM    9  N   UNL     1      -7.160  16.050  67.525  1.00  0.00    -0.153 N  
HETATM   10  O   UNL     1      -6.051  16.423  67.153  1.00  0.00    -0.160 OA 
ENDBRANCH   6   7
BRANCH   6  11
HETATM   11  C   UNL     1     -10.389  15.761  66.311  1.00  0.00    -0.310 C  
BRANCH  11  12
HETATM   12  O   UNL     1     -11.412  14.862  65.870  1.00  0.00    -0.342 OA 
HETATM   13  O   UNL     1     -11.489  16.105  63.990  1.00  0.00    -0.746 OA 
HETATM   14  O   UNL     1     -12.187  13.984  64.004  1.00  0.00    -0.578 OA 
HETATM   15  N   UNL     1     -11.715  15.005  64.493  1.00  0.00    -0.406 N  
ENDBRANCH  11  12
BRANCH  11  16
HETATM   16  C   UNL     1     -10.942  16.768  67.342  1.00  0.00    -0.092 C  
BRANCH  16  17
HETATM   17  O   UNL     1     -11.505  16.099  68.469  1.00  0.00    -0.376 OA 
HETATM   18  N   UNL     1     -11.108  16.709  69.698  1.00  0.00    -0.233 N  
HETATM   19  O   UNL     1     -11.659  16.205  70.674  1.00  0.00    -0.376 OA 
HETATM   20  O   UNL     1     -10.281  17.614  69.632  1.00  0.00    -0.070 OA 
ENDBRANCH  16  17
ENDBRANCH  11  16
ENDBRANCH   6  11
ENDBRANCH   5   6
ENDBRANCH   4   5
TORSDOF 7
ENDMDL
MODEL      178
REMARK 921   NORMALIZED FREE ENERGY PREDICTED BY IDOCK:   -3.93 KCAL/MOL
REMARK 922        TOTAL FREE ENERGY PREDICTED BY IDOCK:   -6.48 KCAL/MOL
REMARK 923 INTER-LIGAND FREE ENERGY PREDICTED BY IDOCK:   -5.63 KCAL/MOL
REMARK 924 INTRA-LIGAND FREE ENERGY PREDICTED BY IDOCK:   -0.85 KCAL/MOL
REMARK 927      BINDING AFFINITY PREDICTED BY RF-SCORE:    0.00 PKD
ROOT
HETATM    1  O   UNL     1      -9.576   9.763  63.935  1.00  0.00    -0.175 OA 
HETATM    2  N   UNL     1      -9.368  10.376  64.978  1.00  0.00    -0.207 N  
HETATM    3  O   UNL     1      -8.945   9.977  66.065  1.00  0.00    -0.141 OA 
HETATM    4  O   UNL     1      -9.670  11.759  64.872  1.00  0.00    -0.238 OA 
ENDROOT
BRANCH   4   5
HETATM    5  C   UNL     1      -9.453  12.462  66.095  1.00  0.00    -0.199 C  
BRANCH   5   6
HETATM    6  C   UNL     1     -10.056  13.886  65.976  1.00  0.00    -0.313 C  
BRANCH   6   7
HETATM    7  O   UNL     1     -11.442  13.962  66.348  1.00  0.00    -0.322 OA 
HETATM    8  O   UNL     1     -11.913  14.275  64.155  1.00  0.00    -0.435 OA 
HETATM    9  N   UNL     1     -12.367  14.150  65.291  1.00  0.00    -0.445 N  
HETATM   10  O   UNL     1     -13.534  14.121  65.668  1.00  0.00    -0.576 OA 
ENDBRANCH   6   7
BRANCH   6  11
HETATM   11  C   UNL     1      -9.200  14.993  66.650  1.00  0.00    -0.276 C  
BRANCH  11  12
HETATM   12  O   UNL     1      -7.984  14.401  67.122  1.00  0.00    -0.192 OA 
HETATM   13  O   UNL     1      -8.680  14.973  69.189  1.00  0.00    -0.200 OA 
HETATM   14  O   UNL     1      -7.215  13.317  68.879  1.00  0.00    -0.102 OA 
HETATM   15  N   UNL     1      -7.970  14.218  68.527  1.00  0.00    -0.141 N  
ENDBRANCH  11  12
BRANCH  11  16
HETATM   16  C   UNL     1      -8.908  16.187  65.717  1.00  0.00     0.034 C  
BRANCH  16  17
HETATM   17  O   UNL     1      -9.286  17.422  66.323  1.00  0.00    -0.342 OA 
HETATM   18  N   UNL     1     -10.431  17.994  65.688  1.00  0.00    -0.234 N  
HETATM   19  O   UNL     1     -10.828  19.009  66.256  1.00  0.00    -0.343 OA 
HETATM   20  O   UNL     1     -10.850  17.433  64.679  1.00  0.00    -0.784 OA 
ENDBRANCH  16  17
ENDBRANCH  11  16
ENDBRANCH   6  11
ENDBRANCH   5   6
ENDBRANCH   4   5
TORSDOF 7
ENDMDL
MODEL      179
REMARK 921   NORMALIZED FREE ENERGY PREDICTED BY IDOCK:   -3.92 KCAL/MOL
REMARK 922        TOTAL FREE ENERGY PREDICTED BY IDOCK:   -6.46 KCAL/MOL
REMARK 923 INTER-LIGAND FREE ENERGY PREDICTED BY IDOCK:   -6.62 KCAL/MOL
REMARK 924 INTRA-LIGAND FREE ENERGY PREDICTED BY IDOCK:    0.16 KCAL/MOL
REMARK 927      BINDING AFFINITY PREDICTED BY RF-SCORE:    0.00 PKD
ROOT
HETATM    1  O   UNL     1     -11.385  16.193  69.925  1.00  0.00    -0.325 OA 
HETATM    2  N   UNL     1     -10.570  15.780  69.105  1.00  0.00    -0.226 N  
HETATM    3  O   UNL     1      -9.356  15.599  69.212  1.00  0.00    -0.234 OA 
HETATM    4  O   UNL     1     -11.160  15.471  67.851  1.00  0.00    -0.303 OA 
ENDROOT
BRANCH   4   5
HETATM    5  C   UNL     1     -10.204  15.018  66.893  1.00  0.00    -0.258 C  
BRANCH   5   6
HETATM    6  C   UNL     1     -10.748  13.744  66.197  1.00  0.00    -0.283 C  
BRANCH   6   7
HETATM    7  O   UNL     1     -11.004  13.913  64.793  1.00  0.00    -0.361 OA 
HETATM    8  O   UNL     1     -13.212  13.850  65.286  1.00  0.00    -0.774 OA 
HETATM    9  N   UNL     1     -12.365  13.982  64.406  1.00  0.00    -0.401 N  
HETATM   10  O   UNL     1     -12.508  14.212  63.209  1.00  0.00    -0.758 OA 
ENDBRANCH   6   7
BRANCH   6  11
HETATM   11  C   UNL     1      -9.927  12.460  66.499  1.00  0.00    -0.230 C  
BRANCH  11  12
HETATM   12  O   UNL     1      -9.829  12.309  67.920  1.00  0.00    -0.189 OA 
HETATM   13  O   UNL     1     -12.054  11.940  67.886  1.00  0.00    -0.558 OA 
HETATM   14  O   UNL     1     -10.783  11.188  69.560  1.00  0.00    -0.222 OA 
HETATM   15  N   UNL     1     -11.002  11.761  68.497  1.00  0.00    -0.212 N  
ENDBRANCH  11  12
BRANCH  11  16
HETATM   16  C   UNL     1     -10.520  11.193  65.847  1.00  0.00    -0.253 C  
BRANCH  16  17
HETATM   17  O   UNL     1      -9.540  10.498  65.079  1.00  0.00    -0.228 OA 
HETATM   18  N   UNL     1      -9.831  10.546  63.682  1.00  0.00    -0.320 N  
HETATM   19  O   UNL     1      -8.947  10.035  62.998  1.00  0.00    -0.215 OA 
HETATM   20  O   UNL     1     -10.898  11.056  63.350  1.00  0.00    -0.276 OA 
ENDBRANCH  16  17
ENDBRANCH  11  16
ENDBRANCH   6  11
ENDBRANCH   5   6
ENDBRANCH   4   5
TORSDOF 7
ENDMDL
MODEL      180
REMARK 921   NORMALIZED FREE ENERGY PREDICTED BY IDOCK:   -3.91 KCAL/MOL
REMARK 922        TOTAL FREE ENERGY PREDICTED BY IDOCK:   -6.46 KCAL/MOL
REMARK 923 INTER-LIGAND FREE ENERGY PREDICTED BY IDOCK:   -5.61 KCAL/MOL
REMARK 924 INTRA-LIGAND FREE ENERGY PREDICTED BY IDOCK:   -0.84 KCAL/MOL
REMARK 927      BINDING AFFINITY PREDICTED BY RF-SCORE:    0.00 PKD
ROOT
HETATM    1  O   UNL     1     -11.532  16.602  63.870  1.00  0.00    -1.186 OA 
HETATM    2  N   UNL     1     -11.975  15.508  64.209  1.00  0.00    -0.293 N  
HETATM    3  O   UNL     1     -13.028  14.946  63.900  1.00  0.00    -0.547 OA 
HETATM    4  O   UNL     1     -11.107  14.812  65.090  1.00  0.00    -0.341 OA 
ENDROOT
BRANCH   4   5
HETATM    5  C   UNL     1     -11.639  13.553  65.503  1.00  0.00    -0.320 C  
BRANCH   5   6
HETATM    6  C   UNL     1     -10.493  12.682  66.077  1.00  0.00    -0.268 C  
BRANCH   6   7
HETATM    7  O   UNL     1      -9.496  12.320  65.106  1.00  0.00    -0.064 OA 
HETATM    8  O   UNL     1     -10.635  10.387  64.801  1.00  0.00    -0.185 OA 
HETATM    9  N   UNL     1      -9.675  11.074  64.456  1.00  0.00    -0.253 N  
HETATM   10  O   UNL     1      -8.839  10.867  63.583  1.00  0.00    -0.159 OA 
ENDBRANCH   6   7
BRANCH   6  11
HETATM   11  C   UNL     1      -9.869  13.241  67.386  1.00  0.00    -0.227 C  
BRANCH  11  12
HETATM   12  O   UNL     1     -10.895  13.917  68.122  1.00  0.00    -0.239 OA 
HETATM   13  O   UNL     1      -9.455  15.648  68.254  1.00  0.00    -0.196 OA 
HETATM   14  O   UNL     1     -11.656  15.957  68.456  1.00  0.00    -0.377 OA 
HETATM   15  N   UNL     1     -10.634  15.300  68.285  1.00  0.00    -0.240 N  
ENDBRANCH  11  12
BRANCH  11  16
HETATM   16  C   UNL     1      -9.193  12.155  68.248  1.00  0.00    -0.192 C  
BRANCH  16  17
HETATM   17  O   UNL     1      -9.799  10.879  68.045  1.00  0.00    -0.165 OA 
HETATM   18  N   UNL     1      -8.880   9.940  67.486  1.00  0.00    -0.128 N  
HETATM   19  O   UNL     1      -9.357   8.811  67.394  1.00  0.00    -0.134 OA 
HETATM   20  O   UNL     1      -7.775  10.364  67.161  1.00  0.00    -0.098 OA 
ENDBRANCH  16  17
ENDBRANCH  11  16
ENDBRANCH   6  11
ENDBRANCH   5   6
ENDBRANCH   4   5
TORSDOF 7
ENDMDL
MODEL      181
REMARK 921   NORMALIZED FREE ENERGY PREDICTED BY IDOCK:   -3.88 KCAL/MOL
REMARK 922        TOTAL FREE ENERGY PREDICTED BY IDOCK:   -6.41 KCAL/MOL
REMARK 923 INTER-LIGAND FREE ENERGY PREDICTED BY IDOCK:   -5.57 KCAL/MOL
REMARK 924 INTRA-LIGAND FREE ENERGY PREDICTED BY IDOCK:   -0.84 KCAL/MOL
REMARK 927      BINDING AFFINITY PREDICTED BY RF-SCORE:    0.00 PKD
ROOT
HETATM    1  O   UNL     1     -12.110  14.006  70.626  1.00  0.00    -0.326 OA 
HETATM    2  N   UNL     1     -12.020  12.903  70.094  1.00  0.00    -0.337 N  
HETATM    3  O   UNL     1     -11.933  11.782  70.597  1.00  0.00    -0.350 OA 
HETATM    4  O   UNL     1     -12.024  12.975  68.676  1.00  0.00    -0.319 OA 
ENDROOT
BRANCH   4   5
HETATM    5  C   UNL     1     -11.890  11.693  68.062  1.00  0.00    -0.225 C  
BRANCH   5   6
HETATM    6  C   UNL     1     -11.387  11.877  66.608  1.00  0.00    -0.337 C  
BRANCH   6   7
HETATM    7  O   UNL     1     -11.472  13.230  66.130  1.00  0.00    -0.309 OA 
HETATM    8  O   UNL     1     -13.168  12.549  64.794  1.00  0.00    -0.839 OA 
HETATM    9  N   UNL     1     -12.481  13.496  65.171  1.00  0.00    -0.444 N  
HETATM   10  O   UNL     1     -12.552  14.684  64.872  1.00  0.00    -0.462 OA 
ENDBRANCH   6   7
BRANCH   6  11
HETATM   11  C   UNL     1      -9.996  11.239  66.336  1.00  0.00    -0.215 C  
BRANCH  11  12
HETATM   12  O   UNL     1      -9.568  10.564  67.523  1.00  0.00    -0.158 OA 
HETATM   13  O   UNL     1      -7.629  11.693  67.289  1.00  0.00    -0.130 OA 
HETATM   14  O   UNL     1      -8.275  10.904  69.275  1.00  0.00    -0.130 OA 
HETATM   15  N   UNL     1      -8.381  11.113  68.071  1.00  0.00    -0.128 N  
ENDBRANCH  11  12
BRANCH  11  16
HETATM   16  C   UNL     1      -9.994  10.283  65.124  1.00  0.00    -0.325 C  
BRANCH  16  17
HETATM   17  O   UNL     1      -9.522   8.987  65.487  1.00  0.00    -0.228 OA 
HETATM   18  N   UNL     1      -8.662   8.439  64.488  1.00  0.00     0.012 N  
HETATM   19  O   UNL     1      -8.170   7.365  64.826  1.00  0.00    -0.126 OA 
HETATM   20  O   UNL     1      -8.540   9.075  63.444  1.00  0.00    -0.194 OA 
ENDBRANCH  16  17
ENDBRANCH  11  16
ENDBRANCH   6  11
ENDBRANCH   5   6
ENDBRANCH   4   5
TORSDOF 7
ENDMDL
MODEL      182
REMARK 921   NORMALIZED FREE ENERGY PREDICTED BY IDOCK:   -3.88 KCAL/MOL
REMARK 922        TOTAL FREE ENERGY PREDICTED BY IDOCK:   -6.41 KCAL/MOL
REMARK 923 INTER-LIGAND FREE ENERGY PREDICTED BY IDOCK:   -5.40 KCAL/MOL
REMARK 924 INTRA-LIGAND FREE ENERGY PREDICTED BY IDOCK:   -1.01 KCAL/MOL
REMARK 927      BINDING AFFINITY PREDICTED BY RF-SCORE:    0.00 PKD
ROOT
HETATM    1  O   UNL     1      -7.199  15.487  68.909  1.00  0.00    -0.124 OA 
HETATM    2  N   UNL     1      -7.064  14.590  68.081  1.00  0.00    -0.108 N  
HETATM    3  O   UNL     1      -6.120  14.335  67.332  1.00  0.00    -0.342 OA 
HETATM    4  O   UNL     1      -8.194  13.734  68.010  1.00  0.00    -0.140 OA 
ENDROOT
BRANCH   4   5
HETATM    5  C   UNL     1      -8.043  12.710  67.026  1.00  0.00    -0.085 C  
BRANCH   5   6
HETATM    6  C   UNL     1      -9.443  12.305  66.498  1.00  0.00    -0.236 C  
BRANCH   6   7
HETATM    7  O   UNL     1      -9.822  10.958  66.830  1.00  0.00    -0.186 OA 
HETATM    8  O   UNL     1      -9.748  10.495  64.615  1.00  0.00    -0.255 OA 
HETATM    9  N   UNL     1      -9.937  10.053  65.746  1.00  0.00    -0.275 N  
HETATM   10  O   UNL     1     -10.179   8.905  66.108  1.00  0.00    -0.259 OA 
ENDBRANCH   6   7
BRANCH   6  11
HETATM   11  C   UNL     1     -10.562  13.332  66.823  1.00  0.00    -0.276 C  
BRANCH  11  12
HETATM   12  O   UNL     1     -10.854  14.074  65.634  1.00  0.00    -0.284 OA 
HETATM   13  O   UNL     1     -10.707  15.918  66.924  1.00  0.00    -0.321 OA 
HETATM   14  O   UNL     1     -10.398  16.025  64.716  1.00  0.00    -0.510 OA 
HETATM   15  N   UNL     1     -10.628  15.465  65.783  1.00  0.00    -0.328 N  
ENDBRANCH  11  12
BRANCH  11  16
HETATM   16  C   UNL     1     -11.838  12.679  67.396  1.00  0.00    -0.328 C  
BRANCH  16  17
HETATM   17  O   UNL     1     -11.949  12.903  68.800  1.00  0.00    -0.311 OA 
HETATM   18  N   UNL     1     -12.159  11.685  69.515  1.00  0.00    -0.295 N  
HETATM   19  O   UNL     1     -12.162  11.846  70.733  1.00  0.00    -0.376 OA 
HETATM   20  O   UNL     1     -12.324  10.666  68.848  1.00  0.00    -0.358 OA 
ENDBRANCH  16  17
ENDBRANCH  11  16
ENDBRANCH   6  11
ENDBRANCH   5   6
ENDBRANCH   4   5
TORSDOF 7
ENDMDL
MODEL      183
REMARK 921   NORMALIZED FREE ENERGY PREDICTED BY IDOCK:   -3.87 KCAL/MOL
REMARK 922        TOTAL FREE ENERGY PREDICTED BY IDOCK:   -6.40 KCAL/MOL
REMARK 923 INTER-LIGAND FREE ENERGY PREDICTED BY IDOCK:   -5.91 KCAL/MOL
REMARK 924 INTRA-LIGAND FREE ENERGY PREDICTED BY IDOCK:   -0.49 KCAL/MOL
REMARK 927      BINDING AFFINITY PREDICTED BY RF-SCORE:    0.00 PKD
ROOT
HETATM    1  O   UNL     1      -7.863   9.573  67.133  1.00  0.00    -0.095 OA 
HETATM    2  N   UNL     1      -8.636   9.666  68.083  1.00  0.00    -0.119 N  
HETATM    3  O   UNL     1      -8.438   9.497  69.287  1.00  0.00    -0.123 OA 
HETATM    4  O   UNL     1      -9.950  10.031  67.689  1.00  0.00    -0.163 OA 
ENDROOT
BRANCH   4   5
HETATM    5  C   UNL     1     -10.850  10.110  68.794  1.00  0.00    -0.225 C  
BRANCH   5   6
HETATM    6  C   UNL     1     -11.670  11.422  68.687  1.00  0.00    -0.329 C  
BRANCH   6   7
HETATM    7  O   UNL     1     -11.915  12.059  69.952  1.00  0.00    -0.319 OA 
HETATM    8  O   UNL     1     -13.265  10.314  70.460  1.00  0.00    -0.299 OA 
HETATM    9  N   UNL     1     -12.770  11.370  70.847  1.00  0.00    -0.332 N  
HETATM   10  O   UNL     1     -12.867  11.927  71.936  1.00  0.00    -0.341 OA 
ENDBRANCH   6   7
BRANCH   6  11
HETATM   11  C   UNL     1     -11.136  12.414  67.617  1.00  0.00    -0.259 C  
BRANCH  11  12
HETATM   12  O   UNL     1     -12.235  12.831  66.799  1.00  0.00    -0.470 OA 
HETATM   13  O   UNL     1     -10.909  12.364  65.035  1.00  0.00    -0.278 OA 
HETATM   14  O   UNL     1     -13.133  12.387  64.836  1.00  0.00    -0.765 OA 
HETATM   15  N   UNL     1     -12.066  12.490  65.434  1.00  0.00    -0.450 N  
ENDBRANCH  11  12
BRANCH  11  16
HETATM   16  C   UNL     1     -10.407  13.629  68.227  1.00  0.00    -0.251 C  
BRANCH  16  17
HETATM   17  O   UNL     1      -9.363  14.091  67.371  1.00  0.00    -0.205 OA 
HETATM   18  N   UNL     1      -9.732  15.287  66.685  1.00  0.00    -0.240 N  
HETATM   19  O   UNL     1      -8.810  15.751  66.017  1.00  0.00    -0.327 OA 
HETATM   20  O   UNL     1     -10.887  15.680  66.826  1.00  0.00    -0.317 OA 
ENDBRANCH  16  17
ENDBRANCH  11  16
ENDBRANCH   6  11
ENDBRANCH   5   6
ENDBRANCH   4   5
TORSDOF 7
ENDMDL
MODEL      184
REMARK 921   NORMALIZED FREE ENERGY PREDICTED BY IDOCK:   -3.87 KCAL/MOL
REMARK 922        TOTAL FREE ENERGY PREDICTED BY IDOCK:   -6.40 KCAL/MOL
REMARK 923 INTER-LIGAND FREE ENERGY PREDICTED BY IDOCK:   -5.62 KCAL/MOL
REMARK 924 INTRA-LIGAND FREE ENERGY PREDICTED BY IDOCK:   -0.78 KCAL/MOL
REMARK 927      BINDING AFFINITY PREDICTED BY RF-SCORE:    0.00 PKD
ROOT
HETATM    1  O   UNL     1     -10.709   7.115  67.381  1.00  0.00    -0.265 OA 
HETATM    2  N   UNL     1     -10.090   8.119  67.041  1.00  0.00    -0.251 N  
HETATM    3  O   UNL     1      -8.877   8.307  66.932  1.00  0.00    -0.132 OA 
HETATM    4  O   UNL     1     -10.943   9.211  66.729  1.00  0.00    -0.018 OA 
ENDROOT
BRANCH   4   5
HETATM    5  C   UNL     1     -10.217  10.384  66.362  1.00  0.00    -0.230 C  
BRANCH   5   6
HETATM    6  C   UNL     1     -10.982  11.633  66.871  1.00  0.00    -0.292 C  
BRANCH   6   7
HETATM    7  O   UNL     1     -12.270  11.815  66.258  1.00  0.00    -0.344 OA 
HETATM    8  O   UNL     1     -11.194  12.763  64.506  1.00  0.00    -0.305 OA 
HETATM    9  N   UNL     1     -12.275  12.412  64.973  1.00  0.00    -0.435 N  
HETATM   10  O   UNL     1     -13.396  12.459  64.475  1.00  0.00    -0.800 OA 
ENDBRANCH   6   7
BRANCH   6  11
HETATM   11  C   UNL     1     -11.041  11.750  68.419  1.00  0.00    -0.237 C  
BRANCH  11  12
HETATM   12  O   UNL     1      -9.786  11.313  68.954  1.00  0.00    -0.198 OA 
HETATM   13  O   UNL     1     -10.999  10.115  70.430  1.00  0.00    -0.289 OA 
HETATM   14  O   UNL     1      -8.899   9.548  69.929  1.00  0.00    -0.175 OA 
HETATM   15  N   UNL     1      -9.919  10.225  69.852  1.00  0.00    -0.193 N  
ENDBRANCH  11  12
BRANCH  11  16
HETATM   16  C   UNL     1     -11.385  13.173  68.908  1.00  0.00    -0.289 C  
BRANCH  16  17
HETATM   17  O   UNL     1     -10.920  14.162  67.992  1.00  0.00    -0.246 OA 
HETATM   18  N   UNL     1     -11.444  15.454  68.299  1.00  0.00    -0.345 N  
HETATM   19  O   UNL     1     -10.979  16.335  67.579  1.00  0.00    -0.296 OA 
HETATM   20  O   UNL     1     -12.278  15.521  69.198  1.00  0.00    -0.279 OA 
ENDBRANCH  16  17
ENDBRANCH  11  16
ENDBRANCH   6  11
ENDBRANCH   5   6
ENDBRANCH   4   5
TORSDOF 7
ENDMDL
MODEL      185
REMARK 921   NORMALIZED FREE ENERGY PREDICTED BY IDOCK:   -3.86 KCAL/MOL
REMARK 922        TOTAL FREE ENERGY PREDICTED BY IDOCK:   -6.38 KCAL/MOL
REMARK 923 INTER-LIGAND FREE ENERGY PREDICTED BY IDOCK:   -5.46 KCAL/MOL
REMARK 924 INTRA-LIGAND FREE ENERGY PREDICTED BY IDOCK:   -0.92 KCAL/MOL
REMARK 927      BINDING AFFINITY PREDICTED BY RF-SCORE:    0.00 PKD
ROOT
HETATM    1  O   UNL     1     -13.530  14.245  65.380  1.00  0.00    -0.581 OA 
HETATM    2  N   UNL     1     -12.396  13.921  65.721  1.00  0.00    -0.460 N  
HETATM    3  O   UNL     1     -12.007  12.938  66.354  1.00  0.00    -0.398 OA 
HETATM    4  O   UNL     1     -11.408  14.847  65.296  1.00  0.00    -0.344 OA 
ENDROOT
BRANCH   4   5
HETATM    5  C   UNL     1     -10.095  14.479  65.719  1.00  0.00    -0.342 C  
BRANCH   5   6
HETATM    6  C   UNL     1      -9.434  15.688  66.431  1.00  0.00    -0.292 C  
BRANCH   6   7
HETATM    7  O   UNL     1     -10.375  16.593  67.033  1.00  0.00    -0.296 OA 
HETATM    8  O   UNL     1      -9.363  18.258  65.881  1.00  0.00    -0.506 OA 
HETATM    9  N   UNL     1     -10.269  17.954  66.654  1.00  0.00    -0.356 N  
HETATM   10  O   UNL     1     -11.153  18.653  67.138  1.00  0.00    -0.250 OA 
ENDBRANCH   6   7
BRANCH   6  11
HETATM   11  C   UNL     1      -8.283  15.299  67.399  1.00  0.00    -0.184 C  
BRANCH  11  12
HETATM   12  O   UNL     1      -8.235  16.265  68.455  1.00  0.00    -0.176 OA 
HETATM   13  O   UNL     1      -6.230  16.866  67.614  1.00  0.00    -0.133 OA 
HETATM   14  O   UNL     1      -7.435  18.279  68.854  1.00  0.00    -0.286 OA 
HETATM   15  N   UNL     1      -7.202  17.219  68.281  1.00  0.00    -0.202 N  
ENDBRANCH  11  12
BRANCH  11  16
HETATM   16  C   UNL     1      -8.422  13.869  67.963  1.00  0.00    -0.173 C  
BRANCH  16  17
HETATM   17  O   UNL     1      -7.371  13.024  67.497  1.00  0.00    -0.139 OA 
HETATM   18  N   UNL     1      -7.557  11.671  67.914  1.00  0.00    -0.108 N  
HETATM   19  O   UNL     1      -6.713  10.912  67.442  1.00  0.00    -0.072 OA 
HETATM   20  O   UNL     1      -8.490  11.444  68.679  1.00  0.00    -0.155 OA 
ENDBRANCH  16  17
ENDBRANCH  11  16
ENDBRANCH   6  11
ENDBRANCH   5   6
ENDBRANCH   4   5
TORSDOF 7
ENDMDL
MODEL      186
REMARK 921   NORMALIZED FREE ENERGY PREDICTED BY IDOCK:   -3.86 KCAL/MOL
REMARK 922        TOTAL FREE ENERGY PREDICTED BY IDOCK:   -6.38 KCAL/MOL
REMARK 923 INTER-LIGAND FREE ENERGY PREDICTED BY IDOCK:   -5.50 KCAL/MOL
REMARK 924 INTRA-LIGAND FREE ENERGY PREDICTED BY IDOCK:   -0.88 KCAL/MOL
REMARK 927      BINDING AFFINITY PREDICTED BY RF-SCORE:    0.00 PKD
ROOT
HETATM    1  O   UNL     1     -13.487  14.186  65.268  1.00  0.00    -0.606 OA 
HETATM    2  N   UNL     1     -12.479  13.841  65.879  1.00  0.00    -0.472 N  
HETATM    3  O   UNL     1     -12.306  12.909  66.666  1.00  0.00    -0.422 OA 
HETATM    4  O   UNL     1     -11.359  14.669  65.603  1.00  0.00    -0.330 OA 
ENDROOT
BRANCH   4   5
HETATM    5  C   UNL     1     -10.198  14.281  66.337  1.00  0.00    -0.291 C  
BRANCH   5   6
HETATM    6  C   UNL     1      -9.580  15.534  67.009  1.00  0.00    -0.224 C  
BRANCH   6   7
HETATM    7  O   UNL     1     -10.434  16.690  66.976  1.00  0.00    -0.305 OA 
HETATM    8  O   UNL     1      -8.829  17.720  65.755  1.00  0.00    -0.501 OA 
HETATM    9  N   UNL     1      -9.949  17.809  66.255  1.00  0.00    -0.328 N  
HETATM   10  O   UNL     1     -10.761  18.727  66.197  1.00  0.00    -0.393 OA 
ENDBRANCH   6   7
BRANCH   6  11
HETATM   11  C   UNL     1      -8.996  15.269  68.424  1.00  0.00    -0.184 C  
BRANCH  11  12
HETATM   12  O   UNL     1      -7.704  15.880  68.501  1.00  0.00    -0.135 OA 
HETATM   13  O   UNL     1      -6.888  13.786  68.702  1.00  0.00    -0.089 OA 
HETATM   14  O   UNL     1      -5.611  15.459  67.956  1.00  0.00    -0.118 OA 
HETATM   15  N   UNL     1      -6.645  14.946  68.373  1.00  0.00    -0.096 N  
ENDBRANCH  11  12
BRANCH  11  16
HETATM   16  C   UNL     1      -9.913  15.765  69.562  1.00  0.00    -0.283 C  
BRANCH  16  17
HETATM   17  O   UNL     1     -10.518  14.674  70.254  1.00  0.00     0.078 OA 
HETATM   18  N   UNL     1     -11.334  15.122  71.336  1.00  0.00    -0.351 N  
HETATM   19  O   UNL     1     -11.938  14.202  71.884  1.00  0.00    -0.137 OA 
HETATM   20  O   UNL     1     -11.318  16.324  71.589  1.00  0.00    -0.312 OA 
ENDBRANCH  16  17
ENDBRANCH  11  16
ENDBRANCH   6  11
ENDBRANCH   5   6
ENDBRANCH   4   5
TORSDOF 7
ENDMDL
MODEL      187
REMARK 921   NORMALIZED FREE ENERGY PREDICTED BY IDOCK:   -3.86 KCAL/MOL
REMARK 922        TOTAL FREE ENERGY PREDICTED BY IDOCK:   -6.38 KCAL/MOL
REMARK 923 INTER-LIGAND FREE ENERGY PREDICTED BY IDOCK:   -6.70 KCAL/MOL
REMARK 924 INTRA-LIGAND FREE ENERGY PREDICTED BY IDOCK:    0.32 KCAL/MOL
REMARK 927      BINDING AFFINITY PREDICTED BY RF-SCORE:    0.00 PKD
ROOT
HETATM    1  O   UNL     1     -10.423  17.591  66.001  1.00  0.00    -0.367 OA 
HETATM    2  N   UNL     1     -10.757  16.648  65.289  1.00  0.00    -0.290 N  
HETATM    3  O   UNL     1     -11.273  16.641  64.170  1.00  0.00    -1.103 OA 
HETATM    4  O   UNL     1     -10.485  15.388  65.883  1.00  0.00    -0.302 OA 
ENDROOT
BRANCH   4   5
HETATM    5  C   UNL     1     -10.901  14.296  65.062  1.00  0.00    -0.403 C  
BRANCH   5   6
HETATM    6  C   UNL     1     -11.250  13.087  65.968  1.00  0.00    -0.292 C  
BRANCH   6   7
HETATM    7  O   UNL     1     -12.462  12.411  65.592  1.00  0.00    -0.640 OA 
HETATM    8  O   UNL     1     -12.003  12.983  63.450  1.00  0.00    -0.542 OA 
HETATM    9  N   UNL     1     -12.767  12.391  64.209  1.00  0.00    -0.410 N  
HETATM   10  O   UNL     1     -13.767  11.727  63.951  1.00  0.00    -0.233 OA 
ENDBRANCH   6   7
BRANCH   6  11
HETATM   11  C   UNL     1     -10.068  12.103  66.191  1.00  0.00    -0.228 C  
BRANCH  11  12
HETATM   12  O   UNL     1      -9.419  11.883  64.934  1.00  0.00    -0.130 OA 
HETATM   13  O   UNL     1     -10.065   9.732  65.145  1.00  0.00    -0.262 OA 
HETATM   14  O   UNL     1      -9.612  10.613  63.144  1.00  0.00    -0.293 OA 
HETATM   15  N   UNL     1      -9.735  10.624  64.364  1.00  0.00    -0.282 N  
ENDBRANCH  11  12
BRANCH  11  16
HETATM   16  C   UNL     1      -9.063  12.594  67.255  1.00  0.00    -0.191 C  
BRANCH  16  17
HETATM   17  O   UNL     1      -7.746  12.122  66.980  1.00  0.00    -0.160 OA 
HETATM   18  N   UNL     1      -6.762  13.126  67.232  1.00  0.00    -0.082 N  
HETATM   19  O   UNL     1      -5.615  12.708  67.093  1.00  0.00    -0.311 OA 
HETATM   20  O   UNL     1      -7.168  14.247  67.527  1.00  0.00    -0.175 OA 
ENDBRANCH  16  17
ENDBRANCH  11  16
ENDBRANCH   6  11
ENDBRANCH   5   6
ENDBRANCH   4   5
TORSDOF 7
ENDMDL
MODEL      188
REMARK 921   NORMALIZED FREE ENERGY PREDICTED BY IDOCK:   -3.85 KCAL/MOL
REMARK 922        TOTAL FREE ENERGY PREDICTED BY IDOCK:   -6.36 KCAL/MOL
REMARK 923 INTER-LIGAND FREE ENERGY PREDICTED BY IDOCK:   -5.66 KCAL/MOL
REMARK 924 INTRA-LIGAND FREE ENERGY PREDICTED BY IDOCK:   -0.70 KCAL/MOL
REMARK 927      BINDING AFFINITY PREDICTED BY RF-SCORE:    0.00 PKD
ROOT
HETATM    1  O   UNL     1     -12.008  14.353  65.924  1.00  0.00    -0.377 OA 
HETATM    2  N   UNL     1     -12.072  13.248  65.391  1.00  0.00    -0.395 N  
HETATM    3  O   UNL     1     -13.036  12.655  64.905  1.00  0.00    -0.850 OA 
HETATM    4  O   UNL     1     -10.817  12.587  65.345  1.00  0.00    -0.270 OA 
ENDROOT
BRANCH   4   5
HETATM    5  C   UNL     1     -10.903  11.291  64.750  1.00  0.00    -0.244 C  
BRANCH   5   6
HETATM    6  C   UNL     1      -9.822  10.373  65.377  1.00  0.00    -0.283 C  
BRANCH   6   7
HETATM    7  O   UNL     1      -8.496  10.927  65.338  1.00  0.00    -0.163 OA 
HETATM    8  O   UNL     1      -7.808   8.964  64.442  1.00  0.00    -0.115 OA 
HETATM    9  N   UNL     1      -7.484  10.097  64.794  1.00  0.00    -0.143 N  
HETATM   10  O   UNL     1      -6.398  10.661  64.713  1.00  0.00    -0.063 OA 
ENDBRANCH   6   7
BRANCH   6  11
HETATM   11  C   UNL     1     -10.195   9.828  66.783  1.00  0.00    -0.233 C  
BRANCH  11  12
HETATM   12  O   UNL     1     -11.385  10.490  67.224  1.00  0.00    -0.359 OA 
HETATM   13  O   UNL     1     -10.266  10.910  69.137  1.00  0.00    -0.213 OA 
HETATM   14  O   UNL     1     -11.992  12.177  68.506  1.00  0.00    -0.320 OA 
HETATM   15  N   UNL     1     -11.184  11.260  68.397  1.00  0.00    -0.237 N  
ENDBRANCH  11  12
BRANCH  11  16
HETATM   16  C   UNL     1     -10.371   8.295  66.812  1.00  0.00    -0.290 C  
BRANCH  16  17
HETATM   17  O   UNL     1     -10.589   7.823  68.140  1.00  0.00    -0.193 OA 
HETATM   18  N   UNL     1     -10.840   6.418  68.168  1.00  0.00    -0.287 N  
HETATM   19  O   UNL     1     -10.935   5.977  69.311  1.00  0.00    -0.324 OA 
HETATM   20  O   UNL     1     -10.946   5.847  67.085  1.00  0.00    -0.295 OA 
ENDBRANCH  16  17
ENDBRANCH  11  16
ENDBRANCH   6  11
ENDBRANCH   5   6
ENDBRANCH   4   5
TORSDOF 7
ENDMDL
MODEL      189
REMARK 921   NORMALIZED FREE ENERGY PREDICTED BY IDOCK:   -3.85 KCAL/MOL
REMARK 922        TOTAL FREE ENERGY PREDICTED BY IDOCK:   -6.36 KCAL/MOL
REMARK 923 INTER-LIGAND FREE ENERGY PREDICTED BY IDOCK:   -5.43 KCAL/MOL
REMARK 924 INTRA-LIGAND FREE ENERGY PREDICTED BY IDOCK:   -0.93 KCAL/MOL
REMARK 927      BINDING AFFINITY PREDICTED BY RF-SCORE:    0.00 PKD
ROOT
HETATM    1  O   UNL     1     -13.748  14.159  65.330  1.00  0.00    -0.363 OA 
HETATM    2  N   UNL     1     -12.684  13.549  65.393  1.00  0.00    -0.485 N  
HETATM    3  O   UNL     1     -12.441  12.416  65.811  1.00  0.00    -0.615 OA 
HETATM    4  O   UNL     1     -11.590  14.300  64.889  1.00  0.00    -0.349 OA 
ENDROOT
BRANCH   4   5
HETATM    5  C   UNL     1     -10.351  13.597  64.990  1.00  0.00    -0.374 C  
BRANCH   5   6
HETATM    6  C   UNL     1      -9.487  14.249  66.100  1.00  0.00    -0.222 C  
BRANCH   6   7
HETATM    7  O   UNL     1     -10.208  15.178  66.926  1.00  0.00    -0.252 OA 
HETATM    8  O   UNL     1      -9.138  16.840  65.823  1.00  0.00    -0.515 OA 
HETATM    9  N   UNL     1      -9.967  16.553  66.683  1.00  0.00    -0.263 N  
HETATM   10  O   UNL     1     -10.676  17.288  67.364  1.00  0.00    -0.329 OA 
ENDBRANCH   6   7
BRANCH   6  11
HETATM   11  C   UNL     1      -8.660  13.232  66.934  1.00  0.00    -0.105 C  
BRANCH  11  12
HETATM   12  O   UNL     1      -8.569  13.717  68.278  1.00  0.00    -0.166 OA 
HETATM   13  O   UNL     1      -6.348  13.872  67.916  1.00  0.00    -0.133 OA 
HETATM   14  O   UNL     1      -7.353  15.101  69.486  1.00  0.00    -0.188 OA 
HETATM   15  N   UNL     1      -7.303  14.280  68.576  1.00  0.00    -0.110 N  
ENDBRANCH  11  12
BRANCH  11  16
HETATM   16  C   UNL     1      -9.241  11.803  66.899  1.00  0.00    -0.189 C  
BRANCH  16  17
HETATM   17  O   UNL     1      -8.454  10.943  66.076  1.00  0.00    -0.163 OA 
HETATM   18  N   UNL     1      -9.163   9.757  65.721  1.00  0.00    -0.175 N  
HETATM   19  O   UNL     1      -8.537   9.049  64.935  1.00  0.00    -0.169 OA 
HETATM   20  O   UNL     1     -10.264   9.586  66.239  1.00  0.00    -0.271 OA 
ENDBRANCH  16  17
ENDBRANCH  11  16
ENDBRANCH   6  11
ENDBRANCH   5   6
ENDBRANCH   4   5
TORSDOF 7
ENDMDL
MODEL      190
REMARK 921   NORMALIZED FREE ENERGY PREDICTED BY IDOCK:   -3.83 KCAL/MOL
REMARK 922        TOTAL FREE ENERGY PREDICTED BY IDOCK:   -6.34 KCAL/MOL
REMARK 923 INTER-LIGAND FREE ENERGY PREDICTED BY IDOCK:   -5.46 KCAL/MOL
REMARK 924 INTRA-LIGAND FREE ENERGY PREDICTED BY IDOCK:   -0.88 KCAL/MOL
REMARK 927      BINDING AFFINITY PREDICTED BY RF-SCORE:    0.00 PKD
ROOT
HETATM    1  O   UNL     1     -11.426   5.460  73.224  1.00  0.00    -0.268 OA 
HETATM    2  N   UNL     1     -11.730   5.944  72.138  1.00  0.00    -0.271 N  
HETATM    3  O   UNL     1     -12.710   6.618  71.814  1.00  0.00    -0.350 OA 
HETATM    4  O   UNL     1     -10.775   5.666  71.125  1.00  0.00    -0.251 OA 
ENDROOT
BRANCH   4   5
HETATM    5  C   UNL     1     -11.148   6.208  69.857  1.00  0.00    -0.410 C  
BRANCH   5   6
HETATM    6  C   UNL     1     -10.395   7.545  69.637  1.00  0.00    -0.225 C  
BRANCH   6   7
HETATM    7  O   UNL     1      -9.377   7.807  70.617  1.00  0.00    -0.161 OA 
HETATM    8  O   UNL     1     -10.772   9.349  71.512  1.00  0.00    -0.346 OA 
HETATM    9  N   UNL     1      -9.686   8.779  71.600  1.00  0.00    -0.272 N  
HETATM   10  O   UNL     1      -8.810   8.891  72.452  1.00  0.00    -0.396 OA 
ENDBRANCH   6   7
BRANCH   6  11
HETATM   11  C   UNL     1      -9.884   7.749  68.183  1.00  0.00    -0.167 C  
BRANCH  11  12
HETATM   12  O   UNL     1     -10.793   7.098  67.289  1.00  0.00    -0.311 OA 
HETATM   13  O   UNL     1      -8.979   6.073  66.427  1.00  0.00    -0.136 OA 
HETATM   14  O   UNL     1     -11.016   5.184  66.220  1.00  0.00    -0.236 OA 
HETATM   15  N   UNL     1     -10.197   6.021  66.587  1.00  0.00    -0.194 N  
ENDBRANCH  11  12
BRANCH  11  16
HETATM   16  C   UNL     1      -9.705   9.235  67.807  1.00  0.00    -0.150 C  
BRANCH  16  17
HETATM   17  O   UNL     1     -10.936   9.812  67.373  1.00  0.00    -0.259 OA 
HETATM   18  N   UNL     1     -11.038  11.185  67.751  1.00  0.00    -0.263 N  
HETATM   19  O   UNL     1     -12.048  11.724  67.304  1.00  0.00    -0.595 OA 
HETATM   20  O   UNL     1     -10.148  11.636  68.467  1.00  0.00    -0.200 OA 
ENDBRANCH  16  17
ENDBRANCH  11  16
ENDBRANCH   6  11
ENDBRANCH   5   6
ENDBRANCH   4   5
TORSDOF 7
ENDMDL
MODEL      191
REMARK 921   NORMALIZED FREE ENERGY PREDICTED BY IDOCK:   -3.77 KCAL/MOL
REMARK 922        TOTAL FREE ENERGY PREDICTED BY IDOCK:   -6.25 KCAL/MOL
REMARK 923 INTER-LIGAND FREE ENERGY PREDICTED BY IDOCK:   -5.32 KCAL/MOL
REMARK 924 INTRA-LIGAND FREE ENERGY PREDICTED BY IDOCK:   -0.93 KCAL/MOL
REMARK 927      BINDING AFFINITY PREDICTED BY RF-SCORE:    0.00 PKD
ROOT
HETATM    1  O   UNL     1     -12.876  12.460  71.332  1.00  0.00    -0.367 OA 
HETATM    2  N   UNL     1     -12.807  11.239  71.445  1.00  0.00    -0.424 N  
HETATM    3  O   UNL     1     -13.503  10.460  72.097  1.00  0.00    -0.396 OA 
HETATM    4  O   UNL     1     -11.748  10.676  70.684  1.00  0.00    -0.320 OA 
ENDROOT
BRANCH   4   5
HETATM    5  C   UNL     1     -11.655   9.259  70.841  1.00  0.00    -0.301 C  
BRANCH   5   6
HETATM    6  C   UNL     1     -10.401   8.748  70.087  1.00  0.00    -0.208 C  
BRANCH   6   7
HETATM    7  O   UNL     1      -9.168   8.972  70.792  1.00  0.00    -0.203 OA 
HETATM    8  O   UNL     1      -8.578  10.373  69.114  1.00  0.00    -0.149 OA 
HETATM    9  N   UNL     1      -8.261   9.884  70.197  1.00  0.00    -0.179 N  
HETATM   10  O   UNL     1      -7.271  10.092  70.891  1.00  0.00    -0.326 OA 
ENDBRANCH   6   7
BRANCH   6  11
HETATM   11  C   UNL     1     -10.529   7.289  69.566  1.00  0.00    -0.230 C  
BRANCH  11  12
HETATM   12  O   UNL     1     -11.659   6.681  70.199  1.00  0.00    -0.382 OA 
HETATM   13  O   UNL     1     -10.163   5.535  71.439  1.00  0.00    -0.199 OA 
HETATM   14  O   UNL     1     -12.251   5.865  72.159  1.00  0.00    -0.224 OA 
HETATM   15  N   UNL     1     -11.314   5.964  71.372  1.00  0.00    -0.228 N  
ENDBRANCH  11  12
BRANCH  11  16
HETATM   16  C   UNL     1     -10.640   7.202  68.029  1.00  0.00    -0.196 C  
BRANCH  16  17
HETATM   17  O   UNL     1     -10.760   8.497  67.443  1.00  0.00    -0.264 OA 
HETATM   18  N   UNL     1      -9.920   8.638  66.298  1.00  0.00    -0.266 N  
HETATM   19  O   UNL     1     -10.081   9.713  65.724  1.00  0.00    -0.290 OA 
HETATM   20  O   UNL     1      -9.155   7.711  66.047  1.00  0.00    -0.166 OA 
ENDBRANCH  16  17
ENDBRANCH  11  16
ENDBRANCH   6  11
ENDBRANCH   5   6
ENDBRANCH   4   5
TORSDOF 7
ENDMDL
MODEL      192
REMARK 921   NORMALIZED FREE ENERGY PREDICTED BY IDOCK:   -3.76 KCAL/MOL
REMARK 922        TOTAL FREE ENERGY PREDICTED BY IDOCK:   -6.25 KCAL/MOL
REMARK 923 INTER-LIGAND FREE ENERGY PREDICTED BY IDOCK:   -5.38 KCAL/MOL
REMARK 924 INTRA-LIGAND FREE ENERGY PREDICTED BY IDOCK:   -0.86 KCAL/MOL
REMARK 927      BINDING AFFINITY PREDICTED BY RF-SCORE:    0.00 PKD
ROOT
HETATM    1  O   UNL     1      -9.004   5.755  66.813  1.00  0.00    -0.115 OA 
HETATM    2  N   UNL     1     -10.068   6.057  67.349  1.00  0.00    -0.146 N  
HETATM    3  O   UNL     1     -11.081   6.570  66.871  1.00  0.00    -0.399 OA 
HETATM    4  O   UNL     1     -10.094   5.744  68.734  1.00  0.00    -0.150 OA 
ENDROOT
BRANCH   4   5
HETATM    5  C   UNL     1     -11.321   6.122  69.357  1.00  0.00    -0.331 C  
BRANCH   5   6
HETATM    6  C   UNL     1     -11.021   6.679  70.772  1.00  0.00    -0.270 C  
BRANCH   6   7
HETATM    7  O   UNL     1     -10.159   5.836  71.557  1.00  0.00    -0.185 OA 
HETATM    8  O   UNL     1     -11.946   5.407  72.880  1.00  0.00    -0.225 OA 
HETATM    9  N   UNL     1     -10.759   5.176  72.658  1.00  0.00    -0.226 N  
HETATM   10  O   UNL     1      -9.990   4.411  73.230  1.00  0.00    -0.135 OA 
ENDBRANCH   6   7
BRANCH   6  11
HETATM   11  C   UNL     1     -10.566   8.164  70.783  1.00  0.00    -0.214 C  
BRANCH  11  12
HETATM   12  O   UNL     1     -11.080   8.803  69.609  1.00  0.00    -0.164 OA 
HETATM   13  O   UNL     1      -9.247  10.114  69.699  1.00  0.00    -0.214 OA 
HETATM   14  O   UNL     1     -10.352   9.801  67.785  1.00  0.00    -0.195 OA 
HETATM   15  N   UNL     1     -10.131   9.647  68.982  1.00  0.00    -0.178 N  
ENDBRANCH  11  12
BRANCH  11  16
HETATM   16  C   UNL     1     -10.996   8.921  72.058  1.00  0.00    -0.342 C  
BRANCH  16  17
HETATM   17  O   UNL     1     -12.221   8.407  72.578  1.00  0.00    -0.386 OA 
HETATM   18  N   UNL     1     -13.296   9.329  72.407  1.00  0.00    -0.464 N  
HETATM   19  O   UNL     1     -14.378   8.865  72.762  1.00  0.00    -0.600 OA 
HETATM   20  O   UNL     1     -13.017  10.438  71.959  1.00  0.00    -0.445 OA 
ENDBRANCH  16  17
ENDBRANCH  11  16
ENDBRANCH   6  11
ENDBRANCH   5   6
ENDBRANCH   4   5
TORSDOF 7
ENDMDL
MODEL      193
REMARK 921   NORMALIZED FREE ENERGY PREDICTED BY IDOCK:   -3.75 KCAL/MOL
REMARK 922        TOTAL FREE ENERGY PREDICTED BY IDOCK:   -6.23 KCAL/MOL
REMARK 923 INTER-LIGAND FREE ENERGY PREDICTED BY IDOCK:   -5.32 KCAL/MOL
REMARK 924 INTRA-LIGAND FREE ENERGY PREDICTED BY IDOCK:   -0.91 KCAL/MOL
REMARK 927      BINDING AFFINITY PREDICTED BY RF-SCORE:    0.00 PKD
ROOT
HETATM    1  O   UNL     1      -5.531  15.349  67.467  1.00  0.00    -0.297 OA 
HETATM    2  N   UNL     1      -6.266  14.394  67.703  1.00  0.00    -0.131 N  
HETATM    3  O   UNL     1      -6.088  13.414  68.429  1.00  0.00    -0.077 OA 
HETATM    4  O   UNL     1      -7.506  14.472  67.016  1.00  0.00    -0.061 OA 
ENDROOT
BRANCH   4   5
HETATM    5  C   UNL     1      -8.345  13.346  67.273  1.00  0.00    -0.176 C  
BRANCH   5   6
HETATM    6  C   UNL     1      -9.777  13.654  66.763  1.00  0.00    -0.275 C  
BRANCH   6   7
HETATM    7  O   UNL     1      -9.821  14.641  65.719  1.00  0.00    -0.317 OA 
HETATM    8  O   UNL     1     -11.278  15.799  67.008  1.00  0.00    -0.229 OA 
HETATM    9  N   UNL     1     -10.642  15.772  65.957  1.00  0.00    -0.321 N  
HETATM   10  O   UNL     1     -10.567  16.611  65.065  1.00  0.00    -0.683 OA 
ENDBRANCH   6   7
BRANCH   6  11
HETATM   11  C   UNL     1     -10.611  12.389  66.419  1.00  0.00    -0.244 C  
BRANCH  11  12
HETATM   12  O   UNL     1      -9.839  11.233  66.759  1.00  0.00    -0.193 OA 
HETATM   13  O   UNL     1     -10.275  10.508  64.668  1.00  0.00    -0.345 OA 
HETATM   14  O   UNL     1      -8.503   9.764  65.804  1.00  0.00    -0.128 OA 
HETATM   15  N   UNL     1      -9.515  10.436  65.633  1.00  0.00    -0.196 N  
ENDBRANCH  11  12
BRANCH  11  16
HETATM   16  C   UNL     1     -11.987  12.362  67.117  1.00  0.00    -0.177 C  
BRANCH  16  17
HETATM   17  O   UNL     1     -12.030  11.369  68.140  1.00  0.00    -0.594 OA 
HETATM   18  N   UNL     1     -12.038  11.953  69.443  1.00  0.00    -0.256 N  
HETATM   19  O   UNL     1     -12.171  11.117  70.334  1.00  0.00    -0.318 OA 
HETATM   20  O   UNL     1     -11.897  13.171  69.511  1.00  0.00    -0.299 OA 
ENDBRANCH  16  17
ENDBRANCH  11  16
ENDBRANCH   6  11
ENDBRANCH   5   6
ENDBRANCH   4   5
TORSDOF 7
ENDMDL
MODEL      194
REMARK 921   NORMALIZED FREE ENERGY PREDICTED BY IDOCK:   -3.75 KCAL/MOL
REMARK 922        TOTAL FREE ENERGY PREDICTED BY IDOCK:   -6.22 KCAL/MOL
REMARK 923 INTER-LIGAND FREE ENERGY PREDICTED BY IDOCK:   -5.63 KCAL/MOL
REMARK 924 INTRA-LIGAND FREE ENERGY PREDICTED BY IDOCK:   -0.59 KCAL/MOL
REMARK 927      BINDING AFFINITY PREDICTED BY RF-SCORE:    0.00 PKD
ROOT
HETATM    1  O   UNL     1     -12.667  12.388  71.081  1.00  0.00    -0.351 OA 
HETATM    2  N   UNL     1     -11.984  12.337  70.062  1.00  0.00    -0.333 N  
HETATM    3  O   UNL     1     -11.531  11.365  69.456  1.00  0.00    -0.262 OA 
HETATM    4  O   UNL     1     -11.697  13.622  69.529  1.00  0.00    -0.284 OA 
ENDROOT
BRANCH   4   5
HETATM    5  C   UNL     1     -10.880  13.558  68.360  1.00  0.00    -0.267 C  
BRANCH   5   6
HETATM    6  C   UNL     1      -9.791  14.659  68.444  1.00  0.00    -0.220 C  
BRANCH   6   7
HETATM    7  O   UNL     1      -8.447  14.154  68.352  1.00  0.00    -0.161 OA 
HETATM    8  O   UNL     1      -8.009  15.248  70.286  1.00  0.00     0.229 OA 
HETATM    9  N   UNL     1      -7.570  14.509  69.407  1.00  0.00    -0.084 N  
HETATM   10  O   UNL     1      -6.469  13.977  69.309  1.00  0.00    -0.103 OA 
ENDBRANCH   6   7
BRANCH   6  11
HETATM   11  C   UNL     1     -10.037  15.864  67.495  1.00  0.00    -0.247 C  
BRANCH  11  12
HETATM   12  O   UNL     1      -9.456  17.031  68.086  1.00  0.00    -0.248 OA 
HETATM   13  O   UNL     1     -11.332  18.109  67.448  1.00  0.00     0.127 OA 
HETATM   14  O   UNL     1     -10.074  18.872  69.127  1.00  0.00    -0.365 OA 
HETATM   15  N   UNL     1     -10.382  18.095  68.229  1.00  0.00    -0.373 N  
ENDBRANCH  11  12
BRANCH  11  16
HETATM   16  C   UNL     1      -9.491  15.635  66.069  1.00  0.00    -0.355 C  
BRANCH  16  17
HETATM   17  O   UNL     1     -10.155  16.468  65.120  1.00  0.00    -0.536 OA 
HETATM   18  N   UNL     1     -11.250  15.793  64.500  1.00  0.00    -0.401 N  
HETATM   19  O   UNL     1     -11.892  16.525  63.750  1.00  0.00    -1.011 OA 
HETATM   20  O   UNL     1     -11.398  14.604  64.767  1.00  0.00    -0.378 OA 
ENDBRANCH  16  17
ENDBRANCH  11  16
ENDBRANCH   6  11
ENDBRANCH   5   6
ENDBRANCH   4   5
TORSDOF 7
ENDMDL
MODEL      195
REMARK 921   NORMALIZED FREE ENERGY PREDICTED BY IDOCK:   -3.74 KCAL/MOL
REMARK 922        TOTAL FREE ENERGY PREDICTED BY IDOCK:   -6.22 KCAL/MOL
REMARK 923 INTER-LIGAND FREE ENERGY PREDICTED BY IDOCK:   -5.30 KCAL/MOL
REMARK 924 INTRA-LIGAND FREE ENERGY PREDICTED BY IDOCK:   -0.92 KCAL/MOL
REMARK 927      BINDING AFFINITY PREDICTED BY RF-SCORE:    0.00 PKD
ROOT
HETATM    1  O   UNL     1     -12.327  14.262  63.445  1.00  0.00    -0.678 OA 
HETATM    2  N   UNL     1     -12.276  13.049  63.630  1.00  0.00    -0.495 N  
HETATM    3  O   UNL     1     -13.172  12.204  63.612  1.00  0.00    -0.770 OA 
HETATM    4  O   UNL     1     -10.960  12.590  63.898  1.00  0.00    -0.360 OA 
ENDROOT
BRANCH   4   5
HETATM    5  C   UNL     1     -10.910  11.183  64.139  1.00  0.00    -0.285 C  
BRANCH   5   6
HETATM    6  C   UNL     1      -9.742  10.877  65.111  1.00  0.00    -0.262 C  
BRANCH   6   7
HETATM    7  O   UNL     1      -8.457  10.804  64.471  1.00  0.00    -0.124 OA 
HETATM    8  O   UNL     1      -8.651   8.550  64.554  1.00  0.00    -0.137 OA 
HETATM    9  N   UNL     1      -7.966   9.505  64.191  1.00  0.00    -0.129 N  
HETATM   10  O   UNL     1      -6.908   9.518  63.570  1.00  0.00    -0.097 OA 
ENDBRANCH   6   7
BRANCH   6  11
HETATM   11  C   UNL     1      -9.722  11.776  66.378  1.00  0.00    -0.214 C  
BRANCH  11  12
HETATM   12  O   UNL     1     -11.075  12.034  66.770  1.00  0.00    -0.272 OA 
HETATM   13  O   UNL     1     -10.379  14.122  67.264  1.00  0.00    -0.264 OA 
HETATM   14  O   UNL     1     -12.523  13.694  66.816  1.00  0.00    -0.341 OA 
HETATM   15  N   UNL     1     -11.338  13.413  66.964  1.00  0.00    -0.305 N  
ENDBRANCH  11  12
BRANCH  11  16
HETATM   16  C   UNL     1      -8.915  11.166  67.543  1.00  0.00    -0.139 C  
BRANCH  16  17
HETATM   17  O   UNL     1      -9.117   9.756  67.632  1.00  0.00    -0.131 OA 
HETATM   18  N   UNL     1      -7.879   9.046  67.657  1.00  0.00    -0.100 N  
HETATM   19  O   UNL     1      -8.031   7.838  67.830  1.00  0.00    -0.120 OA 
HETATM   20  O   UNL     1      -6.854   9.701  67.491  1.00  0.00    -0.080 OA 
ENDBRANCH  16  17
ENDBRANCH  11  16
ENDBRANCH   6  11
ENDBRANCH   5   6
ENDBRANCH   4   5
TORSDOF 7
ENDMDL
MODEL      196
REMARK 921   NORMALIZED FREE ENERGY PREDICTED BY IDOCK:   -3.74 KCAL/MOL
REMARK 922        TOTAL FREE ENERGY PREDICTED BY IDOCK:   -6.21 KCAL/MOL
REMARK 923 INTER-LIGAND FREE ENERGY PREDICTED BY IDOCK:   -5.35 KCAL/MOL
REMARK 924 INTRA-LIGAND FREE ENERGY PREDICTED BY IDOCK:   -0.86 KCAL/MOL
REMARK 927      BINDING AFFINITY PREDICTED BY RF-SCORE:    0.00 PKD
ROOT
HETATM    1  O   UNL     1     -13.547  13.856  65.534  1.00  0.00    -0.579 OA 
HETATM    2  N   UNL     1     -12.361  13.545  65.614  1.00  0.00    -0.455 N  
HETATM    3  O   UNL     1     -11.348  14.235  65.491  1.00  0.00    -0.312 OA 
HETATM    4  O   UNL     1     -12.174  12.167  65.900  1.00  0.00    -0.604 OA 
ENDROOT
BRANCH   4   5
HETATM    5  C   UNL     1     -10.794  11.805  65.965  1.00  0.00    -0.296 C  
BRANCH   5   6
HETATM    6  C   UNL     1     -10.528  11.062  67.300  1.00  0.00    -0.231 C  
BRANCH   6   7
HETATM    7  O   UNL     1     -11.723  10.634  67.975  1.00  0.00    -0.495 OA 
HETATM    8  O   UNL     1     -11.057  11.885  69.740  1.00  0.00    -0.118 OA 
HETATM    9  N   UNL     1     -11.928  11.152  69.277  1.00  0.00    -0.344 N  
HETATM   10  O   UNL     1     -13.005  10.814  69.760  1.00  0.00    -0.143 OA 
ENDBRANCH   6   7
BRANCH   6  11
HETATM   11  C   UNL     1      -9.470   9.930  67.192  1.00  0.00    -0.158 C  
BRANCH  11  12
HETATM   12  O   UNL     1      -9.183   9.451  68.511  1.00  0.00    -0.131 OA 
HETATM   13  O   UNL     1      -7.062  10.116  68.132  1.00  0.00    -0.077 OA 
HETATM   14  O   UNL     1      -7.852   9.900  70.208  1.00  0.00    -0.177 OA 
HETATM   15  N   UNL     1      -7.914   9.867  68.984  1.00  0.00    -0.094 N  
ENDBRANCH  11  12
BRANCH  11  16
HETATM   16  C   UNL     1      -9.909   8.775  66.267  1.00  0.00    -0.272 C  
BRANCH  16  17
HETATM   17  O   UNL     1     -10.599   7.761  66.995  1.00  0.00    -0.335 OA 
HETATM   18  N   UNL     1      -9.928   6.504  66.915  1.00  0.00    -0.162 N  
HETATM   19  O   UNL     1     -10.456   5.642  67.614  1.00  0.00    -0.209 OA 
HETATM   20  O   UNL     1      -8.954   6.435  66.171  1.00  0.00    -0.154 OA 
ENDBRANCH  16  17
ENDBRANCH  11  16
ENDBRANCH   6  11
ENDBRANCH   5   6
ENDBRANCH   4   5
TORSDOF 7
ENDMDL
MODEL      197
REMARK 921   NORMALIZED FREE ENERGY PREDICTED BY IDOCK:   -3.74 KCAL/MOL
REMARK 922        TOTAL FREE ENERGY PREDICTED BY IDOCK:   -6.20 KCAL/MOL
REMARK 923 INTER-LIGAND FREE ENERGY PREDICTED BY IDOCK:   -5.16 KCAL/MOL
REMARK 924 INTRA-LIGAND FREE ENERGY PREDICTED BY IDOCK:   -1.04 KCAL/MOL
REMARK 927      BINDING AFFINITY PREDICTED BY RF-SCORE:    0.00 PKD
ROOT
HETATM    1  O   UNL     1     -12.076  12.570  70.021  1.00  0.00    -0.314 OA 
HETATM    2  N   UNL     1     -11.688  11.824  69.126  1.00  0.00    -0.300 N  
HETATM    3  O   UNL     1     -12.326  11.215  68.266  1.00  0.00    -0.532 OA 
HETATM    4  O   UNL     1     -10.276  11.671  69.112  1.00  0.00    -0.111 OA 
ENDROOT
BRANCH   4   5
HETATM    5  C   UNL     1      -9.833  10.781  68.087  1.00  0.00    -0.158 C  
BRANCH   5   6
HETATM    6  C   UNL     1      -9.104  11.597  66.988  1.00  0.00    -0.179 C  
BRANCH   6   7
HETATM    7  O   UNL     1      -9.287  11.077  65.661  1.00  0.00    -0.199 OA 
HETATM    8  O   UNL     1      -7.168  10.288  65.783  1.00  0.00    -0.121 OA 
HETATM    9  N   UNL     1      -8.192  10.366  65.108  1.00  0.00    -0.161 N  
HETATM   10  O   UNL     1      -8.447   9.879  64.011  1.00  0.00    -0.152 OA 
ENDBRANCH   6   7
BRANCH   6  11
HETATM   11  C   UNL     1      -9.358  13.128  67.065  1.00  0.00    -0.238 C  
BRANCH  11  12
HETATM   12  O   UNL     1      -8.110  13.781  67.321  1.00  0.00    -0.175 OA 
HETATM   13  O   UNL     1      -9.092  14.609  69.176  1.00  0.00    -0.138 OA 
HETATM   14  O   UNL     1      -6.872  14.430  69.024  1.00  0.00    -0.099 OA 
HETATM   15  N   UNL     1      -8.028  14.318  68.630  1.00  0.00    -0.140 N  
ENDBRANCH  11  12
BRANCH  11  16
HETATM   16  C   UNL     1     -10.031  13.695  65.798  1.00  0.00    -0.261 C  
BRANCH  16  17
HETATM   17  O   UNL     1     -11.449  13.559  65.858  1.00  0.00    -0.310 OA 
HETATM   18  N   UNL     1     -11.985  13.054  64.635  1.00  0.00    -0.370 N  
HETATM   19  O   UNL     1     -13.193  12.841  64.701  1.00  0.00    -0.776 OA 
HETATM   20  O   UNL     1     -11.205  12.919  63.696  1.00  0.00    -0.430 OA 
ENDBRANCH  16  17
ENDBRANCH  11  16
ENDBRANCH   6  11
ENDBRANCH   5   6
ENDBRANCH   4   5
TORSDOF 7
ENDMDL
MODEL      198
REMARK 921   NORMALIZED FREE ENERGY PREDICTED BY IDOCK:   -3.73 KCAL/MOL
REMARK 922        TOTAL FREE ENERGY PREDICTED BY IDOCK:   -6.20 KCAL/MOL
REMARK 923 INTER-LIGAND FREE ENERGY PREDICTED BY IDOCK:   -5.35 KCAL/MOL
REMARK 924 INTRA-LIGAND FREE ENERGY PREDICTED BY IDOCK:   -0.85 KCAL/MOL
REMARK 927      BINDING AFFINITY PREDICTED BY RF-SCORE:    0.00 PKD
ROOT
HETATM    1  O   UNL     1     -11.118   5.177  72.786  1.00  0.00    -0.251 OA 
HETATM    2  N   UNL     1     -10.838   6.359  72.967  1.00  0.00    -0.255 N  
HETATM    3  O   UNL     1     -10.627   6.974  74.014  1.00  0.00    -0.341 OA 
HETATM    4  O   UNL     1     -10.750   7.095  71.756  1.00  0.00    -0.214 OA 
ENDROOT
BRANCH   4   5
HETATM    5  C   UNL     1     -10.452   8.474  71.975  1.00  0.00    -0.336 C  
BRANCH   5   6
HETATM    6  C   UNL     1     -11.098   9.318  70.846  1.00  0.00    -0.306 C  
BRANCH   6   7
HETATM    7  O   UNL     1     -11.690  10.545  71.305  1.00  0.00    -0.306 OA 
HETATM    8  O   UNL     1     -13.663   9.441  71.410  1.00  0.00    -0.359 OA 
HETATM    9  N   UNL     1     -13.073  10.502  71.605  1.00  0.00    -0.438 N  
HETATM   10  O   UNL     1     -13.493  11.557  72.069  1.00  0.00    -0.405 OA 
ENDBRANCH   6   7
BRANCH   6  11
HETATM   11  C   UNL     1     -10.180   9.528  69.610  1.00  0.00    -0.218 C  
BRANCH  11  12
HETATM   12  O   UNL     1     -10.544  10.761  68.981  1.00  0.00    -0.195 OA 
HETATM   13  O   UNL     1     -10.532   9.606  67.044  1.00  0.00    -0.247 OA 
HETATM   14  O   UNL     1     -11.712  11.489  67.260  1.00  0.00    -0.576 OA 
HETATM   15  N   UNL     1     -10.967  10.591  67.639  1.00  0.00    -0.300 N  
ENDBRANCH  11  12
BRANCH  11  16
HETATM   16  C   UNL     1      -8.677   9.506  69.960  1.00  0.00    -0.221 C  
BRANCH  16  17
HETATM   17  O   UNL     1      -8.006  10.652  69.438  1.00  0.00    -0.154 OA 
HETATM   18  N   UNL     1      -7.197  10.321  68.309  1.00  0.00    -0.082 N  
HETATM   19  O   UNL     1      -6.687  11.310  67.788  1.00  0.00    -0.065 OA 
HETATM   20  O   UNL     1      -7.097   9.131  68.021  1.00  0.00    -0.076 OA 
ENDBRANCH  16  17
ENDBRANCH  11  16
ENDBRANCH   6  11
ENDBRANCH   5   6
ENDBRANCH   4   5
TORSDOF 7
ENDMDL
MODEL      199
REMARK 921   NORMALIZED FREE ENERGY PREDICTED BY IDOCK:   -3.73 KCAL/MOL
REMARK 922        TOTAL FREE ENERGY PREDICTED BY IDOCK:   -6.19 KCAL/MOL
REMARK 923 INTER-LIGAND FREE ENERGY PREDICTED BY IDOCK:   -5.19 KCAL/MOL
REMARK 924 INTRA-LIGAND FREE ENERGY PREDICTED BY IDOCK:   -1.00 KCAL/MOL
REMARK 927      BINDING AFFINITY PREDICTED BY RF-SCORE:    0.00 PKD
ROOT
HETATM    1  O   UNL     1      -7.404  16.560  67.803  1.00  0.00    -0.131 OA 
HETATM    2  N   UNL     1      -8.493  16.012  67.952  1.00  0.00    -0.161 N  
HETATM    3  O   UNL     1      -9.632  16.467  67.843  1.00  0.00    -0.229 OA 
HETATM    4  O   UNL     1      -8.375  14.640  68.297  1.00  0.00    -0.135 OA 
ENDROOT
BRANCH   4   5
HETATM    5  C   UNL     1      -9.643  14.015  68.495  1.00  0.00    -0.201 C  
BRANCH   5   6
HETATM    6  C   UNL     1      -9.617  12.602  67.859  1.00  0.00    -0.211 C  
BRANCH   6   7
HETATM    7  O   UNL     1     -10.087  11.562  68.733  1.00  0.00    -0.213 OA 
HETATM    8  O   UNL     1      -8.004  10.680  68.644  1.00  0.00    -0.112 OA 
HETATM    9  N   UNL     1      -9.134  10.587  69.118  1.00  0.00    -0.181 N  
HETATM   10  O   UNL     1      -9.579   9.781  69.929  1.00  0.00    -0.211 OA 
ENDBRANCH   6   7
BRANCH   6  11
HETATM   11  C   UNL     1     -10.270  12.532  66.450  1.00  0.00    -0.244 C  
BRANCH  11  12
HETATM   12  O   UNL     1     -10.722  11.192  66.228  1.00  0.00    -0.266 OA 
HETATM   13  O   UNL     1      -8.904  10.952  64.916  1.00  0.00    -0.183 OA 
HETATM   14  O   UNL     1      -9.901   9.183  65.844  1.00  0.00    -0.286 OA 
HETATM   15  N   UNL     1      -9.744  10.377  65.606  1.00  0.00    -0.219 N  
ENDBRANCH  11  12
BRANCH  11  16
HETATM   16  C   UNL     1     -11.421  13.543  66.264  1.00  0.00    -0.326 C  
BRANCH  16  17
HETATM   17  O   UNL     1     -11.062  14.573  65.345  1.00  0.00    -0.315 OA 
HETATM   18  N   UNL     1     -12.205  15.105  64.675  1.00  0.00    -0.281 N  
HETATM   19  O   UNL     1     -11.927  16.058  63.950  1.00  0.00    -0.855 OA 
HETATM   20  O   UNL     1     -13.283  14.554  64.883  1.00  0.00    -0.430 OA 
ENDBRANCH  16  17
ENDBRANCH  11  16
ENDBRANCH   6  11
ENDBRANCH   5   6
ENDBRANCH   4   5
TORSDOF 7
ENDMDL
MODEL      200
REMARK 921   NORMALIZED FREE ENERGY PREDICTED BY IDOCK:   -3.72 KCAL/MOL
REMARK 922        TOTAL FREE ENERGY PREDICTED BY IDOCK:   -6.19 KCAL/MOL
REMARK 923 INTER-LIGAND FREE ENERGY PREDICTED BY IDOCK:   -5.31 KCAL/MOL
REMARK 924 INTRA-LIGAND FREE ENERGY PREDICTED BY IDOCK:   -0.87 KCAL/MOL
REMARK 927      BINDING AFFINITY PREDICTED BY RF-SCORE:    0.00 PKD
ROOT
HETATM    1  O   UNL     1     -13.004  12.288  63.752  1.00  0.00    -0.766 OA 
HETATM    2  N   UNL     1     -11.830  12.273  64.111  1.00  0.00    -0.391 N  
HETATM    3  O   UNL     1     -10.965  11.409  63.965  1.00  0.00    -0.364 OA 
HETATM    4  O   UNL     1     -11.449  13.459  64.793  1.00  0.00    -0.315 OA 
ENDROOT
BRANCH   4   5
HETATM    5  C   UNL     1     -10.091  13.425  65.233  1.00  0.00    -0.249 C  
BRANCH   5   6
HETATM    6  C   UNL     1     -10.061  13.397  66.783  1.00  0.00    -0.260 C  
BRANCH   6   7
HETATM    7  O   UNL     1     -10.762  12.281  67.357  1.00  0.00    -0.221 OA 
HETATM    8  O   UNL     1     -11.926  13.776  68.596  1.00  0.00    -0.351 OA 
HETATM    9  N   UNL     1     -11.765  12.592  68.308  1.00  0.00    -0.327 N  
HETATM   10  O   UNL     1     -12.379  11.602  68.693  1.00  0.00    -0.394 OA 
ENDBRANCH   6   7
BRANCH   6  11
HETATM   11  C   UNL     1      -8.642  13.581  67.390  1.00  0.00    -0.208 C  
BRANCH  11  12
HETATM   12  O   UNL     1      -7.874  12.407  67.109  1.00  0.00    -0.170 OA 
HETATM   13  O   UNL     1      -7.181  12.526  69.252  1.00  0.00     0.005 OA 
HETATM   14  O   UNL     1      -7.137  10.598  68.129  1.00  0.00    -0.079 OA 
HETATM   15  N   UNL     1      -7.355  11.796  68.278  1.00  0.00    -0.088 N  
ENDBRANCH  11  12
BRANCH  11  16
HETATM   16  C   UNL     1      -7.924  14.848  66.879  1.00  0.00    -0.032 C  
BRANCH  16  17
HETATM   17  O   UNL     1      -8.317  16.002  67.621  1.00  0.00    -0.148 OA 
HETATM   18  N   UNL     1      -9.035  16.932  66.810  1.00  0.00    -0.227 N  
HETATM   19  O   UNL     1      -9.463  17.887  67.455  1.00  0.00    -0.254 OA 
HETATM   20  O   UNL     1      -9.116  16.683  65.611  1.00  0.00    -0.477 OA 
ENDBRANCH  16  17
ENDBRANCH  11  16
ENDBRANCH   6  11
ENDBRANCH   5   6
ENDBRANCH   4   5
TORSDOF 7
ENDMDL
MODEL      201
REMARK 921   NORMALIZED FREE ENERGY PREDICTED BY IDOCK:   -3.72 KCAL/MOL
REMARK 922        TOTAL FREE ENERGY PREDICTED BY IDOCK:   -6.18 KCAL/MOL
REMARK 923 INTER-LIGAND FREE ENERGY PREDICTED BY IDOCK:   -5.22 KCAL/MOL
REMARK 924 INTRA-LIGAND FREE ENERGY PREDICTED BY IDOCK:   -0.96 KCAL/MOL
REMARK 927      BINDING AFFINITY PREDICTED BY RF-SCORE:    0.00 PKD
ROOT
HETATM    1  O   UNL     1     -11.143   6.810  67.513  1.00  0.00    -0.301 OA 
HETATM    2  N   UNL     1     -10.379   7.524  66.870  1.00  0.00    -0.307 N  
HETATM    3  O   UNL     1      -9.279   7.269  66.377  1.00  0.00    -0.165 OA 
HETATM    4  O   UNL     1     -10.880   8.840  66.685  1.00  0.00    -0.079 OA 
ENDROOT
BRANCH   4   5
HETATM    5  C   UNL     1      -9.975   9.673  65.961  1.00  0.00    -0.274 C  
BRANCH   5   6
HETATM    6  C   UNL     1      -9.779  11.002  66.736  1.00  0.00    -0.193 C  
BRANCH   6   7
HETATM    7  O   UNL     1      -8.584  11.038  67.534  1.00  0.00    -0.126 OA 
HETATM    8  O   UNL     1      -9.897  10.676  69.343  1.00  0.00    -0.210 OA 
HETATM    9  N   UNL     1      -8.751  10.828  68.925  1.00  0.00    -0.159 N  
HETATM   10  O   UNL     1      -7.685  10.788  69.532  1.00  0.00    -0.139 OA 
ENDBRANCH   6   7
BRANCH   6  11
HETATM   11  C   UNL     1      -9.945  12.274  65.860  1.00  0.00    -0.254 C  
BRANCH  11  12
HETATM   12  O   UNL     1     -11.307  12.347  65.423  1.00  0.00    -0.313 OA 
HETATM   13  O   UNL     1     -10.474  12.487  63.331  1.00  0.00    -0.397 OA 
HETATM   14  O   UNL     1     -12.552  11.762  63.702  1.00  0.00    -0.470 OA 
HETATM   15  N   UNL     1     -11.445  12.182  64.022  1.00  0.00    -0.379 N  
ENDBRANCH  11  12
BRANCH  11  16
HETATM   16  C   UNL     1      -9.526  13.570  66.586  1.00  0.00    -0.265 C  
BRANCH  16  17
HETATM   17  O   UNL     1     -10.319  13.791  67.751  1.00  0.00    -0.235 OA 
HETATM   18  N   UNL     1     -11.098  14.982  67.643  1.00  0.00    -0.306 N  
HETATM   19  O   UNL     1     -11.858  15.138  68.596  1.00  0.00    -0.339 OA 
HETATM   20  O   UNL     1     -10.906  15.689  66.656  1.00  0.00    -0.313 OA 
ENDBRANCH  16  17
ENDBRANCH  11  16
ENDBRANCH   6  11
ENDBRANCH   5   6
ENDBRANCH   4   5
TORSDOF 7
ENDMDL
MODEL      202
REMARK 921   NORMALIZED FREE ENERGY PREDICTED BY IDOCK:   -3.71 KCAL/MOL
REMARK 922        TOTAL FREE ENERGY PREDICTED BY IDOCK:   -6.16 KCAL/MOL
REMARK 923 INTER-LIGAND FREE ENERGY PREDICTED BY IDOCK:   -5.43 KCAL/MOL
REMARK 924 INTRA-LIGAND FREE ENERGY PREDICTED BY IDOCK:   -0.73 KCAL/MOL
REMARK 927      BINDING AFFINITY PREDICTED BY RF-SCORE:    0.00 PKD
ROOT
HETATM    1  O   UNL     1      -9.840  10.876  62.945  1.00  0.00    -0.313 OA 
HETATM    2  N   UNL     1      -9.695  10.611  64.136  1.00  0.00    -0.293 N  
HETATM    3  O   UNL     1      -9.646   9.521  64.707  1.00  0.00    -0.216 OA 
HETATM    4  O   UNL     1      -9.563  11.771  64.944  1.00  0.00    -0.210 OA 
ENDROOT
BRANCH   4   5
HETATM    5  C   UNL     1      -9.422  11.458  66.330  1.00  0.00    -0.204 C  
BRANCH   5   6
HETATM    6  C   UNL     1      -9.686  12.736  67.167  1.00  0.00    -0.216 C  
BRANCH   6   7
HETATM    7  O   UNL     1      -8.906  13.871  66.756  1.00  0.00    -0.224 OA 
HETATM    8  O   UNL     1      -8.194  14.035  68.899  1.00  0.00    -0.094 OA 
HETATM    9  N   UNL     1      -8.117  14.488  67.758  1.00  0.00    -0.145 N  
HETATM   10  O   UNL     1      -7.415  15.394  67.321  1.00  0.00    -0.186 OA 
ENDBRANCH   6   7
BRANCH   6  11
HETATM   11  C   UNL     1     -11.192  13.081  67.335  1.00  0.00    -0.288 C  
BRANCH  11  12
HETATM   12  O   UNL     1     -11.558  12.856  68.700  1.00  0.00    -0.272 OA 
HETATM   13  O   UNL     1     -12.083  10.758  68.061  1.00  0.00    -0.474 OA 
HETATM   14  O   UNL     1     -11.588  11.229  70.186  1.00  0.00    -0.310 OA 
HETATM   15  N   UNL     1     -11.758  11.485  68.998  1.00  0.00    -0.307 N  
ENDBRANCH  11  12
BRANCH  11  16
HETATM   16  C   UNL     1     -11.537  14.521  66.899  1.00  0.00    -0.385 C  
BRANCH  16  17
HETATM   17  O   UNL     1     -11.377  15.441  67.976  1.00  0.00    -0.327 OA 
HETATM   18  N   UNL     1     -10.742  16.647  67.552  1.00  0.00    -0.310 N  
HETATM   19  O   UNL     1     -10.682  17.489  68.445  1.00  0.00    -0.356 OA 
HETATM   20  O   UNL     1     -10.331  16.686  66.395  1.00  0.00    -0.303 OA 
ENDBRANCH  16  17
ENDBRANCH  11  16
ENDBRANCH   6  11
ENDBRANCH   5   6
ENDBRANCH   4   5
TORSDOF 7
ENDMDL
MODEL      203
REMARK 921   NORMALIZED FREE ENERGY PREDICTED BY IDOCK:   -3.71 KCAL/MOL
REMARK 922        TOTAL FREE ENERGY PREDICTED BY IDOCK:   -6.16 KCAL/MOL
REMARK 923 INTER-LIGAND FREE ENERGY PREDICTED BY IDOCK:   -5.24 KCAL/MOL
REMARK 924 INTRA-LIGAND FREE ENERGY PREDICTED BY IDOCK:   -0.92 KCAL/MOL
REMARK 927      BINDING AFFINITY PREDICTED BY RF-SCORE:    0.00 PKD
ROOT
HETATM    1  O   UNL     1      -8.496  10.958  68.874  1.00  0.00    -0.153 OA 
HETATM    2  N   UNL     1      -8.137  10.114  69.692  1.00  0.00    -0.169 N  
HETATM    3  O   UNL     1      -7.291  10.183  70.585  1.00  0.00    -0.306 OA 
HETATM    4  O   UNL     1      -8.833   8.885  69.554  1.00  0.00    -0.138 OA 
ENDROOT
BRANCH   4   5
HETATM    5  C   UNL     1      -8.392   7.899  70.489  1.00  0.00    -0.124 C  
BRANCH   5   6
HETATM    6  C   UNL     1      -9.627   7.160  71.066  1.00  0.00    -0.158 C  
BRANCH   6   7
HETATM    7  O   UNL     1      -9.439   5.742  71.212  1.00  0.00    -0.152 OA 
HETATM    8  O   UNL     1     -10.908   5.472  69.511  1.00  0.00    -0.311 OA 
HETATM    9  N   UNL     1     -10.157   4.918  70.310  1.00  0.00    -0.252 N  
HETATM   10  O   UNL     1      -9.886   3.728  70.435  1.00  0.00    -0.185 OA 
ENDBRANCH   6   7
BRANCH   6  11
HETATM   11  C   UNL     1     -10.212   7.815  72.348  1.00  0.00    -0.247 C  
BRANCH  11  12
HETATM   12  O   UNL     1      -9.246   8.736  72.867  1.00  0.00    -0.278 OA 
HETATM   13  O   UNL     1      -8.796   7.160  74.417  1.00  0.00    -0.194 OA 
HETATM   14  O   UNL     1      -7.293   8.723  73.887  1.00  0.00    -0.391 OA 
HETATM   15  N   UNL     1      -8.369   8.141  73.809  1.00  0.00    -0.248 N  
ENDBRANCH  11  12
BRANCH  11  16
HETATM   16  C   UNL     1     -11.568   8.512  72.108  1.00  0.00    -0.377 C  
BRANCH  16  17
HETATM   17  O   UNL     1     -11.410   9.703  71.339  1.00  0.00    -0.361 OA 
HETATM   18  N   UNL     1     -12.539  10.568  71.466  1.00  0.00    -0.410 N  
HETATM   19  O   UNL     1     -12.379  11.641  70.888  1.00  0.00    -0.374 OA 
HETATM   20  O   UNL     1     -13.502  10.142  72.098  1.00  0.00    -0.411 OA 
ENDBRANCH  16  17
ENDBRANCH  11  16
ENDBRANCH   6  11
ENDBRANCH   5   6
ENDBRANCH   4   5
TORSDOF 7
ENDMDL
MODEL      204
REMARK 921   NORMALIZED FREE ENERGY PREDICTED BY IDOCK:   -3.70 KCAL/MOL
REMARK 922        TOTAL FREE ENERGY PREDICTED BY IDOCK:   -6.16 KCAL/MOL
REMARK 923 INTER-LIGAND FREE ENERGY PREDICTED BY IDOCK:   -5.35 KCAL/MOL
REMARK 924 INTRA-LIGAND FREE ENERGY PREDICTED BY IDOCK:   -0.81 KCAL/MOL
REMARK 927      BINDING AFFINITY PREDICTED BY RF-SCORE:    0.00 PKD
ROOT
HETATM    1  O   UNL     1      -8.263   8.733  70.447  1.00  0.00    -0.100 OA 
HETATM    2  N   UNL     1      -8.358   9.522  69.511  1.00  0.00    -0.131 N  
HETATM    3  O   UNL     1      -7.564  10.371  69.104  1.00  0.00    -0.095 OA 
HETATM    4  O   UNL     1      -9.589   9.402  68.814  1.00  0.00    -0.150 OA 
ENDROOT
BRANCH   4   5
HETATM    5  C   UNL     1      -9.706  10.341  67.744  1.00  0.00    -0.156 C  
BRANCH   5   6
HETATM    6  C   UNL     1     -10.950  11.233  67.987  1.00  0.00    -0.247 C  
BRANCH   6   7
HETATM    7  O   UNL     1     -11.028  11.772  69.317  1.00  0.00    -0.230 OA 
HETATM    8  O   UNL     1     -12.943  10.592  69.578  1.00  0.00    -0.089 OA 
HETATM    9  N   UNL     1     -12.127  11.347  70.104  1.00  0.00    -0.344 N  
HETATM   10  O   UNL     1     -12.085  11.778  71.252  1.00  0.00    -0.117 OA 
ENDBRANCH   6   7
BRANCH   6  11
HETATM   11  C   UNL     1     -11.173  12.315  66.894  1.00  0.00    -0.312 C  
BRANCH  11  12
HETATM   12  O   UNL     1     -10.478  13.503  67.287  1.00  0.00    -0.246 OA 
HETATM   13  O   UNL     1     -12.427  14.583  66.938  1.00  0.00    -0.229 OA 
HETATM   14  O   UNL     1     -10.868  15.422  68.298  1.00  0.00    -0.251 OA 
HETATM   15  N   UNL     1     -11.348  14.596  67.528  1.00  0.00    -0.333 N  
ENDBRANCH  11  12
BRANCH  11  16
HETATM   16  C   UNL     1     -10.736  11.856  65.487  1.00  0.00    -0.283 C  
BRANCH  16  17
HETATM   17  O   UNL     1     -10.898  12.900  64.528  1.00  0.00    -0.321 OA 
HETATM   18  N   UNL     1     -12.208  12.897  63.960  1.00  0.00    -0.417 N  
HETATM   19  O   UNL     1     -12.396  13.846  63.202  1.00  0.00    -0.696 OA 
HETATM   20  O   UNL     1     -12.951  11.970  64.271  1.00  0.00    -0.600 OA 
ENDBRANCH  16  17
ENDBRANCH  11  16
ENDBRANCH   6  11
ENDBRANCH   5   6
ENDBRANCH   4   5
TORSDOF 7
ENDMDL
MODEL      205
REMARK 921   NORMALIZED FREE ENERGY PREDICTED BY IDOCK:   -3.70 KCAL/MOL
REMARK 922        TOTAL FREE ENERGY PREDICTED BY IDOCK:   -6.15 KCAL/MOL
REMARK 923 INTER-LIGAND FREE ENERGY PREDICTED BY IDOCK:   -4.96 KCAL/MOL
REMARK 924 INTRA-LIGAND FREE ENERGY PREDICTED BY IDOCK:   -1.19 KCAL/MOL
REMARK 927      BINDING AFFINITY PREDICTED BY RF-SCORE:    0.00 PKD
ROOT
HETATM    1  O   UNL     1     -10.653   5.497  68.179  1.00  0.00    -0.195 OA 
HETATM    2  N   UNL     1     -10.838   5.800  69.355  1.00  0.00    -0.333 N  
HETATM    3  O   UNL     1     -10.602   5.168  70.385  1.00  0.00    -0.249 OA 
HETATM    4  O   UNL     1     -11.411   7.090  69.505  1.00  0.00    -0.189 OA 
ENDROOT
BRANCH   4   5
HETATM    5  C   UNL     1     -11.649   7.426  70.872  1.00  0.00    -0.291 C  
BRANCH   5   6
HETATM    6  C   UNL     1     -11.101   8.850  71.147  1.00  0.00    -0.285 C  
BRANCH   6   7
HETATM    7  O   UNL     1     -11.994   9.679  71.910  1.00  0.00    -0.370 OA 
HETATM    8  O   UNL     1     -12.179  10.997  70.079  1.00  0.00    -0.317 OA 
HETATM    9  N   UNL     1     -12.541  10.799  71.237  1.00  0.00    -0.403 N  
HETATM   10  O   UNL     1     -13.357  11.412  71.918  1.00  0.00    -0.435 OA 
ENDBRANCH   6   7
BRANCH   6  11
HETATM   11  C   UNL     1      -9.651   8.871  71.705  1.00  0.00    -0.282 C  
BRANCH  11  12
HETATM   12  O   UNL     1      -9.372   7.594  72.289  1.00  0.00    -0.139 OA 
HETATM   13  O   UNL     1      -8.392   8.740  73.967  1.00  0.00    -0.285 OA 
HETATM   14  O   UNL     1      -9.160   6.666  74.277  1.00  0.00    -0.163 OA 
HETATM   15  N   UNL     1      -8.936   7.688  73.635  1.00  0.00    -0.232 N  
ENDBRANCH  11  12
BRANCH  11  16
HETATM   16  C   UNL     1      -8.596   9.234  70.639  1.00  0.00    -0.225 C  
BRANCH  16  17
HETATM   17  O   UNL     1      -9.209   9.565  69.394  1.00  0.00    -0.156 OA 
HETATM   18  N   UNL     1      -8.878   8.622  68.375  1.00  0.00    -0.142 N  
HETATM   19  O   UNL     1      -9.473   8.837  67.321  1.00  0.00    -0.149 OA 
HETATM   20  O   UNL     1      -8.054   7.756  68.659  1.00  0.00    -0.123 OA 
ENDBRANCH  16  17
ENDBRANCH  11  16
ENDBRANCH   6  11
ENDBRANCH   5   6
ENDBRANCH   4   5
TORSDOF 7
ENDMDL
MODEL      206
REMARK 921   NORMALIZED FREE ENERGY PREDICTED BY IDOCK:   -3.69 KCAL/MOL
REMARK 922        TOTAL FREE ENERGY PREDICTED BY IDOCK:   -6.14 KCAL/MOL
REMARK 923 INTER-LIGAND FREE ENERGY PREDICTED BY IDOCK:   -5.24 KCAL/MOL
REMARK 924 INTRA-LIGAND FREE ENERGY PREDICTED BY IDOCK:   -0.90 KCAL/MOL
REMARK 927      BINDING AFFINITY PREDICTED BY RF-SCORE:    0.00 PKD
ROOT
HETATM    1  O   UNL     1     -13.255  10.620  71.832  1.00  0.00    -0.461 OA 
HETATM    2  N   UNL     1     -13.436   9.416  71.991  1.00  0.00    -0.424 N  
HETATM    3  O   UNL     1     -14.369   8.816  72.528  1.00  0.00    -0.562 OA 
HETATM    4  O   UNL     1     -12.385   8.627  71.452  1.00  0.00    -0.301 OA 
ENDROOT
BRANCH   4   5
HETATM    5  C   UNL     1     -12.587   7.229  71.664  1.00  0.00    -0.368 C  
BRANCH   5   6
HETATM    6  C   UNL     1     -11.234   6.573  72.041  1.00  0.00    -0.273 C  
BRANCH   6   7
HETATM    7  O   UNL     1     -11.328   5.166  72.318  1.00  0.00    -0.126 OA 
HETATM    8  O   UNL     1     -10.438   5.606  74.353  1.00  0.00    -0.268 OA 
HETATM    9  N   UNL     1     -10.896   4.748  73.601  1.00  0.00    -0.283 N  
HETATM   10  O   UNL     1     -11.082   3.551  73.800  1.00  0.00    -0.229 OA 
ENDBRANCH   6   7
BRANCH   6  11
HETATM   11  C   UNL     1     -10.075   6.908  71.062  1.00  0.00    -0.193 C  
BRANCH  11  12
HETATM   12  O   UNL     1      -8.872   7.062  71.821  1.00  0.00    -0.126 OA 
HETATM   13  O   UNL     1      -9.033   9.263  71.354  1.00  0.00    -0.311 OA 
HETATM   14  O   UNL     1      -7.887   8.538  73.127  1.00  0.00    -0.343 OA 
HETATM   15  N   UNL     1      -8.581   8.416  72.123  1.00  0.00    -0.183 N  
ENDBRANCH  11  12
BRANCH  11  16
HETATM   16  C   UNL     1      -9.897   5.853  69.949  1.00  0.00    -0.174 C  
BRANCH  16  17
HETATM   17  O   UNL     1     -10.585   6.234  68.759  1.00  0.00    -0.205 OA 
HETATM   18  N   UNL     1      -9.852   5.876  67.587  1.00  0.00    -0.115 N  
HETATM   19  O   UNL     1     -10.472   6.110  66.552  1.00  0.00    -0.192 OA 
HETATM   20  O   UNL     1      -8.726   5.413  67.751  1.00  0.00    -0.108 OA 
ENDBRANCH  16  17
ENDBRANCH  11  16
ENDBRANCH   6  11
ENDBRANCH   5   6
ENDBRANCH   4   5
TORSDOF 7
ENDMDL
MODEL      207
REMARK 921   NORMALIZED FREE ENERGY PREDICTED BY IDOCK:   -3.68 KCAL/MOL
REMARK 922        TOTAL FREE ENERGY PREDICTED BY IDOCK:   -6.13 KCAL/MOL
REMARK 923 INTER-LIGAND FREE ENERGY PREDICTED BY IDOCK:   -5.34 KCAL/MOL
REMARK 924 INTRA-LIGAND FREE ENERGY PREDICTED BY IDOCK:   -0.78 KCAL/MOL
REMARK 927      BINDING AFFINITY PREDICTED BY RF-SCORE:    0.00 PKD
ROOT
HETATM    1  O   UNL     1     -12.708  13.467  71.356  1.00  0.00    -0.350 OA 
HETATM    2  N   UNL     1     -12.514  12.368  70.842  1.00  0.00    -0.342 N  
HETATM    3  O   UNL     1     -12.701  11.237  71.290  1.00  0.00    -0.397 OA 
HETATM    4  O   UNL     1     -11.998  12.463  69.523  1.00  0.00    -0.298 OA 
ENDROOT
BRANCH   4   5
HETATM    5  C   UNL     1     -11.749  11.184  68.940  1.00  0.00    -0.337 C  
BRANCH   5   6
HETATM    6  C   UNL     1     -11.348  11.373  67.454  1.00  0.00    -0.288 C  
BRANCH   6   7
HETATM    7  O   UNL     1     -11.158  12.746  67.074  1.00  0.00    -0.260 OA 
HETATM    8  O   UNL     1     -12.594  12.371  65.365  1.00  0.00    -0.637 OA 
HETATM    9  N   UNL     1     -11.893  13.194  65.949  1.00  0.00    -0.384 N  
HETATM   10  O   UNL     1     -11.748  14.394  65.733  1.00  0.00    -0.353 OA 
ENDBRANCH   6   7
BRANCH   6  11
HETATM   11  C   UNL     1     -10.175  10.463  66.996  1.00  0.00    -0.225 C  
BRANCH  11  12
HETATM   12  O   UNL     1      -8.982  10.895  67.659  1.00  0.00    -0.139 OA 
HETATM   13  O   UNL     1      -8.003  10.824  65.628  1.00  0.00    -0.156 OA 
HETATM   14  O   UNL     1      -7.184  12.105  67.263  1.00  0.00    -0.135 OA 
HETATM   15  N   UNL     1      -7.971  11.311  66.757  1.00  0.00    -0.155 N  
ENDBRANCH  11  12
BRANCH  11  16
HETATM   16  C   UNL     1     -10.437   8.963  67.247  1.00  0.00    -0.277 C  
BRANCH  16  17
HETATM   17  O   UNL     1      -9.262   8.303  67.715  1.00  0.00    -0.134 OA 
HETATM   18  N   UNL     1      -9.579   7.194  68.556  1.00  0.00    -0.139 N  
HETATM   19  O   UNL     1      -8.583   6.556  68.892  1.00  0.00    -0.124 OA 
HETATM   20  O   UNL     1     -10.761   7.031  68.846  1.00  0.00    -0.216 OA 
ENDBRANCH  16  17
ENDBRANCH  11  16
ENDBRANCH   6  11
ENDBRANCH   5   6
ENDBRANCH   4   5
TORSDOF 7
ENDMDL
MODEL      208
REMARK 921   NORMALIZED FREE ENERGY PREDICTED BY IDOCK:   -3.68 KCAL/MOL
REMARK 922        TOTAL FREE ENERGY PREDICTED BY IDOCK:   -6.12 KCAL/MOL
REMARK 923 INTER-LIGAND FREE ENERGY PREDICTED BY IDOCK:   -5.35 KCAL/MOL
REMARK 924 INTRA-LIGAND FREE ENERGY PREDICTED BY IDOCK:   -0.78 KCAL/MOL
REMARK 927      BINDING AFFINITY PREDICTED BY RF-SCORE:    0.00 PKD
ROOT
HETATM    1  O   UNL     1     -10.473  13.226  65.373  1.00  0.00    -0.283 OA 
HETATM    2  N   UNL     1     -11.334  13.009  66.221  1.00  0.00    -0.305 N  
HETATM    3  O   UNL     1     -12.409  13.575  66.426  1.00  0.00    -0.407 OA 
HETATM    4  O   UNL     1     -11.003  11.924  67.076  1.00  0.00    -0.248 OA 
ENDROOT
BRANCH   4   5
HETATM    5  C   UNL     1     -11.994  11.694  68.077  1.00  0.00    -0.117 C  
BRANCH   5   6
HETATM    6  C   UNL     1     -11.354  11.878  69.476  1.00  0.00    -0.236 C  
BRANCH   6   7
HETATM    7  O   UNL     1     -11.958  12.923  70.258  1.00  0.00    -0.341 OA 
HETATM    8  O   UNL     1     -10.523  14.364  69.262  1.00  0.00    -0.221 OA 
HETATM    9  N   UNL     1     -11.455  14.232  70.053  1.00  0.00    -0.247 N  
HETATM   10  O   UNL     1     -12.071  15.083  70.687  1.00  0.00    -0.276 OA 
ENDBRANCH   6   7
BRANCH   6  11
HETATM   11  C   UNL     1     -11.194  10.556  70.277  1.00  0.00    -0.313 C  
BRANCH  11  12
HETATM   12  O   UNL     1     -12.496  10.006  70.506  1.00  0.00    -0.256 OA 
HETATM   13  O   UNL     1     -11.654   9.201  72.437  1.00  0.00    -0.204 OA 
HETATM   14  O   UNL     1     -13.847   9.530  72.180  1.00  0.00    -0.390 OA 
HETATM   15  N   UNL     1     -12.670   9.540  71.833  1.00  0.00    -0.392 N  
ENDBRANCH  11  12
BRANCH  11  16
HETATM   16  C   UNL     1     -10.275   9.532  69.579  1.00  0.00    -0.213 C  
BRANCH  16  17
HETATM   17  O   UNL     1     -11.028   8.461  69.013  1.00  0.00    -0.058 OA 
HETATM   18  N   UNL     1     -10.797   7.231  69.700  1.00  0.00    -0.238 N  
HETATM   19  O   UNL     1     -11.509   6.318  69.288  1.00  0.00    -0.411 OA 
HETATM   20  O   UNL     1      -9.933   7.232  70.574  1.00  0.00    -0.190 OA 
ENDBRANCH  16  17
ENDBRANCH  11  16
ENDBRANCH   6  11
ENDBRANCH   5   6
ENDBRANCH   4   5
TORSDOF 7
ENDMDL
MODEL      209
REMARK 921   NORMALIZED FREE ENERGY PREDICTED BY IDOCK:   -3.68 KCAL/MOL
REMARK 922        TOTAL FREE ENERGY PREDICTED BY IDOCK:   -6.12 KCAL/MOL
REMARK 923 INTER-LIGAND FREE ENERGY PREDICTED BY IDOCK:   -5.18 KCAL/MOL
REMARK 924 INTRA-LIGAND FREE ENERGY PREDICTED BY IDOCK:   -0.94 KCAL/MOL
REMARK 927      BINDING AFFINITY PREDICTED BY RF-SCORE:    0.00 PKD
ROOT
HETATM    1  O   UNL     1      -6.363  11.214  69.514  1.00  0.00    -0.075 OA 
HETATM    2  N   UNL     1      -7.015  10.396  70.158  1.00  0.00    -0.157 N  
HETATM    3  O   UNL     1      -6.740   9.807  71.205  1.00  0.00    -0.298 OA 
HETATM    4  O   UNL     1      -8.278  10.118  69.574  1.00  0.00    -0.148 OA 
ENDROOT
BRANCH   4   5
HETATM    5  C   UNL     1      -9.020   9.147  70.312  1.00  0.00    -0.217 C  
BRANCH   5   6
HETATM    6  C   UNL     1     -10.533   9.348  70.037  1.00  0.00    -0.234 C  
BRANCH   6   7
HETATM    7  O   UNL     1     -11.316   9.559  71.224  1.00  0.00    -0.319 OA 
HETATM    8  O   UNL     1     -12.173   7.487  70.908  1.00  0.00    -0.279 OA 
HETATM    9  N   UNL     1     -12.151   8.487  71.623  1.00  0.00    -0.303 N  
HETATM   10  O   UNL     1     -12.725   8.701  72.687  1.00  0.00    -0.365 OA 
ENDBRANCH   6   7
BRANCH   6  11
HETATM   11  C   UNL     1     -10.839  10.395  68.930  1.00  0.00    -0.236 C  
BRANCH  11  12
HETATM   12  O   UNL     1     -11.011   9.704  67.688  1.00  0.00    -0.268 OA 
HETATM   13  O   UNL     1      -9.744  11.332  66.776  1.00  0.00    -0.189 OA 
HETATM   14  O   UNL     1      -9.920   9.327  65.811  1.00  0.00    -0.299 OA 
HETATM   15  N   UNL     1     -10.139  10.172  66.673  1.00  0.00    -0.214 N  
ENDBRANCH  11  12
BRANCH  11  16
HETATM   16  C   UNL     1     -12.068  11.273  69.250  1.00  0.00    -0.303 C  
BRANCH  16  17
HETATM   17  O   UNL     1     -11.736  12.660  69.217  1.00  0.00    -0.292 OA 
HETATM   18  N   UNL     1     -12.139  13.328  70.413  1.00  0.00    -0.352 N  
HETATM   19  O   UNL     1     -11.777  14.502  70.443  1.00  0.00    -0.278 OA 
HETATM   20  O   UNL     1     -12.790  12.677  71.226  1.00  0.00    -0.355 OA 
ENDBRANCH  16  17
ENDBRANCH  11  16
ENDBRANCH   6  11
ENDBRANCH   5   6
ENDBRANCH   4   5
TORSDOF 7
ENDMDL
MODEL      210
REMARK 921   NORMALIZED FREE ENERGY PREDICTED BY IDOCK:   -3.66 KCAL/MOL
REMARK 922        TOTAL FREE ENERGY PREDICTED BY IDOCK:   -6.10 KCAL/MOL
REMARK 923 INTER-LIGAND FREE ENERGY PREDICTED BY IDOCK:   -5.25 KCAL/MOL
REMARK 924 INTRA-LIGAND FREE ENERGY PREDICTED BY IDOCK:   -0.85 KCAL/MOL
REMARK 927      BINDING AFFINITY PREDICTED BY RF-SCORE:    0.00 PKD
ROOT
HETATM    1  O   UNL     1     -13.613  14.019  65.449  1.00  0.00    -0.593 OA 
HETATM    2  N   UNL     1     -12.486  13.576  65.654  1.00  0.00    -0.475 N  
HETATM    3  O   UNL     1     -12.129  12.469  66.059  1.00  0.00    -0.557 OA 
HETATM    4  O   UNL     1     -11.464  14.517  65.362  1.00  0.00    -0.332 OA 
ENDROOT
BRANCH   4   5
HETATM    5  C   UNL     1     -10.158  14.007  65.629  1.00  0.00    -0.322 C  
BRANCH   5   6
HETATM    6  C   UNL     1      -9.582  14.717  66.881  1.00  0.00    -0.241 C  
BRANCH   6   7
HETATM    7  O   UNL     1     -10.480  15.673  67.471  1.00  0.00    -0.272 OA 
HETATM    8  O   UNL     1      -9.483  17.252  66.190  1.00  0.00    -0.390 OA 
HETATM    9  N   UNL     1     -10.363  17.009  67.014  1.00  0.00    -0.309 N  
HETATM   10  O   UNL     1     -11.212  17.753  67.494  1.00  0.00    -0.059 OA 
ENDBRANCH   6   7
BRANCH   6  11
HETATM   11  C   UNL     1      -8.974  13.749  67.933  1.00  0.00    -0.193 C  
BRANCH  11  12
HETATM   12  O   UNL     1      -8.630  12.525  67.275  1.00  0.00    -0.175 OA 
HETATM   13  O   UNL     1      -9.836  11.494  68.879  1.00  0.00    -0.173 OA 
HETATM   14  O   UNL     1      -9.472  10.523  66.902  1.00  0.00    -0.161 OA 
HETATM   15  N   UNL     1      -9.389  11.420  67.735  1.00  0.00    -0.159 N  
ENDBRANCH  11  12
BRANCH  11  16
HETATM   16  C   UNL     1      -7.756  14.342  68.672  1.00  0.00    -0.138 C  
BRANCH  16  17
HETATM   17  O   UNL     1      -8.083  15.582  69.299  1.00  0.00    -0.217 OA 
HETATM   18  N   UNL     1      -7.428  16.682  68.668  1.00  0.00    -0.198 N  
HETATM   19  O   UNL     1      -7.772  17.766  69.134  1.00  0.00    -0.166 OA 
HETATM   20  O   UNL     1      -6.617  16.418  67.785  1.00  0.00    -0.120 OA 
ENDBRANCH  16  17
ENDBRANCH  11  16
ENDBRANCH   6  11
ENDBRANCH   5   6
ENDBRANCH   4   5
TORSDOF 7
ENDMDL
MODEL      211
REMARK 921   NORMALIZED FREE ENERGY PREDICTED BY IDOCK:   -3.66 KCAL/MOL
REMARK 922        TOTAL FREE ENERGY PREDICTED BY IDOCK:   -6.10 KCAL/MOL
REMARK 923 INTER-LIGAND FREE ENERGY PREDICTED BY IDOCK:   -6.23 KCAL/MOL
REMARK 924 INTRA-LIGAND FREE ENERGY PREDICTED BY IDOCK:    0.13 KCAL/MOL
REMARK 927      BINDING AFFINITY PREDICTED BY RF-SCORE:    0.00 PKD
ROOT
HETATM    1  O   UNL     1     -13.154  10.612  71.922  1.00  0.00    -0.469 OA 
HETATM    2  N   UNL     1     -12.400  10.302  71.004  1.00  0.00    -0.347 N  
HETATM    3  O   UNL     1     -11.865   9.223  70.744  1.00  0.00    -0.281 OA 
HETATM    4  O   UNL     1     -12.131  11.384  70.125  1.00  0.00    -0.319 OA 
ENDROOT
BRANCH   4   5
HETATM    5  C   UNL     1     -11.232  11.025  69.075  1.00  0.00    -0.258 C  
BRANCH   5   6
HETATM    6  C   UNL     1     -11.419  12.007  67.890  1.00  0.00    -0.330 C  
BRANCH   6   7
HETATM    7  O   UNL     1     -11.457  13.390  68.282  1.00  0.00    -0.274 OA 
HETATM    8  O   UNL     1      -9.232  13.241  68.671  1.00  0.00    -0.115 OA 
HETATM    9  N   UNL     1     -10.222  13.970  68.664  1.00  0.00    -0.239 N  
HETATM   10  O   UNL     1     -10.314  15.170  68.903  1.00  0.00    -0.227 OA 
ENDBRANCH   6   7
BRANCH   6  11
HETATM   11  C   UNL     1     -10.449  11.755  66.702  1.00  0.00    -0.224 C  
BRANCH  11  12
HETATM   12  O   UNL     1     -10.607  10.399  66.271  1.00  0.00    -0.198 OA 
HETATM   13  O   UNL     1      -8.356  10.329  66.153  1.00  0.00    -0.131 OA 
HETATM   14  O   UNL     1      -9.559   8.464  66.392  1.00  0.00    -0.213 OA 
HETATM   15  N   UNL     1      -9.389   9.674  66.277  1.00  0.00    -0.172 N  
ENDBRANCH  11  12
BRANCH  11  16
HETATM   16  C   UNL     1     -10.657  12.737  65.531  1.00  0.00    -0.281 C  
BRANCH  16  17
HETATM   17  O   UNL     1     -11.255  12.089  64.410  1.00  0.00    -0.315 OA 
HETATM   18  N   UNL     1     -12.615  12.486  64.232  1.00  0.00    -0.430 N  
HETATM   19  O   UNL     1     -13.116  12.011  63.215  1.00  0.00    -0.701 OA 
HETATM   20  O   UNL     1     -13.103  13.211  65.094  1.00  0.00    -0.703 OA 
ENDBRANCH  16  17
ENDBRANCH  11  16
ENDBRANCH   6  11
ENDBRANCH   5   6
ENDBRANCH   4   5
TORSDOF 7
ENDMDL
MODEL      212
REMARK 921   NORMALIZED FREE ENERGY PREDICTED BY IDOCK:   -3.64 KCAL/MOL
REMARK 922        TOTAL FREE ENERGY PREDICTED BY IDOCK:   -6.08 KCAL/MOL
REMARK 923 INTER-LIGAND FREE ENERGY PREDICTED BY IDOCK:   -5.31 KCAL/MOL
REMARK 924 INTRA-LIGAND FREE ENERGY PREDICTED BY IDOCK:   -0.77 KCAL/MOL
REMARK 927      BINDING AFFINITY PREDICTED BY RF-SCORE:    0.00 PKD
ROOT
HETATM    1  O   UNL     1      -6.099  12.031  66.576  1.00  0.00    -0.158 OA 
HETATM    2  N   UNL     1      -6.966  12.160  67.436  1.00  0.00    -0.134 N  
HETATM    3  O   UNL     1      -7.351  13.168  68.031  1.00  0.00    -0.097 OA 
HETATM    4  O   UNL     1      -7.602  10.934  67.764  1.00  0.00    -0.093 OA 
ENDROOT
BRANCH   4   5
HETATM    5  C   UNL     1      -8.589  11.086  68.785  1.00  0.00    -0.144 C  
BRANCH   5   6
HETATM    6  C   UNL     1      -9.984  10.754  68.194  1.00  0.00    -0.160 C  
BRANCH   6   7
HETATM    7  O   UNL     1     -10.242   9.345  68.072  1.00  0.00    -0.182 OA 
HETATM    8  O   UNL     1     -10.205   9.633  65.826  1.00  0.00    -0.261 OA 
HETATM    9  N   UNL     1     -10.320   8.833  66.753  1.00  0.00    -0.279 N  
HETATM   10  O   UNL     1     -10.457   7.614  66.723  1.00  0.00    -0.314 OA 
ENDBRANCH   6   7
BRANCH   6  11
HETATM   11  C   UNL     1     -11.155  11.514  68.875  1.00  0.00    -0.232 C  
BRANCH  11  12
HETATM   12  O   UNL     1     -12.019  12.023  67.853  1.00  0.00    -0.526 OA 
HETATM   13  O   UNL     1     -11.708  14.045  68.803  1.00  0.00    -0.308 OA 
HETATM   14  O   UNL     1     -12.317  13.854  66.664  1.00  0.00    -0.435 OA 
HETATM   15  N   UNL     1     -12.004  13.438  67.775  1.00  0.00    -0.347 N  
ENDBRANCH  11  12
BRANCH  11  16
HETATM   16  C   UNL     1     -11.939  10.644  69.881  1.00  0.00    -0.310 C  
BRANCH  16  17
HETATM   17  O   UNL     1     -11.099  10.192  70.941  1.00  0.00    -0.338 OA 
HETATM   18  N   UNL     1     -11.694   9.115  71.664  1.00  0.00    -0.353 N  
HETATM   19  O   UNL     1     -10.945   8.650  72.520  1.00  0.00    -0.316 OA 
HETATM   20  O   UNL     1     -12.846   8.809  71.366  1.00  0.00    -0.322 OA 
ENDBRANCH  16  17
ENDBRANCH  11  16
ENDBRANCH   6  11
ENDBRANCH   5   6
ENDBRANCH   4   5
TORSDOF 7
ENDMDL
MODEL      213
REMARK 921   NORMALIZED FREE ENERGY PREDICTED BY IDOCK:   -3.64 KCAL/MOL
REMARK 922        TOTAL FREE ENERGY PREDICTED BY IDOCK:   -6.07 KCAL/MOL
REMARK 923 INTER-LIGAND FREE ENERGY PREDICTED BY IDOCK:   -5.31 KCAL/MOL
REMARK 924 INTRA-LIGAND FREE ENERGY PREDICTED BY IDOCK:   -0.76 KCAL/MOL
REMARK 927      BINDING AFFINITY PREDICTED BY RF-SCORE:    0.00 PKD
ROOT
HETATM    1  O   UNL     1      -8.714  15.610  66.216  1.00  0.00    -0.307 OA 
HETATM    2  N   UNL     1      -8.712  14.641  66.971  1.00  0.00    -0.227 N  
HETATM    3  O   UNL     1      -8.442  14.568  68.170  1.00  0.00    -0.143 OA 
HETATM    4  O   UNL     1      -9.092  13.438  66.320  1.00  0.00    -0.122 OA 
ENDROOT
BRANCH   4   5
HETATM    5  C   UNL     1      -9.061  12.309  67.194  1.00  0.00    -0.193 C  
BRANCH   5   6
HETATM    6  C   UNL     1     -10.514  11.853  67.484  1.00  0.00    -0.209 C  
BRANCH   6   7
HETATM    7  O   UNL     1     -11.358  11.830  66.320  1.00  0.00    -0.329 OA 
HETATM    8  O   UNL     1     -12.277  13.760  67.068  1.00  0.00    -0.401 OA 
HETATM    9  N   UNL     1     -12.258  12.915  66.175  1.00  0.00    -0.385 N  
HETATM   10  O   UNL     1     -12.886  12.875  65.121  1.00  0.00    -0.702 OA 
ENDBRANCH   6   7
BRANCH   6  11
HETATM   11  C   UNL     1     -10.611  10.543  68.313  1.00  0.00    -0.206 C  
BRANCH  11  12
HETATM   12  O   UNL     1     -11.873  10.529  68.990  1.00  0.00    -0.227 OA 
HETATM   13  O   UNL     1     -10.687  10.201  70.881  1.00  0.00    -0.249 OA 
HETATM   14  O   UNL     1     -12.739  11.080  70.940  1.00  0.00    -0.354 OA 
HETATM   15  N   UNL     1     -11.742  10.612  70.399  1.00  0.00    -0.327 N  
ENDBRANCH  11  12
BRANCH  11  16
HETATM   16  C   UNL     1     -10.426   9.270  67.459  1.00  0.00    -0.274 C  
BRANCH  16  17
HETATM   17  O   UNL     1     -11.010   8.132  68.092  1.00  0.00     0.013 OA 
HETATM   18  N   UNL     1     -10.518   6.911  67.541  1.00  0.00    -0.216 N  
HETATM   19  O   UNL     1     -10.937   5.921  68.137  1.00  0.00    -0.274 OA 
HETATM   20  O   UNL     1      -9.779   6.995  66.563  1.00  0.00    -0.177 OA 
ENDBRANCH  16  17
ENDBRANCH  11  16
ENDBRANCH   6  11
ENDBRANCH   5   6
ENDBRANCH   4   5
TORSDOF 7
ENDMDL
MODEL      214
REMARK 921   NORMALIZED FREE ENERGY PREDICTED BY IDOCK:   -3.64 KCAL/MOL
REMARK 922        TOTAL FREE ENERGY PREDICTED BY IDOCK:   -6.07 KCAL/MOL
REMARK 923 INTER-LIGAND FREE ENERGY PREDICTED BY IDOCK:   -6.32 KCAL/MOL
REMARK 924 INTRA-LIGAND FREE ENERGY PREDICTED BY IDOCK:    0.25 KCAL/MOL
REMARK 927      BINDING AFFINITY PREDICTED BY RF-SCORE:    0.00 PKD
ROOT
HETATM    1  O   UNL     1     -10.772   8.069  69.825  1.00  0.00    -0.245 OA 
HETATM    2  N   UNL     1     -11.034   9.252  70.027  1.00  0.00    -0.234 N  
HETATM    3  O   UNL     1     -10.859   9.944  71.031  1.00  0.00    -0.321 OA 
HETATM    4  O   UNL     1     -11.624   9.884  68.902  1.00  0.00    -0.010 OA 
ENDROOT
BRANCH   4   5
HETATM    5  C   UNL     1     -11.952  11.251  69.152  1.00  0.00    -0.336 C  
BRANCH   5   6
HETATM    6  C   UNL     1     -11.527  12.106  67.930  1.00  0.00    -0.328 C  
BRANCH   6   7
HETATM    7  O   UNL     1     -11.519  11.381  66.688  1.00  0.00    -0.408 OA 
HETATM    8  O   UNL     1      -9.275  11.674  66.643  1.00  0.00    -0.180 OA 
HETATM    9  N   UNL     1     -10.253  11.181  66.086  1.00  0.00    -0.237 N  
HETATM   10  O   UNL     1     -10.311  10.484  65.077  1.00  0.00    -0.316 OA 
ENDBRANCH   6   7
BRANCH   6  11
HETATM   11  C   UNL     1     -12.274  13.464  67.819  1.00  0.00    -0.130 C  
BRANCH  11  12
HETATM   12  O   UNL     1     -12.183  14.134  69.080  1.00  0.00    -0.335 OA 
HETATM   13  O   UNL     1      -9.987  14.376  68.628  1.00  0.00    -0.234 OA 
HETATM   14  O   UNL     1     -11.033  15.745  70.048  1.00  0.00    -0.279 OA 
HETATM   15  N   UNL     1     -10.951  14.811  69.257  1.00  0.00    -0.253 N  
ENDBRANCH  11  12
BRANCH  11  16
HETATM   16  C   UNL     1     -11.743  14.356  66.677  1.00  0.00    -0.394 C  
BRANCH  16  17
HETATM   17  O   UNL     1     -12.545  14.231  65.504  1.00  0.00    -0.458 OA 
HETATM   18  N   UNL     1     -11.747  14.066  64.333  1.00  0.00    -0.402 N  
HETATM   19  O   UNL     1     -12.422  13.861  63.326  1.00  0.00    -0.817 OA 
HETATM   20  O   UNL     1     -10.530  14.165  64.466  1.00  0.00    -0.408 OA 
ENDBRANCH  16  17
ENDBRANCH  11  16
ENDBRANCH   6  11
ENDBRANCH   5   6
ENDBRANCH   4   5
TORSDOF 7
ENDMDL
MODEL      215
REMARK 921   NORMALIZED FREE ENERGY PREDICTED BY IDOCK:   -3.63 KCAL/MOL
REMARK 922        TOTAL FREE ENERGY PREDICTED BY IDOCK:   -6.06 KCAL/MOL
REMARK 923 INTER-LIGAND FREE ENERGY PREDICTED BY IDOCK:   -5.60 KCAL/MOL
REMARK 924 INTRA-LIGAND FREE ENERGY PREDICTED BY IDOCK:   -0.46 KCAL/MOL
REMARK 927      BINDING AFFINITY PREDICTED BY RF-SCORE:    0.00 PKD
ROOT
HETATM    1  O   UNL     1      -8.304   9.834  69.013  1.00  0.00    -0.113 OA 
HETATM    2  N   UNL     1      -8.613  10.981  68.703  1.00  0.00    -0.154 N  
HETATM    3  O   UNL     1      -7.912  11.914  68.306  1.00  0.00    -0.134 OA 
HETATM    4  O   UNL     1     -10.005  11.228  68.830  1.00  0.00    -0.203 OA 
ENDROOT
BRANCH   4   5
HETATM    5  C   UNL     1     -10.355  12.571  68.495  1.00  0.00    -0.222 C  
BRANCH   5   6
HETATM    6  C   UNL     1     -11.599  12.992  69.319  1.00  0.00    -0.310 C  
BRANCH   6   7
HETATM    7  O   UNL     1     -11.734  12.290  70.566  1.00  0.00    -0.190 OA 
HETATM    8  O   UNL     1     -13.031  10.792  69.471  1.00  0.00    -0.118 OA 
HETATM    9  N   UNL     1     -12.506  11.103  70.538  1.00  0.00    -0.331 N  
HETATM   10  O   UNL     1     -12.509  10.511  71.613  1.00  0.00    -0.383 OA 
ENDBRANCH   6   7
BRANCH   6  11
HETATM   11  C   UNL     1     -11.756  14.529  69.484  1.00  0.00    -0.314 C  
BRANCH  11  12
HETATM   12  O   UNL     1     -11.449  14.872  70.840  1.00  0.00    -0.286 OA 
HETATM   13  O   UNL     1     -13.495  15.817  70.911  1.00  0.00    -0.568 OA 
HETATM   14  O   UNL     1     -12.465  15.148  72.775  1.00  0.00    -0.340 OA 
HETATM   15  N   UNL     1     -12.581  15.318  71.566  1.00  0.00    -0.340 N  
ENDBRANCH  11  12
BRANCH  11  16
HETATM   16  C   UNL     1     -10.888  15.337  68.498  1.00  0.00    -0.253 C  
BRANCH  16  17
HETATM   17  O   UNL     1     -11.361  16.676  68.366  1.00  0.00    -0.321 OA 
HETATM   18  N   UNL     1     -10.382  17.528  67.773  1.00  0.00    -0.352 N  
HETATM   19  O   UNL     1     -10.806  18.663  67.564  1.00  0.00    -0.435 OA 
HETATM   20  O   UNL     1      -9.271  17.046  67.569  1.00  0.00    -0.228 OA 
ENDBRANCH  16  17
ENDBRANCH  11  16
ENDBRANCH   6  11
ENDBRANCH   5   6
ENDBRANCH   4   5
TORSDOF 7
ENDMDL
MODEL      216
REMARK 921   NORMALIZED FREE ENERGY PREDICTED BY IDOCK:   -3.62 KCAL/MOL
REMARK 922        TOTAL FREE ENERGY PREDICTED BY IDOCK:   -6.05 KCAL/MOL
REMARK 923 INTER-LIGAND FREE ENERGY PREDICTED BY IDOCK:   -5.28 KCAL/MOL
REMARK 924 INTRA-LIGAND FREE ENERGY PREDICTED BY IDOCK:   -0.77 KCAL/MOL
REMARK 927      BINDING AFFINITY PREDICTED BY RF-SCORE:    0.00 PKD
ROOT
HETATM    1  O   UNL     1     -12.899  11.457  71.164  1.00  0.00    -0.380 OA 
HETATM    2  N   UNL     1     -11.879  10.957  70.697  1.00  0.00    -0.347 N  
HETATM    3  O   UNL     1     -11.290   9.920  71.004  1.00  0.00    -0.342 OA 
HETATM    4  O   UNL     1     -11.328  11.723  69.636  1.00  0.00    -0.259 OA 
ENDROOT
BRANCH   4   5
HETATM    5  C   UNL     1     -10.127  11.152  69.116  1.00  0.00    -0.112 C  
BRANCH   5   6
HETATM    6  C   UNL     1      -9.856  11.738  67.707  1.00  0.00    -0.181 C  
BRANCH   6   7
HETATM    7  O   UNL     1      -8.489  12.131  67.494  1.00  0.00    -0.151 OA 
HETATM    8  O   UNL     1      -9.181  14.279  67.674  1.00  0.00    -0.184 OA 
HETATM    9  N   UNL     1      -8.225  13.523  67.518  1.00  0.00    -0.172 N  
HETATM   10  O   UNL     1      -7.030  13.782  67.415  1.00  0.00    -0.169 OA 
ENDBRANCH   6   7
BRANCH   6  11
HETATM   11  C   UNL     1     -10.411  10.870  66.544  1.00  0.00    -0.253 C  
BRANCH  11  12
HETATM   12  O   UNL     1     -10.203  11.574  65.314  1.00  0.00    -0.243 OA 
HETATM   13  O   UNL     1     -12.390  12.112  65.422  1.00  0.00    -0.533 OA 
HETATM   14  O   UNL     1     -10.952  13.351  64.248  1.00  0.00    -0.382 OA 
HETATM   15  N   UNL     1     -11.287  12.420  64.974  1.00  0.00    -0.311 N  
ENDBRANCH  11  12
BRANCH  11  16
HETATM   16  C   UNL     1      -9.786   9.460  66.488  1.00  0.00    -0.258 C  
BRANCH  16  17
HETATM   17  O   UNL     1     -10.705   8.467  66.940  1.00  0.00    -0.265 OA 
HETATM   18  N   UNL     1     -10.189   7.148  66.760  1.00  0.00    -0.235 N  
HETATM   19  O   UNL     1     -10.926   6.285  67.231  1.00  0.00    -0.338 OA 
HETATM   20  O   UNL     1      -9.122   7.042  66.161  1.00  0.00    -0.162 OA 
ENDBRANCH  16  17
ENDBRANCH  11  16
ENDBRANCH   6  11
ENDBRANCH   5   6
ENDBRANCH   4   5
TORSDOF 7
ENDMDL
MODEL      217
REMARK 921   NORMALIZED FREE ENERGY PREDICTED BY IDOCK:   -3.62 KCAL/MOL
REMARK 922        TOTAL FREE ENERGY PREDICTED BY IDOCK:   -6.03 KCAL/MOL
REMARK 923 INTER-LIGAND FREE ENERGY PREDICTED BY IDOCK:   -6.78 KCAL/MOL
REMARK 924 INTRA-LIGAND FREE ENERGY PREDICTED BY IDOCK:    0.74 KCAL/MOL
REMARK 927      BINDING AFFINITY PREDICTED BY RF-SCORE:    0.00 PKD
ROOT
HETATM    1  O   UNL     1      -9.714  17.193  65.639  1.00  0.00    -0.545 OA 
HETATM    2  N   UNL     1     -10.668  16.620  65.119  1.00  0.00    -0.283 N  
HETATM    3  O   UNL     1     -11.306  16.900  64.103  1.00  0.00    -1.208 OA 
HETATM    4  O   UNL     1     -11.061  15.453  65.827  1.00  0.00    -0.324 OA 
ENDROOT
BRANCH   4   5
HETATM    5  C   UNL     1     -12.187  14.807  65.234  1.00  0.00    -0.158 C  
BRANCH   5   6
HETATM    6  C   UNL     1     -12.508  13.516  66.030  1.00  0.00    -0.399 C  
BRANCH   6   7
HETATM    7  O   UNL     1     -12.653  12.346  65.207  1.00  0.00    -0.636 OA 
HETATM    8  O   UNL     1     -11.123  13.259  63.810  1.00  0.00    -0.320 OA 
HETATM    9  N   UNL     1     -11.845  12.293  64.044  1.00  0.00    -0.407 N  
HETATM   10  O   UNL     1     -11.956  11.233  63.436  1.00  0.00    -0.060 OA 
ENDBRANCH   6   7
BRANCH   6  11
HETATM   11  C   UNL     1     -11.569  13.273  67.244  1.00  0.00    -0.359 C  
BRANCH  11  12
HETATM   12  O   UNL     1     -12.246  13.699  68.432  1.00  0.00    -0.332 OA 
HETATM   13  O   UNL     1     -10.397  14.913  68.874  1.00  0.00    -0.230 OA 
HETATM   14  O   UNL     1     -12.376  15.458  69.752  1.00  0.00    -0.324 OA 
HETATM   15  N   UNL     1     -11.606  14.791  69.069  1.00  0.00    -0.281 N  
ENDBRANCH  11  12
BRANCH  11  16
HETATM   16  C   UNL     1     -11.103  11.807  67.367  1.00  0.00    -0.282 C  
BRANCH  16  17
HETATM   17  O   UNL     1      -9.948  11.698  68.197  1.00  0.00    -0.182 OA 
HETATM   18  N   UNL     1      -8.767  12.128  67.520  1.00  0.00    -0.165 N  
HETATM   19  O   UNL     1      -7.779  12.131  68.250  1.00  0.00    -0.120 OA 
HETATM   20  O   UNL     1      -8.877  12.413  66.330  1.00  0.00    -0.161 OA 
ENDBRANCH  16  17
ENDBRANCH  11  16
ENDBRANCH   6  11
ENDBRANCH   5   6
ENDBRANCH   4   5
TORSDOF 7
ENDMDL
MODEL      218
REMARK 921   NORMALIZED FREE ENERGY PREDICTED BY IDOCK:   -3.61 KCAL/MOL
REMARK 922        TOTAL FREE ENERGY PREDICTED BY IDOCK:   -6.02 KCAL/MOL
REMARK 923 INTER-LIGAND FREE ENERGY PREDICTED BY IDOCK:   -5.73 KCAL/MOL
REMARK 924 INTRA-LIGAND FREE ENERGY PREDICTED BY IDOCK:   -0.29 KCAL/MOL
REMARK 927      BINDING AFFINITY PREDICTED BY RF-SCORE:    0.00 PKD
ROOT
HETATM    1  O   UNL     1      -8.044  17.284  65.827  1.00  0.00    -0.527 OA 
HETATM    2  N   UNL     1      -9.029  16.877  66.438  1.00  0.00    -0.271 N  
HETATM    3  O   UNL     1      -9.457  17.184  67.551  1.00  0.00    -0.243 OA 
HETATM    4  O   UNL     1      -9.764  15.905  65.709  1.00  0.00    -0.323 OA 
ENDROOT
BRANCH   4   5
HETATM    5  C   UNL     1     -10.891  15.414  66.435  1.00  0.00    -0.303 C  
BRANCH   5   6
HETATM    6  C   UNL     1     -10.963  13.874  66.280  1.00  0.00    -0.298 C  
BRANCH   6   7
HETATM    7  O   UNL     1     -11.236  13.437  64.938  1.00  0.00    -0.311 OA 
HETATM    8  O   UNL     1     -13.140  14.658  65.032  1.00  0.00    -0.426 OA 
HETATM    9  N   UNL     1     -12.423  13.934  64.345  1.00  0.00    -0.330 N  
HETATM   10  O   UNL     1     -12.550  13.590  63.174  1.00  0.00    -0.762 OA 
ENDBRANCH   6   7
BRANCH   6  11
HETATM   11  C   UNL     1      -9.763  13.119  66.916  1.00  0.00    -0.243 C  
BRANCH  11  12
HETATM   12  O   UNL     1      -9.499  13.691  68.202  1.00  0.00    -0.205 OA 
HETATM   13  O   UNL     1      -7.317  13.357  67.740  1.00  0.00    -0.124 OA 
HETATM   14  O   UNL     1      -7.963  14.897  69.221  1.00  0.00    -0.176 OA 
HETATM   15  N   UNL     1      -8.131  14.007  68.394  1.00  0.00    -0.144 N  
ENDBRANCH  11  12
BRANCH  11  16
HETATM   16  C   UNL     1      -9.992  11.596  67.023  1.00  0.00    -0.204 C  
BRANCH  16  17
HETATM   17  O   UNL     1     -10.445  11.230  68.325  1.00  0.00    -0.181 OA 
HETATM   18  N   UNL     1     -10.868   9.868  68.374  1.00  0.00    -0.234 N  
HETATM   19  O   UNL     1     -11.172   9.508  69.509  1.00  0.00    -0.189 OA 
HETATM   20  O   UNL     1     -10.894   9.251  67.312  1.00  0.00    -0.238 OA 
ENDBRANCH  16  17
ENDBRANCH  11  16
ENDBRANCH   6  11
ENDBRANCH   5   6
ENDBRANCH   4   5
TORSDOF 7
ENDMDL
MODEL      219
REMARK 921   NORMALIZED FREE ENERGY PREDICTED BY IDOCK:   -3.60 KCAL/MOL
REMARK 922        TOTAL FREE ENERGY PREDICTED BY IDOCK:   -6.02 KCAL/MOL
REMARK 923 INTER-LIGAND FREE ENERGY PREDICTED BY IDOCK:   -5.08 KCAL/MOL
REMARK 924 INTRA-LIGAND FREE ENERGY PREDICTED BY IDOCK:   -0.94 KCAL/MOL
REMARK 927      BINDING AFFINITY PREDICTED BY RF-SCORE:    0.00 PKD
ROOT
HETATM    1  O   UNL     1      -9.411  10.101  63.871  1.00  0.00    -0.274 OA 
HETATM    2  N   UNL     1      -8.854  10.685  64.797  1.00  0.00    -0.190 N  
HETATM    3  O   UNL     1      -7.778  10.453  65.351  1.00  0.00    -0.144 OA 
HETATM    4  O   UNL     1      -9.596  11.800  65.269  1.00  0.00    -0.229 OA 
ENDROOT
BRANCH   4   5
HETATM    5  C   UNL     1      -8.957  12.458  66.363  1.00  0.00    -0.100 C  
BRANCH   5   6
HETATM    6  C   UNL     1      -9.660  12.049  67.682  1.00  0.00    -0.188 C  
BRANCH   6   7
HETATM    7  O   UNL     1      -8.829  11.282  68.570  1.00  0.00    -0.154 OA 
HETATM    8  O   UNL     1      -9.891   9.433  67.811  1.00  0.00    -0.157 OA 
HETATM    9  N   UNL     1      -9.014   9.878  68.548  1.00  0.00    -0.120 N  
HETATM   10  O   UNL     1      -8.216   9.281  69.265  1.00  0.00    -0.101 OA 
ENDBRANCH   6   7
BRANCH   6  11
HETATM   11  C   UNL     1     -10.377  13.222  68.406  1.00  0.00    -0.251 C  
BRANCH  11  12
HETATM   12  O   UNL     1      -9.802  14.452  67.952  1.00  0.00    -0.217 OA 
HETATM   13  O   UNL     1     -10.213  15.239  70.026  1.00  0.00    -0.269 OA 
HETATM   14  O   UNL     1      -8.638  16.151  68.734  1.00  0.00    -0.210 OA 
HETATM   15  N   UNL     1      -9.530  15.356  69.010  1.00  0.00    -0.220 N  
ENDBRANCH  11  12
BRANCH  11  16
HETATM   16  C   UNL     1     -11.907  13.217  68.202  1.00  0.00    -0.353 C  
BRANCH  16  17
HETATM   17  O   UNL     1     -12.273  12.468  67.045  1.00  0.00    -0.490 OA 
HETATM   18  N   UNL     1     -12.580  13.318  65.940  1.00  0.00    -0.366 N  
HETATM   19  O   UNL     1     -12.805  12.689  64.908  1.00  0.00    -0.763 OA 
HETATM   20  O   UNL     1     -12.600  14.528  66.153  1.00  0.00    -0.286 OA 
ENDBRANCH  16  17
ENDBRANCH  11  16
ENDBRANCH   6  11
ENDBRANCH   5   6
ENDBRANCH   4   5
TORSDOF 7
ENDMDL
MODEL      220
REMARK 921   NORMALIZED FREE ENERGY PREDICTED BY IDOCK:   -3.60 KCAL/MOL
REMARK 922        TOTAL FREE ENERGY PREDICTED BY IDOCK:   -6.01 KCAL/MOL
REMARK 923 INTER-LIGAND FREE ENERGY PREDICTED BY IDOCK:   -5.08 KCAL/MOL
REMARK 924 INTRA-LIGAND FREE ENERGY PREDICTED BY IDOCK:   -0.93 KCAL/MOL
REMARK 927      BINDING AFFINITY PREDICTED BY RF-SCORE:    0.00 PKD
ROOT
HETATM    1  O   UNL     1      -7.763  11.716  68.678  1.00  0.00    -0.130 OA 
HETATM    2  N   UNL     1      -7.514  10.799  69.456  1.00  0.00    -0.136 N  
HETATM    3  O   UNL     1      -6.819  10.786  70.473  1.00  0.00    -0.285 OA 
HETATM    4  O   UNL     1      -8.149   9.582  69.093  1.00  0.00    -0.094 OA 
ENDROOT
BRANCH   4   5
HETATM    5  C   UNL     1      -7.834   8.513  69.985  1.00  0.00    -0.102 C  
BRANCH   5   6
HETATM    6  C   UNL     1      -9.003   8.326  70.986  1.00  0.00    -0.154 C  
BRANCH   6   7
HETATM    7  O   UNL     1      -8.757   8.902  72.280  1.00  0.00    -0.395 OA 
HETATM    8  O   UNL     1      -8.875   6.806  73.127  1.00  0.00    -0.123 OA 
HETATM    9  N   UNL     1      -8.683   7.996  73.367  1.00  0.00    -0.239 N  
HETATM   10  O   UNL     1      -8.388   8.544  74.424  1.00  0.00    -0.205 OA 
ENDBRANCH   6   7
BRANCH   6  11
HETATM   11  C   UNL     1     -10.392   8.724  70.415  1.00  0.00    -0.199 C  
BRANCH  11  12
HETATM   12  O   UNL     1     -11.123   7.526  70.129  1.00  0.00    -0.260 OA 
HETATM   13  O   UNL     1     -10.660   7.936  67.960  1.00  0.00    -0.200 OA 
HETATM   14  O   UNL     1     -11.137   5.874  68.670  1.00  0.00    -0.284 OA 
HETATM   15  N   UNL     1     -10.949   7.080  68.795  1.00  0.00    -0.148 N  
ENDBRANCH  11  12
BRANCH  11  16
HETATM   16  C   UNL     1     -11.193   9.650  71.355  1.00  0.00    -0.356 C  
BRANCH  16  17
HETATM   17  O   UNL     1     -12.258   8.946  71.992  1.00  0.00    -0.338 OA 
HETATM   18  N   UNL     1     -13.403   9.778  72.179  1.00  0.00    -0.451 N  
HETATM   19  O   UNL     1     -14.363   9.163  72.639  1.00  0.00    -0.561 OA 
HETATM   20  O   UNL     1     -13.287  10.965  71.885  1.00  0.00    -0.421 OA 
ENDBRANCH  16  17
ENDBRANCH  11  16
ENDBRANCH   6  11
ENDBRANCH   5   6
ENDBRANCH   4   5
TORSDOF 7
ENDMDL
MODEL      221
REMARK 921   NORMALIZED FREE ENERGY PREDICTED BY IDOCK:   -3.60 KCAL/MOL
REMARK 922        TOTAL FREE ENERGY PREDICTED BY IDOCK:   -6.01 KCAL/MOL
REMARK 923 INTER-LIGAND FREE ENERGY PREDICTED BY IDOCK:   -5.09 KCAL/MOL
REMARK 924 INTRA-LIGAND FREE ENERGY PREDICTED BY IDOCK:   -0.92 KCAL/MOL
REMARK 927      BINDING AFFINITY PREDICTED BY RF-SCORE:    0.00 PKD
ROOT
HETATM    1  O   UNL     1     -13.363  12.857  64.897  1.00  0.00    -0.716 OA 
HETATM    2  N   UNL     1     -12.173  13.158  64.906  1.00  0.00    -0.402 N  
HETATM    3  O   UNL     1     -11.600  14.149  64.452  1.00  0.00    -0.389 OA 
HETATM    4  O   UNL     1     -11.366  12.186  65.554  1.00  0.00    -0.328 OA 
ENDROOT
BRANCH   4   5
HETATM    5  C   UNL     1      -9.979  12.527  65.537  1.00  0.00    -0.234 C  
BRANCH   5   6
HETATM    6  C   UNL     1      -9.597  13.163  66.898  1.00  0.00    -0.248 C  
BRANCH   6   7
HETATM    7  O   UNL     1     -10.613  13.029  67.907  1.00  0.00    -0.221 OA 
HETATM    8  O   UNL     1     -11.098  15.215  67.570  1.00  0.00    -0.303 OA 
HETATM    9  N   UNL     1     -11.383  14.186  68.180  1.00  0.00    -0.275 N  
HETATM   10  O   UNL     1     -12.284  13.979  68.987  1.00  0.00    -0.346 OA 
ENDBRANCH   6   7
BRANCH   6  11
HETATM   11  C   UNL     1      -8.191  12.752  67.415  1.00  0.00    -0.186 C  
BRANCH  11  12
HETATM   12  O   UNL     1      -7.919  13.482  68.616  1.00  0.00    -0.138 OA 
HETATM   13  O   UNL     1      -6.551  14.758  67.356  1.00  0.00    -0.280 OA 
HETATM   14  O   UNL     1      -7.422  15.529  69.262  1.00  0.00    -0.179 OA 
HETATM   15  N   UNL     1      -7.235  14.700  68.377  1.00  0.00    -0.109 N  
ENDBRANCH  11  12
BRANCH  11  16
HETATM   16  C   UNL     1      -8.050  11.232  67.646  1.00  0.00    -0.119 C  
BRANCH  16  17
HETATM   17  O   UNL     1      -8.448  10.870  68.967  1.00  0.00    -0.152 OA 
HETATM   18  N   UNL     1      -7.412  10.170  69.658  1.00  0.00    -0.130 N  
HETATM   19  O   UNL     1      -7.702   9.934  70.829  1.00  0.00    -0.293 OA 
HETATM   20  O   UNL     1      -6.405   9.884  69.015  1.00  0.00    -0.041 OA 
ENDBRANCH  16  17
ENDBRANCH  11  16
ENDBRANCH   6  11
ENDBRANCH   5   6
ENDBRANCH   4   5
TORSDOF 7
ENDMDL
MODEL      222
REMARK 921   NORMALIZED FREE ENERGY PREDICTED BY IDOCK:   -3.59 KCAL/MOL
REMARK 922        TOTAL FREE ENERGY PREDICTED BY IDOCK:   -6.00 KCAL/MOL
REMARK 923 INTER-LIGAND FREE ENERGY PREDICTED BY IDOCK:   -6.42 KCAL/MOL
REMARK 924 INTRA-LIGAND FREE ENERGY PREDICTED BY IDOCK:    0.42 KCAL/MOL
REMARK 927      BINDING AFFINITY PREDICTED BY RF-SCORE:    0.00 PKD
ROOT
HETATM    1  O   UNL     1      -5.976  14.856  68.273  1.00  0.00    -0.104 OA 
HETATM    2  N   UNL     1      -6.984  14.422  67.723  1.00  0.00    -0.163 N  
HETATM    3  O   UNL     1      -7.310  13.264  67.458  1.00  0.00    -0.148 OA 
HETATM    4  O   UNL     1      -7.893  15.449  67.354  1.00  0.00    -0.154 OA 
ENDROOT
BRANCH   4   5
HETATM    5  C   UNL     1      -9.051  14.942  66.690  1.00  0.00    -0.280 C  
BRANCH   5   6
HETATM    6  C   UNL     1     -10.308  15.290  67.527  1.00  0.00    -0.244 C  
BRANCH   6   7
HETATM    7  O   UNL     1     -10.553  16.702  67.648  1.00  0.00    -0.316 OA 
HETATM    8  O   UNL     1     -10.227  16.851  65.413  1.00  0.00    -0.605 OA 
HETATM    9  N   UNL     1     -10.510  17.452  66.447  1.00  0.00    -0.305 N  
HETATM   10  O   UNL     1     -10.811  18.631  66.611  1.00  0.00    -0.312 OA 
ENDBRANCH   6   7
BRANCH   6  11
HETATM   11  C   UNL     1     -11.581  14.502  67.112  1.00  0.00    -0.388 C  
BRANCH  11  12
HETATM   12  O   UNL     1     -11.368  13.953  65.807  1.00  0.00    -0.302 OA 
HETATM   13  O   UNL     1     -13.595  14.159  65.517  1.00  0.00    -0.568 OA 
HETATM   14  O   UNL     1     -12.204  14.083  63.772  1.00  0.00    -0.571 OA 
HETATM   15  N   UNL     1     -12.499  14.083  64.963  1.00  0.00    -0.436 N  
ENDBRANCH  11  12
BRANCH  11  16
HETATM   16  C   UNL     1     -11.967  13.399  68.120  1.00  0.00    -0.321 C  
BRANCH  16  17
HETATM   17  O   UNL     1     -10.810  12.774  68.674  1.00  0.00    -0.242 OA 
HETATM   18  N   UNL     1     -11.049  11.403  68.989  1.00  0.00    -0.225 N  
HETATM   19  O   UNL     1     -10.037  10.824  69.377  1.00  0.00    -0.212 OA 
HETATM   20  O   UNL     1     -12.198  10.990  68.856  1.00  0.00    -0.519 OA 
ENDBRANCH  16  17
ENDBRANCH  11  16
ENDBRANCH   6  11
ENDBRANCH   5   6
ENDBRANCH   4   5
TORSDOF 7
ENDMDL
MODEL      223
REMARK 921   NORMALIZED FREE ENERGY PREDICTED BY IDOCK:   -3.58 KCAL/MOL
REMARK 922        TOTAL FREE ENERGY PREDICTED BY IDOCK:   -5.99 KCAL/MOL
REMARK 923 INTER-LIGAND FREE ENERGY PREDICTED BY IDOCK:   -5.12 KCAL/MOL
REMARK 924 INTRA-LIGAND FREE ENERGY PREDICTED BY IDOCK:   -0.87 KCAL/MOL
REMARK 927      BINDING AFFINITY PREDICTED BY RF-SCORE:    0.00 PKD
ROOT
HETATM    1  O   UNL     1     -12.033   9.659  71.831  1.00  0.00    -0.370 OA 
HETATM    2  N   UNL     1     -10.948   9.579  71.260  1.00  0.00    -0.363 N  
HETATM    3  O   UNL     1      -9.974   8.864  71.502  1.00  0.00    -0.267 OA 
HETATM    4  O   UNL     1     -10.844  10.460  70.152  1.00  0.00    -0.283 OA 
ENDROOT
BRANCH   4   5
HETATM    5  C   UNL     1      -9.571  10.382  69.510  1.00  0.00    -0.157 C  
BRANCH   5   6
HETATM    6  C   UNL     1      -9.526  11.407  68.347  1.00  0.00    -0.194 C  
BRANCH   6   7
HETATM    7  O   UNL     1      -8.197  11.712  67.892  1.00  0.00    -0.127 OA 
HETATM    8  O   UNL     1      -8.559  13.842  68.571  1.00  0.00    -0.171 OA 
HETATM    9  N   UNL     1      -7.760  13.047  68.079  1.00  0.00    -0.130 N  
HETATM   10  O   UNL     1      -6.591  13.216  67.747  1.00  0.00    -0.119 OA 
ENDBRANCH   6   7
BRANCH   6  11
HETATM   11  C   UNL     1     -10.492  11.076  67.176  1.00  0.00    -0.232 C  
BRANCH  11  12
HETATM   12  O   UNL     1     -10.822   9.684  67.242  1.00  0.00    -0.254 OA 
HETATM   13  O   UNL     1      -9.804   9.498  65.238  1.00  0.00    -0.282 OA 
HETATM   14  O   UNL     1     -10.025   7.736  66.590  1.00  0.00    -0.238 OA 
HETATM   15  N   UNL     1     -10.149   8.912  66.263  1.00  0.00    -0.275 N  
ENDBRANCH  11  12
BRANCH  11  16
HETATM   16  C   UNL     1     -11.766  11.947  67.175  1.00  0.00    -0.236 C  
BRANCH  16  17
HETATM   17  O   UNL     1     -11.707  12.954  68.184  1.00  0.00    -0.316 OA 
HETATM   18  N   UNL     1     -11.950  14.255  67.648  1.00  0.00    -0.385 N  
HETATM   19  O   UNL     1     -11.997  15.122  68.517  1.00  0.00    -0.304 OA 
HETATM   20  O   UNL     1     -12.058  14.346  66.428  1.00  0.00    -0.414 OA 
ENDBRANCH  16  17
ENDBRANCH  11  16
ENDBRANCH   6  11
ENDBRANCH   5   6
ENDBRANCH   4   5
TORSDOF 7
ENDMDL
MODEL      224
REMARK 921   NORMALIZED FREE ENERGY PREDICTED BY IDOCK:   -3.58 KCAL/MOL
REMARK 922        TOTAL FREE ENERGY PREDICTED BY IDOCK:   -5.98 KCAL/MOL
REMARK 923 INTER-LIGAND FREE ENERGY PREDICTED BY IDOCK:   -5.16 KCAL/MOL
REMARK 924 INTRA-LIGAND FREE ENERGY PREDICTED BY IDOCK:   -0.83 KCAL/MOL
REMARK 927      BINDING AFFINITY PREDICTED BY RF-SCORE:    0.00 PKD
ROOT
HETATM    1  O   UNL     1     -11.050  15.938  70.363  1.00  0.00    -0.321 OA 
HETATM    2  N   UNL     1     -11.380  14.931  69.743  1.00  0.00    -0.270 N  
HETATM    3  O   UNL     1     -11.545  13.774  70.135  1.00  0.00    -0.245 OA 
HETATM    4  O   UNL     1     -11.600  15.183  68.363  1.00  0.00    -0.318 OA 
ENDROOT
BRANCH   4   5
HETATM    5  C   UNL     1     -11.955  14.003  67.642  1.00  0.00    -0.368 C  
BRANCH   5   6
HETATM    6  C   UNL     1     -10.777  13.598  66.720  1.00  0.00    -0.272 C  
BRANCH   6   7
HETATM    7  O   UNL     1      -9.743  14.593  66.627  1.00  0.00    -0.248 OA 
HETATM    8  O   UNL     1     -10.869  15.458  64.864  1.00  0.00    -0.421 OA 
HETATM    9  N   UNL     1      -9.897  15.565  65.608  1.00  0.00    -0.346 N  
HETATM   10  O   UNL     1      -9.027  16.430  65.641  1.00  0.00    -0.427 OA 
ENDBRANCH   6   7
BRANCH   6  11
HETATM   11  C   UNL     1     -10.210  12.180  67.007  1.00  0.00    -0.207 C  
BRANCH  11  12
HETATM   12  O   UNL     1     -11.280  11.351  67.474  1.00  0.00    -0.259 OA 
HETATM   13  O   UNL     1      -9.910  10.795  69.177  1.00  0.00    -0.209 OA 
HETATM   14  O   UNL     1     -12.126  10.609  69.368  1.00  0.00    -0.270 OA 
HETATM   15  N   UNL     1     -11.076  10.882  68.796  1.00  0.00    -0.234 N  
ENDBRANCH  11  12
BRANCH  11  16
HETATM   16  C   UNL     1      -9.512  11.547  65.784  1.00  0.00    -0.234 C  
BRANCH  16  17
HETATM   17  O   UNL     1      -9.414  10.130  65.919  1.00  0.00    -0.172 OA 
HETATM   18  N   UNL     1      -8.167   9.739  66.493  1.00  0.00    -0.119 N  
HETATM   19  O   UNL     1      -8.103   8.530  66.705  1.00  0.00    -0.101 OA 
HETATM   20  O   UNL     1      -7.335  10.622  66.680  1.00  0.00    -0.115 OA 
ENDBRANCH  16  17
ENDBRANCH  11  16
ENDBRANCH   6  11
ENDBRANCH   5   6
ENDBRANCH   4   5
TORSDOF 7
ENDMDL
MODEL      225
REMARK 921   NORMALIZED FREE ENERGY PREDICTED BY IDOCK:   -3.57 KCAL/MOL
REMARK 922        TOTAL FREE ENERGY PREDICTED BY IDOCK:   -5.98 KCAL/MOL
REMARK 923 INTER-LIGAND FREE ENERGY PREDICTED BY IDOCK:   -5.31 KCAL/MOL
REMARK 924 INTRA-LIGAND FREE ENERGY PREDICTED BY IDOCK:   -0.66 KCAL/MOL
REMARK 927      BINDING AFFINITY PREDICTED BY RF-SCORE:    0.00 PKD
ROOT
HETATM    1  O   UNL     1     -12.160  14.151  68.866  1.00  0.00    -0.345 OA 
HETATM    2  N   UNL     1     -11.649  14.411  67.781  1.00  0.00    -0.338 N  
HETATM    3  O   UNL     1     -11.793  13.869  66.684  1.00  0.00    -0.374 OA 
HETATM    4  O   UNL     1     -10.762  15.519  67.842  1.00  0.00    -0.276 OA 
ENDROOT
BRANCH   4   5
HETATM    5  C   UNL     1     -10.150  15.799  66.583  1.00  0.00    -0.279 C  
BRANCH   5   6
HETATM    6  C   UNL     1      -9.583  17.242  66.606  1.00  0.00    -0.276 C  
BRANCH   6   7
HETATM    7  O   UNL     1     -10.298  18.134  67.477  1.00  0.00    -0.356 OA 
HETATM    8  O   UNL     1     -10.673  19.443  65.668  1.00  0.00    -0.468 OA 
HETATM    9  N   UNL     1     -10.869  19.280  66.871  1.00  0.00    -0.434 N  
HETATM   10  O   UNL     1     -11.535  19.951  67.654  1.00  0.00     0.237 OA 
ENDBRANCH   6   7
BRANCH   6  11
HETATM   11  C   UNL     1      -8.045  17.313  66.819  1.00  0.00    -0.246 C  
BRANCH  11  12
HETATM   12  O   UNL     1      -7.549  18.478  66.151  1.00  0.00    -0.274 OA 
HETATM   13  O   UNL     1      -5.643  17.312  65.846  1.00  0.00    -0.268 OA 
HETATM   14  O   UNL     1      -6.180  19.020  64.512  1.00  0.00    -0.459 OA 
HETATM   15  N   UNL     1      -6.347  18.236  65.441  1.00  0.00    -0.244 N  
ENDBRANCH  11  12
BRANCH  11  16
HETATM   16  C   UNL     1      -7.638  17.312  68.307  1.00  0.00    -0.227 C  
BRANCH  16  17
HETATM   17  O   UNL     1      -6.965  16.105  68.661  1.00  0.00    -0.129 OA 
HETATM   18  N   UNL     1      -6.066  16.300  69.752  1.00  0.00    -0.194 N  
HETATM   19  O   UNL     1      -5.549  15.252  70.132  1.00  0.00    -0.119 OA 
HETATM   20  O   UNL     1      -5.911  17.452  70.149  1.00  0.00    -0.243 OA 
ENDBRANCH  16  17
ENDBRANCH  11  16
ENDBRANCH   6  11
ENDBRANCH   5   6
ENDBRANCH   4   5
TORSDOF 7
ENDMDL
MODEL      226
REMARK 921   NORMALIZED FREE ENERGY PREDICTED BY IDOCK:   -3.57 KCAL/MOL
REMARK 922        TOTAL FREE ENERGY PREDICTED BY IDOCK:   -5.97 KCAL/MOL
REMARK 923 INTER-LIGAND FREE ENERGY PREDICTED BY IDOCK:   -6.33 KCAL/MOL
REMARK 924 INTRA-LIGAND FREE ENERGY PREDICTED BY IDOCK:    0.36 KCAL/MOL
REMARK 927      BINDING AFFINITY PREDICTED BY RF-SCORE:    0.00 PKD
ROOT
HETATM    1  O   UNL     1      -6.284  17.142  69.882  1.00  0.00    -0.233 OA 
HETATM    2  N   UNL     1      -6.837  17.011  68.794  1.00  0.00    -0.188 N  
HETATM    3  O   UNL     1      -6.365  17.022  67.656  1.00  0.00    -0.133 OA 
HETATM    4  O   UNL     1      -8.238  16.814  68.910  1.00  0.00    -0.244 OA 
ENDROOT
BRANCH   4   5
HETATM    5  C   UNL     1      -8.880  16.690  67.641  1.00  0.00    -0.201 C  
BRANCH   5   6
HETATM    6  C   UNL     1     -10.412  16.837  67.831  1.00  0.00    -0.335 C  
BRANCH   6   7
HETATM    7  O   UNL     1     -11.111  17.226  66.636  1.00  0.00     0.104 OA 
HETATM    8  O   UNL     1      -9.752  15.817  65.499  1.00  0.00    -0.322 OA 
HETATM    9  N   UNL     1     -10.696  16.601  65.434  1.00  0.00    -0.294 N  
HETATM   10  O   UNL     1     -11.389  16.915  64.471  1.00  0.00    -1.006 OA 
ENDBRANCH   6   7
BRANCH   6  11
HETATM   11  C   UNL     1     -11.079  15.626  68.541  1.00  0.00    -0.322 C  
BRANCH  11  12
HETATM   12  O   UNL     1     -10.173  14.519  68.492  1.00  0.00    -0.227 OA 
HETATM   13  O   UNL     1     -11.878  13.354  67.584  1.00  0.00    -0.338 OA 
HETATM   14  O   UNL     1      -9.756  12.743  67.257  1.00  0.00    -0.199 OA 
HETATM   15  N   UNL     1     -10.657  13.446  67.702  1.00  0.00    -0.241 N  
ENDBRANCH  11  12
BRANCH  11  16
HETATM   16  C   UNL     1     -11.502  15.933  69.993  1.00  0.00    -0.354 C  
BRANCH  16  17
HETATM   17  O   UNL     1     -12.814  15.444  70.264  1.00  0.00    -0.350 OA 
HETATM   18  N   UNL     1     -13.170  15.616  71.636  1.00  0.00    -0.490 N  
HETATM   19  O   UNL     1     -14.331  15.288  71.868  1.00  0.00    -0.523 OA 
HETATM   20  O   UNL     1     -12.297  16.036  72.391  1.00  0.00    -0.440 OA 
ENDBRANCH  16  17
ENDBRANCH  11  16
ENDBRANCH   6  11
ENDBRANCH   5   6
ENDBRANCH   4   5
TORSDOF 7
ENDMDL
MODEL      227
REMARK 921   NORMALIZED FREE ENERGY PREDICTED BY IDOCK:   -3.57 KCAL/MOL
REMARK 922        TOTAL FREE ENERGY PREDICTED BY IDOCK:   -5.96 KCAL/MOL
REMARK 923 INTER-LIGAND FREE ENERGY PREDICTED BY IDOCK:   -4.91 KCAL/MOL
REMARK 924 INTRA-LIGAND FREE ENERGY PREDICTED BY IDOCK:   -1.06 KCAL/MOL
REMARK 927      BINDING AFFINITY PREDICTED BY RF-SCORE:    0.00 PKD
ROOT
HETATM    1  O   UNL     1     -10.488  16.532  69.543  1.00  0.00    -0.298 OA 
HETATM    2  N   UNL     1      -9.590  15.804  69.129  1.00  0.00    -0.237 N  
HETATM    3  O   UNL     1      -8.446  15.634  69.552  1.00  0.00    -0.252 OA 
HETATM    4  O   UNL     1      -9.973  15.056  67.985  1.00  0.00    -0.216 OA 
ENDROOT
BRANCH   4   5
HETATM    5  C   UNL     1      -8.917  14.232  67.491  1.00  0.00    -0.196 C  
BRANCH   5   6
HETATM    6  C   UNL     1      -9.384  12.754  67.491  1.00  0.00    -0.189 C  
BRANCH   6   7
HETATM    7  O   UNL     1      -9.032  12.033  68.684  1.00  0.00    -0.135 OA 
HETATM    8  O   UNL     1      -8.121  10.453  67.343  1.00  0.00    -0.107 OA 
HETATM    9  N   UNL     1      -8.332  10.815  68.499  1.00  0.00    -0.131 N  
HETATM   10  O   UNL     1      -7.990  10.297  69.557  1.00  0.00    -0.148 OA 
ENDBRANCH   6   7
BRANCH   6  11
HETATM   11  C   UNL     1     -10.876  12.564  67.102  1.00  0.00    -0.250 C  
BRANCH  11  12
HETATM   12  O   UNL     1     -10.932  11.990  65.791  1.00  0.00    -0.286 OA 
HETATM   13  O   UNL     1     -12.015  13.870  65.174  1.00  0.00    -0.350 OA 
HETATM   14  O   UNL     1     -10.926  12.619  63.680  1.00  0.00    -0.426 OA 
HETATM   15  N   UNL     1     -11.328  12.921  64.799  1.00  0.00    -0.304 N  
ENDBRANCH  11  12
BRANCH  11  16
HETATM   16  C   UNL     1     -11.663  11.707  68.116  1.00  0.00    -0.295 C  
BRANCH  16  17
HETATM   17  O   UNL     1     -12.331  12.523  69.077  1.00  0.00    -0.071 OA 
HETATM   18  N   UNL     1     -12.182  12.010  70.401  1.00  0.00    -0.325 N  
HETATM   19  O   UNL     1     -12.669  12.751  71.252  1.00  0.00    -0.368 OA 
HETATM   20  O   UNL     1     -11.624  10.923  70.521  1.00  0.00    -0.322 OA 
ENDBRANCH  16  17
ENDBRANCH  11  16
ENDBRANCH   6  11
ENDBRANCH   5   6
ENDBRANCH   4   5
TORSDOF 7
ENDMDL
MODEL      228
REMARK 921   NORMALIZED FREE ENERGY PREDICTED BY IDOCK:   -3.56 KCAL/MOL
REMARK 922        TOTAL FREE ENERGY PREDICTED BY IDOCK:   -5.96 KCAL/MOL
REMARK 923 INTER-LIGAND FREE ENERGY PREDICTED BY IDOCK:   -5.06 KCAL/MOL
REMARK 924 INTRA-LIGAND FREE ENERGY PREDICTED BY IDOCK:   -0.90 KCAL/MOL
REMARK 927      BINDING AFFINITY PREDICTED BY RF-SCORE:    0.00 PKD
ROOT
HETATM    1  O   UNL     1      -8.677   5.291  71.918  1.00  0.00    -0.129 OA 
HETATM    2  N   UNL     1      -9.322   6.257  72.316  1.00  0.00    -0.146 N  
HETATM    3  O   UNL     1     -10.096   6.356  73.270  1.00  0.00    -0.176 OA 
HETATM    4  O   UNL     1      -9.112   7.420  71.531  1.00  0.00    -0.139 OA 
ENDROOT
BRANCH   4   5
HETATM    5  C   UNL     1      -9.887   8.532  71.982  1.00  0.00    -0.312 C  
BRANCH   5   6
HETATM    6  C   UNL     1     -11.007   8.821  70.950  1.00  0.00    -0.262 C  
BRANCH   6   7
HETATM    7  O   UNL     1     -12.245   9.250  71.542  1.00  0.00    -0.318 OA 
HETATM    8  O   UNL     1     -12.998   7.133  71.266  1.00  0.00    -0.383 OA 
HETATM    9  N   UNL     1     -13.247   8.260  71.690  1.00  0.00    -0.334 N  
HETATM   10  O   UNL     1     -14.242   8.674  72.277  1.00  0.00    -0.439 OA 
ENDBRANCH   6   7
BRANCH   6  11
HETATM   11  C   UNL     1     -10.563   9.736  69.775  1.00  0.00    -0.257 C  
BRANCH  11  12
HETATM   12  O   UNL     1     -10.053   8.907  68.725  1.00  0.00    -0.188 OA 
HETATM   13  O   UNL     1      -8.200  10.189  68.813  1.00  0.00    -0.101 OA 
HETATM   14  O   UNL     1      -8.133   8.114  67.993  1.00  0.00    -0.124 OA 
HETATM   15  N   UNL     1      -8.667   9.095  68.499  1.00  0.00    -0.129 N  
ENDBRANCH  11  12
BRANCH  11  16
HETATM   16  C   UNL     1     -11.693  10.652  69.260  1.00  0.00    -0.264 C  
BRANCH  16  17
HETATM   17  O   UNL     1     -11.436  12.019  69.574  1.00  0.00    -0.284 OA 
HETATM   18  N   UNL     1     -11.812  12.888  68.506  1.00  0.00    -0.323 N  
HETATM   19  O   UNL     1     -11.687  14.075  68.796  1.00  0.00    -0.308 OA 
HETATM   20  O   UNL     1     -12.183  12.360  67.460  1.00  0.00    -0.442 OA 
ENDBRANCH  16  17
ENDBRANCH  11  16
ENDBRANCH   6  11
ENDBRANCH   5   6
ENDBRANCH   4   5
TORSDOF 7
ENDMDL
MODEL      229
REMARK 921   NORMALIZED FREE ENERGY PREDICTED BY IDOCK:   -3.56 KCAL/MOL
REMARK 922        TOTAL FREE ENERGY PREDICTED BY IDOCK:   -5.96 KCAL/MOL
REMARK 923 INTER-LIGAND FREE ENERGY PREDICTED BY IDOCK:   -5.16 KCAL/MOL
REMARK 924 INTRA-LIGAND FREE ENERGY PREDICTED BY IDOCK:   -0.79 KCAL/MOL
REMARK 927      BINDING AFFINITY PREDICTED BY RF-SCORE:    0.00 PKD
ROOT
HETATM    1  O   UNL     1      -6.119   9.371  68.876  1.00  0.00    -0.043 OA 
HETATM    2  N   UNL     1      -7.043   9.712  69.610  1.00  0.00    -0.066 N  
HETATM    3  O   UNL     1      -7.090  10.588  70.475  1.00  0.00    -0.278 OA 
HETATM    4  O   UNL     1      -8.225   8.955  69.393  1.00  0.00    -0.102 OA 
ENDROOT
BRANCH   4   5
HETATM    5  C   UNL     1      -9.287   9.336  70.268  1.00  0.00    -0.239 C  
BRANCH   5   6
HETATM    6  C   UNL     1     -10.640   8.928  69.631  1.00  0.00    -0.226 C  
BRANCH   6   7
HETATM    7  O   UNL     1     -10.910   7.517  69.696  1.00  0.00    -0.243 OA 
HETATM    8  O   UNL     1     -10.875   7.505  67.433  1.00  0.00    -0.267 OA 
HETATM    9  N   UNL     1     -10.995   6.836  68.457  1.00  0.00    -0.218 N  
HETATM   10  O   UNL     1     -11.142   5.625  68.589  1.00  0.00    -0.140 OA 
ENDBRANCH   6   7
BRANCH   6  11
HETATM   11  C   UNL     1     -11.845   9.785  70.106  1.00  0.00    -0.079 C  
BRANCH  11  12
HETATM   12  O   UNL     1     -11.850   9.805  71.538  1.00  0.00    -0.379 OA 
HETATM   13  O   UNL     1     -13.952   9.000  71.396  1.00  0.00    -0.356 OA 
HETATM   14  O   UNL     1     -12.718   8.693  73.231  1.00  0.00     0.068 OA 
HETATM   15  N   UNL     1     -12.945   9.098  72.095  1.00  0.00    -0.402 N  
ENDBRANCH  11  12
BRANCH  11  16
HETATM   16  C   UNL     1     -11.835  11.217  69.532  1.00  0.00    -0.357 C  
BRANCH  16  17
HETATM   17  O   UNL     1     -12.249  11.232  68.167  1.00  0.00    -0.622 OA 
HETATM   18  N   UNL     1     -11.893  12.454  67.520  1.00  0.00    -0.339 N  
HETATM   19  O   UNL     1     -12.156  12.446  66.320  1.00  0.00    -0.612 OA 
HETATM   20  O   UNL     1     -11.403  13.336  68.220  1.00  0.00    -0.264 OA 
ENDBRANCH  16  17
ENDBRANCH  11  16
ENDBRANCH   6  11
ENDBRANCH   5   6
ENDBRANCH   4   5
TORSDOF 7
ENDMDL
MODEL      230
REMARK 921   NORMALIZED FREE ENERGY PREDICTED BY IDOCK:   -3.56 KCAL/MOL
REMARK 922        TOTAL FREE ENERGY PREDICTED BY IDOCK:   -5.96 KCAL/MOL
REMARK 923 INTER-LIGAND FREE ENERGY PREDICTED BY IDOCK:   -5.76 KCAL/MOL
REMARK 924 INTRA-LIGAND FREE ENERGY PREDICTED BY IDOCK:   -0.20 KCAL/MOL
REMARK 927      BINDING AFFINITY PREDICTED BY RF-SCORE:    0.00 PKD
ROOT
HETATM    1  O   UNL     1     -12.844  13.472  71.684  1.00  0.00    -0.348 OA 
HETATM    2  N   UNL     1     -12.487  12.520  70.996  1.00  0.00    -0.334 N  
HETATM    3  O   UNL     1     -12.531  11.310  71.228  1.00  0.00    -0.368 OA 
HETATM    4  O   UNL     1     -11.948  12.918  69.744  1.00  0.00    -0.313 OA 
ENDROOT
BRANCH   4   5
HETATM    5  C   UNL     1     -11.508  11.808  68.961  1.00  0.00    -0.297 C  
BRANCH   5   6
HETATM    6  C   UNL     1     -11.101  12.312  67.552  1.00  0.00    -0.275 C  
BRANCH   6   7
HETATM    7  O   UNL     1     -12.210  12.744  66.746  1.00  0.00    -0.470 OA 
HETATM    8  O   UNL     1     -11.322  11.537  65.050  1.00  0.00    -0.215 OA 
HETATM    9  N   UNL     1     -12.251  12.252  65.419  1.00  0.00    -0.320 N  
HETATM   10  O   UNL     1     -13.265  12.590  64.816  1.00  0.00    -0.839 OA 
ENDBRANCH   6   7
BRANCH   6  11
HETATM   11  C   UNL     1      -9.939  13.344  67.563  1.00  0.00    -0.230 C  
BRANCH  11  12
HETATM   12  O   UNL     1     -10.211  14.320  68.574  1.00  0.00    -0.234 OA 
HETATM   13  O   UNL     1     -10.477  15.786  66.881  1.00  0.00    -0.304 OA 
HETATM   14  O   UNL     1     -11.420  16.138  68.873  1.00  0.00    -0.352 OA 
HETATM   15  N   UNL     1     -10.753  15.520  68.050  1.00  0.00    -0.274 N  
ENDBRANCH  11  12
BRANCH  11  16
HETATM   16  C   UNL     1      -8.554  12.697  67.776  1.00  0.00    -0.179 C  
BRANCH  16  17
HETATM   17  O   UNL     1      -7.756  13.463  68.675  1.00  0.00    -0.130 OA 
HETATM   18  N   UNL     1      -6.849  12.641  69.409  1.00  0.00    -0.022 N  
HETATM   19  O   UNL     1      -6.087  13.295  70.119  1.00  0.00    -0.145 OA 
HETATM   20  O   UNL     1      -6.950  11.426  69.261  1.00  0.00    -0.111 OA 
ENDBRANCH  16  17
ENDBRANCH  11  16
ENDBRANCH   6  11
ENDBRANCH   5   6
ENDBRANCH   4   5
TORSDOF 7
ENDMDL
MODEL      231
REMARK 921   NORMALIZED FREE ENERGY PREDICTED BY IDOCK:   -3.56 KCAL/MOL
REMARK 922        TOTAL FREE ENERGY PREDICTED BY IDOCK:   -5.95 KCAL/MOL
REMARK 923 INTER-LIGAND FREE ENERGY PREDICTED BY IDOCK:   -4.72 KCAL/MOL
REMARK 924 INTRA-LIGAND FREE ENERGY PREDICTED BY IDOCK:   -1.23 KCAL/MOL
REMARK 927      BINDING AFFINITY PREDICTED BY RF-SCORE:    0.00 PKD
ROOT
HETATM    1  O   UNL     1      -9.921   4.036  73.301  1.00  0.00    -0.128 OA 
HETATM    2  N   UNL     1     -10.503   5.084  73.035  1.00  0.00    -0.188 N  
HETATM    3  O   UNL     1     -10.783   6.043  73.757  1.00  0.00    -0.261 OA 
HETATM    4  O   UNL     1     -10.893   5.166  71.672  1.00  0.00    -0.169 OA 
ENDROOT
BRANCH   4   5
HETATM    5  C   UNL     1     -11.594   6.374  71.376  1.00  0.00    -0.311 C  
BRANCH   5   6
HETATM    6  C   UNL     1     -10.752   7.217  70.383  1.00  0.00    -0.236 C  
BRANCH   6   7
HETATM    7  O   UNL     1     -11.249   7.194  69.034  1.00  0.00    -0.076 OA 
HETATM    8  O   UNL     1      -9.526   5.815  68.528  1.00  0.00    -0.119 OA 
HETATM    9  N   UNL     1     -10.531   6.389  68.115  1.00  0.00    -0.192 N  
HETATM   10  O   UNL     1     -11.058   6.348  67.007  1.00  0.00    -0.384 OA 
ENDBRANCH   6   7
BRANCH   6  11
HETATM   11  C   UNL     1     -10.450   8.659  70.878  1.00  0.00    -0.214 C  
BRANCH  11  12
HETATM   12  O   UNL     1     -11.382   8.986  71.915  1.00  0.00    -0.349 OA 
HETATM   13  O   UNL     1     -11.871  10.819  70.695  1.00  0.00    -0.318 OA 
HETATM   14  O   UNL     1     -13.327   9.989  72.171  1.00  0.00    -0.444 OA 
HETATM   15  N   UNL     1     -12.270  10.028  71.549  1.00  0.00    -0.396 N  
ENDBRANCH  11  12
BRANCH  11  16
HETATM   16  C   UNL     1      -8.996   8.842  71.362  1.00  0.00    -0.238 C  
BRANCH  16  17
HETATM   17  O   UNL     1      -8.402   7.591  71.704  1.00  0.00    -0.105 OA 
HETATM   18  N   UNL     1      -7.882   7.599  73.034  1.00  0.00    -0.101 N  
HETATM   19  O   UNL     1      -7.452   6.501  73.379  1.00  0.00    -0.085 OA 
HETATM   20  O   UNL     1      -7.909   8.667  73.639  1.00  0.00    -0.406 OA 
ENDBRANCH  16  17
ENDBRANCH  11  16
ENDBRANCH   6  11
ENDBRANCH   5   6
ENDBRANCH   4   5
TORSDOF 7
ENDMDL
MODEL      232
REMARK 921   NORMALIZED FREE ENERGY PREDICTED BY IDOCK:   -3.55 KCAL/MOL
REMARK 922        TOTAL FREE ENERGY PREDICTED BY IDOCK:   -5.95 KCAL/MOL
REMARK 923 INTER-LIGAND FREE ENERGY PREDICTED BY IDOCK:   -5.15 KCAL/MOL
REMARK 924 INTRA-LIGAND FREE ENERGY PREDICTED BY IDOCK:   -0.79 KCAL/MOL
REMARK 927      BINDING AFFINITY PREDICTED BY RF-SCORE:    0.00 PKD
ROOT
HETATM    1  O   UNL     1     -11.302   4.909  72.988  1.00  0.00    -0.291 OA 
HETATM    2  N   UNL     1     -10.944   6.074  73.136  1.00  0.00    -0.255 N  
HETATM    3  O   UNL     1     -10.511   6.652  74.134  1.00  0.00    -0.353 OA 
HETATM    4  O   UNL     1     -11.060   6.840  71.946  1.00  0.00    -0.233 OA 
ENDROOT
BRANCH   4   5
HETATM    5  C   UNL     1     -10.670   8.201  72.132  1.00  0.00    -0.293 C  
BRANCH   5   6
HETATM    6  C   UNL     1     -11.224   9.051  70.960  1.00  0.00    -0.295 C  
BRANCH   6   7
HETATM    7  O   UNL     1     -11.650  10.368  71.348  1.00  0.00    -0.266 OA 
HETATM    8  O   UNL     1     -13.742   9.527  71.546  1.00  0.00    -0.353 OA 
HETATM    9  N   UNL     1     -13.022  10.516  71.667  1.00  0.00    -0.447 N  
HETATM   10  O   UNL     1     -13.299  11.641  72.070  1.00  0.00    -0.481 OA 
ENDBRANCH   6   7
BRANCH   6  11
HETATM   11  C   UNL     1     -10.307   9.071  69.706  1.00  0.00    -0.211 C  
BRANCH  11  12
HETATM   12  O   UNL     1      -8.947   8.958  70.138  1.00  0.00    -0.150 OA 
HETATM   13  O   UNL     1      -8.589  10.891  69.033  1.00  0.00    -0.156 OA 
HETATM   14  O   UNL     1      -7.249  10.246  70.698  1.00  0.00    -0.306 OA 
HETATM   15  N   UNL     1      -8.203  10.147  69.933  1.00  0.00    -0.158 N  
ENDBRANCH  11  12
BRANCH  11  16
HETATM   16  C   UNL     1     -10.656   7.970  68.682  1.00  0.00    -0.109 C  
BRANCH  16  17
HETATM   17  O   UNL     1      -9.595   7.774  67.749  1.00  0.00    -0.141 OA 
HETATM   18  N   UNL     1      -9.920   6.777  66.780  1.00  0.00    -0.185 N  
HETATM   19  O   UNL     1      -9.057   6.663  65.912  1.00  0.00    -0.130 OA 
HETATM   20  O   UNL     1     -10.974   6.167  66.937  1.00  0.00    -0.343 OA 
ENDBRANCH  16  17
ENDBRANCH  11  16
ENDBRANCH   6  11
ENDBRANCH   5   6
ENDBRANCH   4   5
TORSDOF 7
ENDMDL
MODEL      233
REMARK 921   NORMALIZED FREE ENERGY PREDICTED BY IDOCK:   -3.54 KCAL/MOL
REMARK 922        TOTAL FREE ENERGY PREDICTED BY IDOCK:   -5.92 KCAL/MOL
REMARK 923 INTER-LIGAND FREE ENERGY PREDICTED BY IDOCK:   -4.91 KCAL/MOL
REMARK 924 INTRA-LIGAND FREE ENERGY PREDICTED BY IDOCK:   -1.02 KCAL/MOL
REMARK 927      BINDING AFFINITY PREDICTED BY RF-SCORE:    0.00 PKD
ROOT
HETATM    1  O   UNL     1     -10.820  15.149  64.728  1.00  0.00    -0.403 OA 
HETATM    2  N   UNL     1     -11.334  14.045  64.888  1.00  0.00    -0.339 N  
HETATM    3  O   UNL     1     -12.484  13.744  65.212  1.00  0.00    -0.437 OA 
HETATM    4  O   UNL     1     -10.430  12.977  64.649  1.00  0.00    -0.343 OA 
ENDROOT
BRANCH   4   5
HETATM    5  C   UNL     1     -11.025  11.698  64.864  1.00  0.00    -0.284 C  
BRANCH   5   6
HETATM    6  C   UNL     1     -10.136  10.882  65.837  1.00  0.00    -0.252 C  
BRANCH   6   7
HETATM    7  O   UNL     1      -8.985  10.288  65.214  1.00  0.00    -0.165 OA 
HETATM    8  O   UNL     1      -9.644   8.313  66.103  1.00  0.00    -0.209 OA 
HETATM    9  N   UNL     1      -8.822   8.893  65.397  1.00  0.00    -0.193 N  
HETATM   10  O   UNL     1      -7.870   8.438  64.770  1.00  0.00    -0.112 OA 
ENDBRANCH   6   7
BRANCH   6  11
HETATM   11  C   UNL     1      -9.777  11.637  67.147  1.00  0.00    -0.181 C  
BRANCH  11  12
HETATM   12  O   UNL     1     -10.495  11.033  68.229  1.00  0.00    -0.171 OA 
HETATM   13  O   UNL     1     -11.758  12.902  68.239  1.00  0.00    -0.312 OA 
HETATM   14  O   UNL     1     -12.530  10.979  69.072  1.00  0.00    -0.449 OA 
HETATM   15  N   UNL     1     -11.704  11.708  68.532  1.00  0.00    -0.308 N  
ENDBRANCH  11  12
BRANCH  11  16
HETATM   16  C   UNL     1      -8.261  11.665  67.435  1.00  0.00    -0.153 C  
BRANCH  16  17
HETATM   17  O   UNL     1      -7.927  10.825  68.539  1.00  0.00    -0.114 OA 
HETATM   18  N   UNL     1      -7.004  11.459  69.425  1.00  0.00    -0.112 N  
HETATM   19  O   UNL     1      -6.779  10.789  70.430  1.00  0.00    -0.279 OA 
HETATM   20  O   UNL     1      -6.551  12.546  69.077  1.00  0.00    -0.090 OA 
ENDBRANCH  16  17
ENDBRANCH  11  16
ENDBRANCH   6  11
ENDBRANCH   5   6
ENDBRANCH   4   5
TORSDOF 7
ENDMDL
MODEL      234
REMARK 921   NORMALIZED FREE ENERGY PREDICTED BY IDOCK:   -3.53 KCAL/MOL
REMARK 922        TOTAL FREE ENERGY PREDICTED BY IDOCK:   -5.91 KCAL/MOL
REMARK 923 INTER-LIGAND FREE ENERGY PREDICTED BY IDOCK:   -5.47 KCAL/MOL
REMARK 924 INTRA-LIGAND FREE ENERGY PREDICTED BY IDOCK:   -0.45 KCAL/MOL
REMARK 927      BINDING AFFINITY PREDICTED BY RF-SCORE:    0.00 PKD
ROOT
HETATM    1  O   UNL     1      -9.107  17.135  65.728  1.00  0.00    -0.525 OA 
HETATM    2  N   UNL     1     -10.052  16.416  65.414  1.00  0.00    -0.194 N  
HETATM    3  O   UNL     1     -10.929  16.582  64.565  1.00  0.00    -0.827 OA 
HETATM    4  O   UNL     1     -10.103  15.216  66.170  1.00  0.00    -0.263 OA 
ENDROOT
BRANCH   4   5
HETATM    5  C   UNL     1     -11.220  14.397  65.821  1.00  0.00    -0.326 C  
BRANCH   5   6
HETATM    6  C   UNL     1     -10.796  12.907  65.886  1.00  0.00    -0.272 C  
BRANCH   6   7
HETATM    7  O   UNL     1      -9.619  12.604  65.118  1.00  0.00    -0.060 OA 
HETATM    8  O   UNL     1     -10.992  11.752  63.532  1.00  0.00    -0.396 OA 
HETATM    9  N   UNL     1      -9.832  12.004  63.853  1.00  0.00    -0.273 N  
HETATM   10  O   UNL     1      -8.793  11.851  63.218  1.00  0.00     0.121 OA 
ENDBRANCH   6   7
BRANCH   6  11
HETATM   11  C   UNL     1     -10.728  12.333  67.328  1.00  0.00    -0.231 C  
BRANCH  11  12
HETATM   12  O   UNL     1      -9.430  11.760  67.525  1.00  0.00    -0.170 OA 
HETATM   13  O   UNL     1     -10.460   9.756  67.422  1.00  0.00    -0.227 OA 
HETATM   14  O   UNL     1      -8.284   9.963  66.967  1.00  0.00    -0.116 OA 
HETATM   15  N   UNL     1      -9.401  10.365  67.279  1.00  0.00    -0.146 N  
ENDBRANCH  11  12
BRANCH  11  16
HETATM   16  C   UNL     1     -11.041  13.382  68.415  1.00  0.00    -0.273 C  
BRANCH  16  17
HETATM   17  O   UNL     1     -11.551  12.768  69.597  1.00  0.00    -0.287 OA 
HETATM   18  N   UNL     1     -12.202  13.714  70.446  1.00  0.00    -0.353 N  
HETATM   19  O   UNL     1     -12.730  13.187  71.422  1.00  0.00    -0.357 OA 
HETATM   20  O   UNL     1     -12.141  14.896  70.117  1.00  0.00    -0.289 OA 
ENDBRANCH  16  17
ENDBRANCH  11  16
ENDBRANCH   6  11
ENDBRANCH   5   6
ENDBRANCH   4   5
TORSDOF 7
ENDMDL
MODEL      235
REMARK 921   NORMALIZED FREE ENERGY PREDICTED BY IDOCK:   -3.51 KCAL/MOL
REMARK 922        TOTAL FREE ENERGY PREDICTED BY IDOCK:   -5.88 KCAL/MOL
REMARK 923 INTER-LIGAND FREE ENERGY PREDICTED BY IDOCK:   -5.30 KCAL/MOL
REMARK 924 INTRA-LIGAND FREE ENERGY PREDICTED BY IDOCK:   -0.58 KCAL/MOL
REMARK 927      BINDING AFFINITY PREDICTED BY RF-SCORE:    0.00 PKD
ROOT
HETATM    1  O   UNL     1      -9.052  19.901  67.960  1.00  0.00    -0.330 OA 
HETATM    2  N   UNL     1      -9.774  18.958  67.647  1.00  0.00    -0.306 N  
HETATM    3  O   UNL     1     -10.851  18.945  67.049  1.00  0.00    -0.427 OA 
HETATM    4  O   UNL     1      -9.247  17.704  68.054  1.00  0.00    -0.258 OA 
ENDROOT
BRANCH   4   5
HETATM    5  C   UNL     1     -10.104  16.614  67.713  1.00  0.00    -0.275 C  
BRANCH   5   6
HETATM    6  C   UNL     1      -9.240  15.353  67.450  1.00  0.00    -0.197 C  
BRANCH   6   7
HETATM    7  O   UNL     1      -8.156  15.188  68.380  1.00  0.00    -0.130 OA 
HETATM    8  O   UNL     1      -6.762  15.846  66.722  1.00  0.00    -0.249 OA 
HETATM    9  N   UNL     1      -6.862  15.502  67.898  1.00  0.00    -0.133 N  
HETATM   10  O   UNL     1      -5.998  15.420  68.765  1.00  0.00    -0.093 OA 
ENDBRANCH   6   7
BRANCH   6  11
HETATM   11  C   UNL     1     -10.065  14.050  67.264  1.00  0.00    -0.249 C  
BRANCH  11  12
HETATM   12  O   UNL     1     -10.819  14.161  66.051  1.00  0.00    -0.291 OA 
HETATM   13  O   UNL     1     -12.348  12.841  67.053  1.00  0.00    -0.387 OA 
HETATM   14  O   UNL     1     -12.915  14.197  65.373  1.00  0.00    -0.706 OA 
HETATM   15  N   UNL     1     -12.148  13.687  66.183  1.00  0.00    -0.414 N  
ENDBRANCH  11  12
BRANCH  11  16
HETATM   16  C   UNL     1      -9.195  12.776  67.260  1.00  0.00    -0.203 C  
BRANCH  16  17
HETATM   17  O   UNL     1      -9.415  11.993  68.432  1.00  0.00    -0.201 OA 
HETATM   18  N   UNL     1      -9.180  10.606  68.193  1.00  0.00    -0.144 N  
HETATM   19  O   UNL     1      -9.273   9.929  69.215  1.00  0.00    -0.174 OA 
HETATM   20  O   UNL     1      -8.943  10.269  67.036  1.00  0.00    -0.136 OA 
ENDBRANCH  16  17
ENDBRANCH  11  16
ENDBRANCH   6  11
ENDBRANCH   5   6
ENDBRANCH   4   5
TORSDOF 7
ENDMDL
MODEL      236
REMARK 921   NORMALIZED FREE ENERGY PREDICTED BY IDOCK:   -3.51 KCAL/MOL
REMARK 922        TOTAL FREE ENERGY PREDICTED BY IDOCK:   -5.88 KCAL/MOL
REMARK 923 INTER-LIGAND FREE ENERGY PREDICTED BY IDOCK:   -5.12 KCAL/MOL
REMARK 924 INTRA-LIGAND FREE ENERGY PREDICTED BY IDOCK:   -0.76 KCAL/MOL
REMARK 927      BINDING AFFINITY PREDICTED BY RF-SCORE:    0.00 PKD
ROOT
HETATM    1  O   UNL     1      -8.371   4.670  69.999  1.00  0.00    -0.067 OA 
HETATM    2  N   UNL     1      -9.453   5.180  70.275  1.00  0.00    -0.161 N  
HETATM    3  O   UNL     1     -10.523   5.155  69.664  1.00  0.00    -0.280 OA 
HETATM    4  O   UNL     1      -9.425   5.899  71.499  1.00  0.00    -0.152 OA 
ENDROOT
BRANCH   4   5
HETATM    5  C   UNL     1     -10.678   6.514  71.801  1.00  0.00    -0.228 C  
BRANCH   5   6
HETATM    6  C   UNL     1     -10.491   8.052  71.846  1.00  0.00    -0.236 C  
BRANCH   6   7
HETATM    7  O   UNL     1      -9.147   8.482  71.566  1.00  0.00    -0.174 OA 
HETATM    8  O   UNL     1      -8.756   8.385  73.794  1.00  0.00    -0.240 OA 
HETATM    9  N   UNL     1      -8.283   8.608  72.682  1.00  0.00    -0.047 N  
HETATM   10  O   UNL     1      -7.134   8.895  72.363  1.00  0.00    -0.318 OA 
ENDBRANCH   6   7
BRANCH   6  11
HETATM   11  C   UNL     1     -11.548   8.841  71.026  1.00  0.00    -0.288 C  
BRANCH  11  12
HETATM   12  O   UNL     1     -12.453   9.469  71.941  1.00  0.00    -0.369 OA 
HETATM   13  O   UNL     1     -14.055   8.185  71.007  1.00  0.00    -0.136 OA 
HETATM   14  O   UNL     1     -14.290   9.009  73.068  1.00  0.00    -0.462 OA 
HETATM   15  N   UNL     1     -13.711   8.819  72.003  1.00  0.00    -0.416 N  
ENDBRANCH  11  12
BRANCH  11  16
HETATM   16  C   UNL     1     -10.923   9.877  70.067  1.00  0.00    -0.291 C  
BRANCH  16  17
HETATM   17  O   UNL     1     -11.889  10.381  69.147  1.00  0.00    -0.186 OA 
HETATM   18  N   UNL     1     -11.301  11.267  68.195  1.00  0.00    -0.279 N  
HETATM   19  O   UNL     1     -12.099  11.636  67.337  1.00  0.00    -0.605 OA 
HETATM   20  O   UNL     1     -10.118  11.557  68.357  1.00  0.00    -0.192 OA 
ENDBRANCH  16  17
ENDBRANCH  11  16
ENDBRANCH   6  11
ENDBRANCH   5   6
ENDBRANCH   4   5
TORSDOF 7
ENDMDL
MODEL      237
REMARK 921   NORMALIZED FREE ENERGY PREDICTED BY IDOCK:   -3.50 KCAL/MOL
REMARK 922        TOTAL FREE ENERGY PREDICTED BY IDOCK:   -5.87 KCAL/MOL
REMARK 923 INTER-LIGAND FREE ENERGY PREDICTED BY IDOCK:   -5.09 KCAL/MOL
REMARK 924 INTRA-LIGAND FREE ENERGY PREDICTED BY IDOCK:   -0.79 KCAL/MOL
REMARK 927      BINDING AFFINITY PREDICTED BY RF-SCORE:    0.00 PKD
ROOT
HETATM    1  O   UNL     1      -8.700   8.989  69.252  1.00  0.00    -0.132 OA 
HETATM    2  N   UNL     1      -9.256   9.725  68.442  1.00  0.00    -0.129 N  
HETATM    3  O   UNL     1     -10.160   9.486  67.639  1.00  0.00    -0.179 OA 
HETATM    4  O   UNL     1      -8.753  11.052  68.470  1.00  0.00    -0.146 OA 
ENDROOT
BRANCH   4   5
HETATM    5  C   UNL     1      -9.384  11.897  67.507  1.00  0.00    -0.177 C  
BRANCH   5   6
HETATM    6  C   UNL     1      -9.261  13.372  67.969  1.00  0.00    -0.209 C  
BRANCH   6   7
HETATM    7  O   UNL     1      -8.111  14.053  67.438  1.00  0.00    -0.173 OA 
HETATM    8  O   UNL     1      -7.208  13.937  69.511  1.00  0.00    -0.002 OA 
HETATM    9  N   UNL     1      -7.048  14.289  68.344  1.00  0.00    -0.095 N  
HETATM   10  O   UNL     1      -6.068  14.796  67.807  1.00  0.00    -0.162 OA 
ENDBRANCH   6   7
BRANCH   6  11
HETATM   11  C   UNL     1     -10.567  14.197  67.802  1.00  0.00    -0.243 C  
BRANCH  11  12
HETATM   12  O   UNL     1     -11.638  13.293  67.509  1.00  0.00    -0.305 OA 
HETATM   13  O   UNL     1     -11.904  14.460  65.597  1.00  0.00    -0.353 OA 
HETATM   14  O   UNL     1     -12.613  12.351  65.772  1.00  0.00    -0.532 OA 
HETATM   15  N   UNL     1     -12.084  13.385  66.166  1.00  0.00    -0.420 N  
ENDBRANCH  11  12
BRANCH  11  16
HETATM   16  C   UNL     1     -10.897  15.066  69.034  1.00  0.00    -0.242 C  
BRANCH  16  17
HETATM   17  O   UNL     1     -12.214  14.804  69.515  1.00  0.00    -0.296 OA 
HETATM   18  N   UNL     1     -12.467  15.471  70.751  1.00  0.00    -0.417 N  
HETATM   19  O   UNL     1     -13.628  15.335  71.132  1.00  0.00    -0.466 OA 
HETATM   20  O   UNL     1     -11.525  16.061  71.273  1.00  0.00    -0.407 OA 
ENDBRANCH  16  17
ENDBRANCH  11  16
ENDBRANCH   6  11
ENDBRANCH   5   6
ENDBRANCH   4   5
TORSDOF 7
ENDMDL
MODEL      238
REMARK 921   NORMALIZED FREE ENERGY PREDICTED BY IDOCK:   -3.50 KCAL/MOL
REMARK 922        TOTAL FREE ENERGY PREDICTED BY IDOCK:   -5.87 KCAL/MOL
REMARK 923 INTER-LIGAND FREE ENERGY PREDICTED BY IDOCK:   -4.92 KCAL/MOL
REMARK 924 INTRA-LIGAND FREE ENERGY PREDICTED BY IDOCK:   -0.95 KCAL/MOL
REMARK 927      BINDING AFFINITY PREDICTED BY RF-SCORE:    0.00 PKD
ROOT
HETATM    1  O   UNL     1      -9.707   4.950  67.527  1.00  0.00    -0.147 OA 
HETATM    2  N   UNL     1     -10.275   5.213  68.583  1.00  0.00    -0.154 N  
HETATM    3  O   UNL     1     -10.230   4.642  69.674  1.00  0.00    -0.221 OA 
HETATM    4  O   UNL     1     -11.101   6.365  68.491  1.00  0.00    -0.318 OA 
ENDROOT
BRANCH   4   5
HETATM    5  C   UNL     1     -11.781   6.650  69.714  1.00  0.00    -0.216 C  
BRANCH   5   6
HETATM    6  C   UNL     1     -11.037   7.792  70.452  1.00  0.00    -0.251 C  
BRANCH   6   7
HETATM    7  O   UNL     1     -10.385   7.373  71.663  1.00  0.00    -0.197 OA 
HETATM    8  O   UNL     1     -12.033   8.431  72.801  1.00  0.00    -0.367 OA 
HETATM    9  N   UNL     1     -11.014   7.748  72.877  1.00  0.00    -0.391 N  
HETATM   10  O   UNL     1     -10.452   7.287  73.866  1.00  0.00    -0.353 OA 
ENDBRANCH   6   7
BRANCH   6  11
HETATM   11  C   UNL     1     -10.105   8.633  69.538  1.00  0.00    -0.203 C  
BRANCH  11  12
HETATM   12  O   UNL     1     -10.664   9.945  69.406  1.00  0.00    -0.211 OA 
HETATM   13  O   UNL     1     -10.536   9.615  67.178  1.00  0.00    -0.247 OA 
HETATM   14  O   UNL     1     -11.974  11.083  68.049  1.00  0.00    -0.623 OA 
HETATM   15  N   UNL     1     -11.094  10.229  68.086  1.00  0.00    -0.278 N  
ENDBRANCH  11  12
BRANCH  11  16
HETATM   16  C   UNL     1      -8.651   8.700  70.051  1.00  0.00    -0.132 C  
BRANCH  16  17
HETATM   17  O   UNL     1      -8.267  10.041  70.350  1.00  0.00    -0.159 OA 
HETATM   18  N   UNL     1      -6.848  10.198  70.348  1.00  0.00    -0.143 N  
HETATM   19  O   UNL     1      -6.502  11.366  70.509  1.00  0.00    -0.270 OA 
HETATM   20  O   UNL     1      -6.173   9.181  70.212  1.00  0.00    -0.039 OA 
ENDBRANCH  16  17
ENDBRANCH  11  16
ENDBRANCH   6  11
ENDBRANCH   5   6
ENDBRANCH   4   5
TORSDOF 7
ENDMDL
MODEL      239
REMARK 921   NORMALIZED FREE ENERGY PREDICTED BY IDOCK:   -3.50 KCAL/MOL
REMARK 922        TOTAL FREE ENERGY PREDICTED BY IDOCK:   -5.87 KCAL/MOL
REMARK 923 INTER-LIGAND FREE ENERGY PREDICTED BY IDOCK:   -4.97 KCAL/MOL
REMARK 924 INTRA-LIGAND FREE ENERGY PREDICTED BY IDOCK:   -0.90 KCAL/MOL
REMARK 927      BINDING AFFINITY PREDICTED BY RF-SCORE:    0.00 PKD
ROOT
HETATM    1  O   UNL     1      -9.948   8.003  66.409  1.00  0.00    -0.229 OA 
HETATM    2  N   UNL     1      -9.338   9.062  66.284  1.00  0.00    -0.205 N  
HETATM    3  O   UNL     1      -8.259   9.418  66.760  1.00  0.00    -0.111 OA 
HETATM    4  O   UNL     1     -10.014   9.991  65.451  1.00  0.00    -0.297 OA 
ENDROOT
BRANCH   4   5
HETATM    5  C   UNL     1      -9.314  11.230  65.333  1.00  0.00    -0.210 C  
BRANCH   5   6
HETATM    6  C   UNL     1     -10.339  12.393  65.337  1.00  0.00    -0.277 C  
BRANCH   6   7
HETATM    7  O   UNL     1     -11.689  11.979  65.069  1.00  0.00    -0.326 OA 
HETATM    8  O   UNL     1     -11.400  12.742  62.957  1.00  0.00    -0.201 OA 
HETATM    9  N   UNL     1     -12.160  12.189  63.749  1.00  0.00    -0.496 N  
HETATM   10  O   UNL     1     -13.286  11.737  63.568  1.00  0.00    -0.518 OA 
ENDBRANCH   6   7
BRANCH   6  11
HETATM   11  C   UNL     1     -10.239  13.318  66.582  1.00  0.00    -0.265 C  
BRANCH  11  12
HETATM   12  O   UNL     1      -9.161  12.856  67.403  1.00  0.00    -0.182 OA 
HETATM   13  O   UNL     1     -10.712  12.551  69.012  1.00  0.00    -0.195 OA 
HETATM   14  O   UNL     1      -8.787  11.421  69.033  1.00  0.00    -0.059 OA 
HETATM   15  N   UNL     1      -9.606  12.219  68.588  1.00  0.00    -0.107 N  
ENDBRANCH  11  12
BRANCH  11  16
HETATM   16  C   UNL     1     -10.059  14.807  66.219  1.00  0.00    -0.285 C  
BRANCH  16  17
HETATM   17  O   UNL     1      -9.075  15.427  67.043  1.00  0.00    -0.204 OA 
HETATM   18  N   UNL     1      -9.640  16.450  67.863  1.00  0.00    -0.227 N  
HETATM   19  O   UNL     1      -8.825  16.929  68.649  1.00  0.00    -0.248 OA 
HETATM   20  O   UNL     1     -10.821  16.728  67.677  1.00  0.00    -0.326 OA 
ENDBRANCH  16  17
ENDBRANCH  11  16
ENDBRANCH   6  11
ENDBRANCH   5   6
ENDBRANCH   4   5
TORSDOF 7
ENDMDL
MODEL      240
REMARK 921   NORMALIZED FREE ENERGY PREDICTED BY IDOCK:   -3.49 KCAL/MOL
REMARK 922        TOTAL FREE ENERGY PREDICTED BY IDOCK:   -5.86 KCAL/MOL
REMARK 923 INTER-LIGAND FREE ENERGY PREDICTED BY IDOCK:   -5.30 KCAL/MOL
REMARK 924 INTRA-LIGAND FREE ENERGY PREDICTED BY IDOCK:   -0.56 KCAL/MOL
REMARK 927      BINDING AFFINITY PREDICTED BY RF-SCORE:    0.00 PKD
ROOT
HETATM    1  O   UNL     1      -9.301   9.640  63.059  1.00  0.00    -0.226 OA 
HETATM    2  N   UNL     1      -8.826   9.961  64.145  1.00  0.00    -0.207 N  
HETATM    3  O   UNL     1      -7.683  10.312  64.440  1.00  0.00    -0.150 OA 
HETATM    4  O   UNL     1      -9.778   9.910  65.197  1.00  0.00    -0.289 OA 
ENDROOT
BRANCH   4   5
HETATM    5  C   UNL     1      -9.214  10.256  66.462  1.00  0.00    -0.153 C  
BRANCH   5   6
HETATM    6  C   UNL     1     -10.333  10.807  67.383  1.00  0.00    -0.211 C  
BRANCH   6   7
HETATM    7  O   UNL     1     -11.527  11.191  66.679  1.00  0.00    -0.338 OA 
HETATM    8  O   UNL     1     -10.702  13.298  66.627  1.00  0.00    -0.277 OA 
HETATM    9  N   UNL     1     -11.620  12.551  66.295  1.00  0.00    -0.374 N  
HETATM   10  O   UNL     1     -12.621  12.790  65.628  1.00  0.00    -0.596 OA 
ENDBRANCH   6   7
BRANCH   6  11
HETATM   11  C   UNL     1     -10.634   9.911  68.616  1.00  0.00    -0.217 C  
BRANCH  11  12
HETATM   12  O   UNL     1     -11.860  10.354  69.208  1.00  0.00    -0.200 OA 
HETATM   13  O   UNL     1     -10.829  10.078  71.195  1.00  0.00    -0.260 OA 
HETATM   14  O   UNL     1     -12.568  11.461  70.977  1.00  0.00    -0.389 OA 
HETATM   15  N   UNL     1     -11.728  10.656  70.586  1.00  0.00    -0.342 N  
ENDBRANCH  11  12
BRANCH  11  16
HETATM   16  C   UNL     1     -10.695   8.408  68.274  1.00  0.00    -0.028 C  
BRANCH  16  17
HETATM   17  O   UNL     1     -10.603   7.604  69.448  1.00  0.00    -0.225 OA 
HETATM   18  N   UNL     1     -10.756   6.216  69.153  1.00  0.00    -0.279 N  
HETATM   19  O   UNL     1     -10.585   5.501  70.138  1.00  0.00    -0.285 OA 
HETATM   20  O   UNL     1     -11.048   5.919  67.997  1.00  0.00    -0.252 OA 
ENDBRANCH  16  17
ENDBRANCH  11  16
ENDBRANCH   6  11
ENDBRANCH   5   6
ENDBRANCH   4   5
TORSDOF 7
ENDMDL
MODEL      241
REMARK 921   NORMALIZED FREE ENERGY PREDICTED BY IDOCK:   -3.45 KCAL/MOL
REMARK 922        TOTAL FREE ENERGY PREDICTED BY IDOCK:   -5.81 KCAL/MOL
REMARK 923 INTER-LIGAND FREE ENERGY PREDICTED BY IDOCK:   -6.41 KCAL/MOL
REMARK 924 INTRA-LIGAND FREE ENERGY PREDICTED BY IDOCK:    0.60 KCAL/MOL
REMARK 927      BINDING AFFINITY PREDICTED BY RF-SCORE:    0.00 PKD
ROOT
HETATM    1  O   UNL     1      -8.635   8.545  64.467  1.00  0.00    -0.137 OA 
HETATM    2  N   UNL     1      -9.340   9.261  65.173  1.00  0.00    -0.219 N  
HETATM    3  O   UNL     1      -9.894   9.019  66.247  1.00  0.00    -0.258 OA 
HETATM    4  O   UNL     1      -9.513  10.563  64.636  1.00  0.00    -0.214 OA 
ENDROOT
BRANCH   4   5
HETATM    5  C   UNL     1     -10.355  11.382  65.447  1.00  0.00    -0.279 C  
BRANCH   5   6
HETATM    6  C   UNL     1     -10.025  12.873  65.177  1.00  0.00    -0.157 C  
BRANCH   6   7
HETATM    7  O   UNL     1     -10.732  13.430  64.056  1.00  0.00    -0.342 OA 
HETATM    8  O   UNL     1     -12.619  12.528  64.921  1.00  0.00    -0.542 OA 
HETATM    9  N   UNL     1     -12.131  13.209  64.022  1.00  0.00    -0.431 N  
HETATM   10  O   UNL     1     -12.681  13.782  63.086  1.00  0.00    -0.743 OA 
ENDBRANCH   6   7
BRANCH   6  11
HETATM   11  C   UNL     1     -10.108  13.776  66.438  1.00  0.00    -0.295 C  
BRANCH  11  12
HETATM   12  O   UNL     1     -10.887  14.933  66.115  1.00  0.00    -0.314 OA 
HETATM   13  O   UNL     1      -8.930  16.054  66.060  1.00  0.00    -0.337 OA 
HETATM   14  O   UNL     1     -10.721  16.800  64.956  1.00  0.00    -0.692 OA 
HETATM   15  N   UNL     1     -10.097  16.022  65.670  1.00  0.00    -0.358 N  
ENDBRANCH  11  12
BRANCH  11  16
HETATM   16  C   UNL     1     -10.684  13.047  67.670  1.00  0.00    -0.227 C  
BRANCH  16  17
HETATM   17  O   UNL     1      -9.680  12.287  68.340  1.00  0.00    -0.213 OA 
HETATM   18  N   UNL     1     -10.223  11.122  68.959  1.00  0.00    -0.201 N  
HETATM   19  O   UNL     1      -9.359  10.406  69.459  1.00  0.00    -0.198 OA 
HETATM   20  O   UNL     1     -11.444  10.992  68.934  1.00  0.00    -0.247 OA 
ENDBRANCH  16  17
ENDBRANCH  11  16
ENDBRANCH   6  11
ENDBRANCH   5   6
ENDBRANCH   4   5
TORSDOF 7
ENDMDL
MODEL      242
REMARK 921   NORMALIZED FREE ENERGY PREDICTED BY IDOCK:   -3.45 KCAL/MOL
REMARK 922        TOTAL FREE ENERGY PREDICTED BY IDOCK:   -5.80 KCAL/MOL
REMARK 923 INTER-LIGAND FREE ENERGY PREDICTED BY IDOCK:   -4.91 KCAL/MOL
REMARK 924 INTRA-LIGAND FREE ENERGY PREDICTED BY IDOCK:   -0.89 KCAL/MOL
REMARK 927      BINDING AFFINITY PREDICTED BY RF-SCORE:    0.00 PKD
ROOT
HETATM    1  O   UNL     1     -12.333  14.134  71.394  1.00  0.00    -0.342 OA 
HETATM    2  N   UNL     1     -12.365  13.087  70.752  1.00  0.00    -0.360 N  
HETATM    3  O   UNL     1     -12.711  11.955  71.094  1.00  0.00    -0.371 OA 
HETATM    4  O   UNL     1     -11.931  13.253  69.410  1.00  0.00    -0.306 OA 
ENDROOT
BRANCH   4   5
HETATM    5  C   UNL     1     -11.943  12.028  68.676  1.00  0.00    -0.235 C  
BRANCH   5   6
HETATM    6  C   UNL     1     -11.129  12.212  67.370  1.00  0.00    -0.276 C  
BRANCH   6   7
HETATM    7  O   UNL     1     -11.233  13.528  66.801  1.00  0.00    -0.298 OA 
HETATM    8  O   UNL     1     -11.854  12.534  64.864  1.00  0.00    -0.349 OA 
HETATM    9  N   UNL     1     -11.654  13.596  65.450  1.00  0.00    -0.314 N  
HETATM   10  O   UNL     1     -11.803  14.748  65.055  1.00  0.00    -0.369 OA 
ENDBRANCH   6   7
BRANCH   6  11
HETATM   11  C   UNL     1      -9.657  11.724  67.470  1.00  0.00    -0.177 C  
BRANCH  11  12
HETATM   12  O   UNL     1      -9.464  10.672  66.519  1.00  0.00    -0.164 OA 
HETATM   13  O   UNL     1      -8.391   9.574  68.171  1.00  0.00    -0.117 OA 
HETATM   14  O   UNL     1      -9.299   8.476  66.453  1.00  0.00    -0.181 OA 
HETATM   15  N   UNL     1      -9.010   9.468  67.114  1.00  0.00    -0.134 N  
ENDBRANCH  11  12
BRANCH  11  16
HETATM   16  C   UNL     1      -8.628  12.855  67.262  1.00  0.00    -0.205 C  
BRANCH  16  17
HETATM   17  O   UNL     1      -8.336  13.522  68.489  1.00  0.00    -0.155 OA 
HETATM   18  N   UNL     1      -8.508  14.935  68.376  1.00  0.00    -0.147 N  
HETATM   19  O   UNL     1      -8.353  15.516  69.448  1.00  0.00    -0.242 OA 
HETATM   20  O   UNL     1      -8.761  15.381  67.260  1.00  0.00    -0.175 OA 
ENDBRANCH  16  17
ENDBRANCH  11  16
ENDBRANCH   6  11
ENDBRANCH   5   6
ENDBRANCH   4   5
TORSDOF 7
ENDMDL
MODEL      243
REMARK 921   NORMALIZED FREE ENERGY PREDICTED BY IDOCK:   -3.44 KCAL/MOL
REMARK 922        TOTAL FREE ENERGY PREDICTED BY IDOCK:   -5.79 KCAL/MOL
REMARK 923 INTER-LIGAND FREE ENERGY PREDICTED BY IDOCK:   -5.11 KCAL/MOL
REMARK 924 INTRA-LIGAND FREE ENERGY PREDICTED BY IDOCK:   -0.68 KCAL/MOL
REMARK 927      BINDING AFFINITY PREDICTED BY RF-SCORE:    0.00 PKD
ROOT
HETATM    1  O   UNL     1      -9.114  15.199  68.230  1.00  0.00    -0.175 OA 
HETATM    2  N   UNL     1      -8.418  14.229  67.941  1.00  0.00    -0.157 N  
HETATM    3  O   UNL     1      -7.192  14.112  67.906  1.00  0.00    -0.122 OA 
HETATM    4  O   UNL     1      -9.186  13.083  67.604  1.00  0.00    -0.183 OA 
ENDROOT
BRANCH   4   5
HETATM    5  C   UNL     1      -8.373  11.967  67.242  1.00  0.00    -0.169 C  
BRANCH   5   6
HETATM    6  C   UNL     1      -9.282  10.828  66.712  1.00  0.00    -0.157 C  
BRANCH   6   7
HETATM    7  O   UNL     1     -10.261  10.377  67.663  1.00  0.00    -0.182 OA 
HETATM    8  O   UNL     1      -8.882   8.639  68.112  1.00  0.00    -0.140 OA 
HETATM    9  N   UNL     1      -9.941   9.200  68.384  1.00  0.00    -0.174 N  
HETATM   10  O   UNL     1     -10.779   8.921  69.236  1.00  0.00    -0.224 OA 
ENDBRANCH   6   7
BRANCH   6  11
HETATM   11  C   UNL     1      -9.899  11.112  65.315  1.00  0.00    -0.249 C  
BRANCH  11  12
HETATM   12  O   UNL     1      -9.822   9.914  64.535  1.00  0.00    -0.261 OA 
HETATM   13  O   UNL     1      -8.995  11.214  62.888  1.00  0.00    -0.272 OA 
HETATM   14  O   UNL     1      -8.584   9.020  62.946  1.00  0.00    -0.208 OA 
HETATM   15  N   UNL     1      -9.061  10.076  63.351  1.00  0.00    -0.258 N  
ENDBRANCH  11  12
BRANCH  11  16
HETATM   16  C   UNL     1     -11.350  11.633  65.387  1.00  0.00    -0.153 C  
BRANCH  16  17
HETATM   17  O   UNL     1     -11.728  12.286  64.176  1.00  0.00    -0.350 OA 
HETATM   18  N   UNL     1     -12.354  13.544  64.427  1.00  0.00    -0.365 N  
HETATM   19  O   UNL     1     -12.600  14.163  63.394  1.00  0.00    -0.818 OA 
HETATM   20  O   UNL     1     -12.580  13.833  65.599  1.00  0.00    -0.491 OA 
ENDBRANCH  16  17
ENDBRANCH  11  16
ENDBRANCH   6  11
ENDBRANCH   5   6
ENDBRANCH   4   5
TORSDOF 7
ENDMDL
MODEL      244
REMARK 921   NORMALIZED FREE ENERGY PREDICTED BY IDOCK:   -3.42 KCAL/MOL
REMARK 922        TOTAL FREE ENERGY PREDICTED BY IDOCK:   -5.76 KCAL/MOL
REMARK 923 INTER-LIGAND FREE ENERGY PREDICTED BY IDOCK:   -4.69 KCAL/MOL
REMARK 924 INTRA-LIGAND FREE ENERGY PREDICTED BY IDOCK:   -1.07 KCAL/MOL
REMARK 927      BINDING AFFINITY PREDICTED BY RF-SCORE:    0.00 PKD
ROOT
HETATM    1  O   UNL     1      -7.310   8.794  68.015  1.00  0.00    -0.086 OA 
HETATM    2  N   UNL     1      -7.587   7.674  68.436  1.00  0.00    -0.111 N  
HETATM    3  O   UNL     1      -7.560   6.581  67.867  1.00  0.00    -0.099 OA 
HETATM    4  O   UNL     1      -7.993   7.683  69.796  1.00  0.00    -0.111 OA 
ENDROOT
BRANCH   4   5
HETATM    5  C   UNL     1      -8.340   6.383  70.273  1.00  0.00    -0.126 C  
BRANCH   5   6
HETATM    6  C   UNL     1      -9.719   6.454  70.979  1.00  0.00    -0.176 C  
BRANCH   6   7
HETATM    7  O   UNL     1      -9.642   6.831  72.364  1.00  0.00    -0.155 OA 
HETATM    8  O   UNL     1     -10.414   4.763  72.868  1.00  0.00    -0.181 OA 
HETATM    9  N   UNL     1     -10.017   5.841  73.306  1.00  0.00    -0.173 N  
HETATM   10  O   UNL     1      -9.847   6.200  74.467  1.00  0.00    -0.240 OA 
ENDBRANCH   6   7
BRANCH   6  11
HETATM   11  C   UNL     1     -10.786   7.271  70.200  1.00  0.00    -0.244 C  
BRANCH  11  12
HETATM   12  O   UNL     1     -11.354   6.429  69.192  1.00  0.00    -0.364 OA 
HETATM   13  O   UNL     1     -10.734   8.021  67.720  1.00  0.00    -0.198 OA 
HETATM   14  O   UNL     1     -11.054   5.909  67.072  1.00  0.00    -0.260 OA 
HETATM   15  N   UNL     1     -11.009   6.833  67.878  1.00  0.00    -0.247 N  
ENDBRANCH  11  12
BRANCH  11  16
HETATM   16  C   UNL     1     -11.883   7.861  71.112  1.00  0.00    -0.287 C  
BRANCH  16  17
HETATM   17  O   UNL     1     -12.025   9.266  70.910  1.00  0.00    -0.283 OA 
HETATM   18  N   UNL     1     -12.914   9.850  71.863  1.00  0.00    -0.430 N  
HETATM   19  O   UNL     1     -12.974  11.073  71.765  1.00  0.00    -0.455 OA 
HETATM   20  O   UNL     1     -13.500   9.084  72.624  1.00  0.00    -0.463 OA 
ENDBRANCH  16  17
ENDBRANCH  11  16
ENDBRANCH   6  11
ENDBRANCH   5   6
ENDBRANCH   4   5
TORSDOF 7
ENDMDL
MODEL      245
REMARK 921   NORMALIZED FREE ENERGY PREDICTED BY IDOCK:   -3.41 KCAL/MOL
REMARK 922        TOTAL FREE ENERGY PREDICTED BY IDOCK:   -5.74 KCAL/MOL
REMARK 923 INTER-LIGAND FREE ENERGY PREDICTED BY IDOCK:   -5.78 KCAL/MOL
REMARK 924 INTRA-LIGAND FREE ENERGY PREDICTED BY IDOCK:    0.04 KCAL/MOL
REMARK 927      BINDING AFFINITY PREDICTED BY RF-SCORE:    0.00 PKD
ROOT
HETATM    1  O   UNL     1     -11.091  11.825  63.021  1.00  0.00    -0.207 OA 
HETATM    2  N   UNL     1     -10.736  11.510  64.154  1.00  0.00    -0.342 N  
HETATM    3  O   UNL     1     -10.473  10.402  64.625  1.00  0.00    -0.259 OA 
HETATM    4  O   UNL     1     -10.620  12.626  65.024  1.00  0.00    -0.286 OA 
ENDROOT
BRANCH   4   5
HETATM    5  C   UNL     1     -10.235  12.251  66.347  1.00  0.00    -0.225 C  
BRANCH   5   6
HETATM    6  C   UNL     1     -11.427  12.492  67.309  1.00  0.00    -0.353 C  
BRANCH   6   7
HETATM    7  O   UNL     1     -11.806  11.330  68.066  1.00  0.00    -0.578 OA 
HETATM    8  O   UNL     1      -9.634  11.138  68.675  1.00  0.00    -0.190 OA 
HETATM    9  N   UNL     1     -10.771  10.684  68.787  1.00  0.00    -0.200 N  
HETATM   10  O   UNL     1     -11.179   9.755  69.475  1.00  0.00    -0.218 OA 
ENDBRANCH   6   7
BRANCH   6  11
HETATM   11  C   UNL     1     -11.273  13.755  68.199  1.00  0.00    -0.271 C  
BRANCH  11  12
HETATM   12  O   UNL     1     -11.474  14.913  67.381  1.00  0.00    -0.339 OA 
HETATM   13  O   UNL     1      -9.532  15.674  68.237  1.00  0.00    -0.196 OA 
HETATM   14  O   UNL     1     -10.299  16.413  66.275  1.00  0.00    -0.311 OA 
HETATM   15  N   UNL     1     -10.323  15.734  67.297  1.00  0.00    -0.283 N  
ENDBRANCH  11  12
BRANCH  11  16
HETATM   16  C   UNL     1     -12.228  13.762  69.412  1.00  0.00    -0.278 C  
BRANCH  16  17
HETATM   17  O   UNL     1     -11.576  14.253  70.582  1.00  0.00    -0.252 OA 
HETATM   18  N   UNL     1     -12.131  15.495  71.015  1.00  0.00    -0.351 N  
HETATM   19  O   UNL     1     -11.647  15.885  72.075  1.00  0.00    -0.423 OA 
HETATM   20  O   UNL     1     -12.979  16.011  70.292  1.00  0.00    -0.215 OA 
ENDBRANCH  16  17
ENDBRANCH  11  16
ENDBRANCH   6  11
ENDBRANCH   5   6
ENDBRANCH   4   5
TORSDOF 7
ENDMDL
MODEL      246
REMARK 921   NORMALIZED FREE ENERGY PREDICTED BY IDOCK:   -3.40 KCAL/MOL
REMARK 922        TOTAL FREE ENERGY PREDICTED BY IDOCK:   -5.73 KCAL/MOL
REMARK 923 INTER-LIGAND FREE ENERGY PREDICTED BY IDOCK:   -6.21 KCAL/MOL
REMARK 924 INTRA-LIGAND FREE ENERGY PREDICTED BY IDOCK:    0.48 KCAL/MOL
REMARK 927      BINDING AFFINITY PREDICTED BY RF-SCORE:    0.00 PKD
ROOT
HETATM    1  O   UNL     1      -9.941  10.922  65.924  1.00  0.00    -0.223 OA 
HETATM    2  N   UNL     1      -9.553  11.690  66.801  1.00  0.00    -0.189 N  
HETATM    3  O   UNL     1      -9.332  11.485  67.996  1.00  0.00    -0.162 OA 
HETATM    4  O   UNL     1      -9.332  13.007  66.320  1.00  0.00    -0.230 OA 
ENDROOT
BRANCH   4   5
HETATM    5  C   UNL     1      -8.908  13.901  67.349  1.00  0.00    -0.207 C  
BRANCH   5   6
HETATM    6  C   UNL     1     -10.057  14.894  67.663  1.00  0.00    -0.227 C  
BRANCH   6   7
HETATM    7  O   UNL     1     -10.502  14.855  69.029  1.00  0.00    -0.233 OA 
HETATM    8  O   UNL     1     -12.038  13.323  68.383  1.00  0.00    -0.333 OA 
HETATM    9  N   UNL     1     -11.560  13.959  69.320  1.00  0.00    -0.288 N  
HETATM   10  O   UNL     1     -11.831  13.915  70.516  1.00  0.00    -0.302 OA 
ENDBRANCH   6   7
BRANCH   6  11
HETATM   11  C   UNL     1      -9.792  16.343  67.167  1.00  0.00    -0.249 C  
BRANCH  11  12
HETATM   12  O   UNL     1      -9.884  16.355  65.738  1.00  0.00    -0.421 OA 
HETATM   13  O   UNL     1     -11.871  15.322  66.004  1.00  0.00    -0.021 OA 
HETATM   14  O   UNL     1     -11.411  16.484  64.154  1.00  0.00    -1.059 OA 
HETATM   15  N   UNL     1     -11.179  16.022  65.267  1.00  0.00    -0.176 N  
ENDBRANCH  11  12
BRANCH  11  16
HETATM   16  C   UNL     1     -10.746  17.382  67.793  1.00  0.00    -0.332 C  
BRANCH  16  17
HETATM   17  O   UNL     1     -10.036  18.537  68.235  1.00  0.00    -0.338 OA 
HETATM   18  N   UNL     1     -10.114  19.601  67.287  1.00  0.00    -0.380 N  
HETATM   19  O   UNL     1      -9.589  20.636  67.694  1.00  0.00    -0.381 OA 
HETATM   20  O   UNL     1     -10.658  19.356  66.214  1.00  0.00    -0.454 OA 
ENDBRANCH  16  17
ENDBRANCH  11  16
ENDBRANCH   6  11
ENDBRANCH   5   6
ENDBRANCH   4   5
TORSDOF 7
ENDMDL
MODEL      247
REMARK 921   NORMALIZED FREE ENERGY PREDICTED BY IDOCK:   -3.38 KCAL/MOL
REMARK 922        TOTAL FREE ENERGY PREDICTED BY IDOCK:   -5.70 KCAL/MOL
REMARK 923 INTER-LIGAND FREE ENERGY PREDICTED BY IDOCK:   -4.90 KCAL/MOL
REMARK 924 INTRA-LIGAND FREE ENERGY PREDICTED BY IDOCK:   -0.80 KCAL/MOL
REMARK 927      BINDING AFFINITY PREDICTED BY RF-SCORE:    0.00 PKD
ROOT
HETATM    1  O   UNL     1      -8.260  16.770  68.265  1.00  0.00    -0.189 OA 
HETATM    2  N   UNL     1      -8.094  15.732  67.631  1.00  0.00    -0.140 N  
HETATM    3  O   UNL     1      -7.180  15.400  66.874  1.00  0.00    -0.172 OA 
HETATM    4  O   UNL     1      -9.140  14.793  67.831  1.00  0.00    -0.177 OA 
ENDROOT
BRANCH   4   5
HETATM    5  C   UNL     1      -8.957  13.600  67.069  1.00  0.00    -0.236 C  
BRANCH   5   6
HETATM    6  C   UNL     1     -10.325  12.888  66.906  1.00  0.00    -0.243 C  
BRANCH   6   7
HETATM    7  O   UNL     1     -10.947  13.110  65.630  1.00  0.00    -0.276 OA 
HETATM    8  O   UNL     1     -12.601  14.191  66.734  1.00  0.00    -0.306 OA 
HETATM    9  N   UNL     1     -12.159  13.844  65.641  1.00  0.00    -0.396 N  
HETATM   10  O   UNL     1     -12.590  14.070  64.515  1.00  0.00    -0.635 OA 
ENDBRANCH   6   7
BRANCH   6  11
HETATM   11  C   UNL     1     -10.305  11.385  67.302  1.00  0.00    -0.198 C  
BRANCH  11  12
HETATM   12  O   UNL     1     -11.627  11.006  67.702  1.00  0.00    -0.526 OA 
HETATM   13  O   UNL     1     -10.717  10.500  69.703  1.00  0.00    -0.237 OA 
HETATM   14  O   UNL     1     -12.890  10.970  69.506  1.00  0.00    -0.188 OA 
HETATM   15  N   UNL     1     -11.744  10.811  69.101  1.00  0.00    -0.302 N  
ENDBRANCH  11  12
BRANCH  11  16
HETATM   16  C   UNL     1      -9.782  10.468  66.176  1.00  0.00    -0.209 C  
BRANCH  16  17
HETATM   17  O   UNL     1      -8.726   9.629  66.639  1.00  0.00    -0.132 OA 
HETATM   18  N   UNL     1      -8.026   9.015  65.558  1.00  0.00    -0.102 N  
HETATM   19  O   UNL     1      -7.053   8.364  65.934  1.00  0.00    -0.070 OA 
HETATM   20  O   UNL     1      -8.476   9.190  64.428  1.00  0.00    -0.169 OA 
ENDBRANCH  16  17
ENDBRANCH  11  16
ENDBRANCH   6  11
ENDBRANCH   5   6
ENDBRANCH   4   5
TORSDOF 7
ENDMDL
MODEL      248
REMARK 921   NORMALIZED FREE ENERGY PREDICTED BY IDOCK:   -3.36 KCAL/MOL
REMARK 922        TOTAL FREE ENERGY PREDICTED BY IDOCK:   -5.68 KCAL/MOL
REMARK 923 INTER-LIGAND FREE ENERGY PREDICTED BY IDOCK:   -5.14 KCAL/MOL
REMARK 924 INTRA-LIGAND FREE ENERGY PREDICTED BY IDOCK:   -0.53 KCAL/MOL
REMARK 927      BINDING AFFINITY PREDICTED BY RF-SCORE:    0.00 PKD
ROOT
HETATM    1  O   UNL     1     -12.461  14.452  70.920  1.00  0.00    -0.308 OA 
HETATM    2  N   UNL     1     -12.179  14.747  69.761  1.00  0.00    -0.310 N  
HETATM    3  O   UNL     1     -11.910  15.840  69.262  1.00  0.00    -0.365 OA 
HETATM    4  O   UNL     1     -12.169  13.621  68.896  1.00  0.00    -0.336 OA 
ENDROOT
BRANCH   4   5
HETATM    5  C   UNL     1     -11.868  13.973  67.545  1.00  0.00    -0.407 C  
BRANCH   5   6
HETATM    6  C   UNL     1     -10.614  13.187  67.084  1.00  0.00    -0.257 C  
BRANCH   6   7
HETATM    7  O   UNL     1      -9.495  13.302  67.980  1.00  0.00    -0.206 OA 
HETATM    8  O   UNL     1      -8.727  14.967  66.653  1.00  0.00    -0.265 OA 
HETATM    9  N   UNL     1      -8.545  14.307  67.673  1.00  0.00    -0.171 N  
HETATM   10  O   UNL     1      -7.665  14.405  68.523  1.00  0.00    -0.121 OA 
ENDBRANCH   6   7
BRANCH   6  11
HETATM   11  C   UNL     1     -10.904  11.715  66.683  1.00  0.00    -0.283 C  
BRANCH  11  12
HETATM   12  O   UNL     1     -11.988  11.233  67.484  1.00  0.00    -0.612 OA 
HETATM   13  O   UNL     1     -10.561   9.637  68.194  1.00  0.00    -0.211 OA 
HETATM   14  O   UNL     1     -12.334  10.229  69.415  1.00  0.00    -0.017 OA 
HETATM   15  N   UNL     1     -11.578  10.280  68.450  1.00  0.00    -0.093 N  
ENDBRANCH  11  12
BRANCH  11  16
HETATM   16  C   UNL     1     -11.207  11.544  65.179  1.00  0.00    -0.146 C  
BRANCH  16  17
HETATM   17  O   UNL     1     -10.250  10.693  64.550  1.00  0.00    -0.336 OA 
HETATM   18  N   UNL     1      -9.838  11.206  63.283  1.00  0.00    -0.347 N  
HETATM   19  O   UNL     1      -8.944  10.536  62.771  1.00  0.00    -0.205 OA 
HETATM   20  O   UNL     1     -10.419  12.205  62.868  1.00  0.00    -0.149 OA 
ENDBRANCH  16  17
ENDBRANCH  11  16
ENDBRANCH   6  11
ENDBRANCH   5   6
ENDBRANCH   4   5
TORSDOF 7
ENDMDL
MODEL      249
REMARK 921   NORMALIZED FREE ENERGY PREDICTED BY IDOCK:   -3.36 KCAL/MOL
REMARK 922        TOTAL FREE ENERGY PREDICTED BY IDOCK:   -5.67 KCAL/MOL
REMARK 923 INTER-LIGAND FREE ENERGY PREDICTED BY IDOCK:   -4.90 KCAL/MOL
REMARK 924 INTRA-LIGAND FREE ENERGY PREDICTED BY IDOCK:   -0.77 KCAL/MOL
REMARK 927      BINDING AFFINITY PREDICTED BY RF-SCORE:    0.00 PKD
ROOT
HETATM    1  O   UNL     1     -13.296  11.153  72.209  1.00  0.00    -0.394 OA 
HETATM    2  N   UNL     1     -12.658  10.788  71.224  1.00  0.00    -0.403 N  
HETATM    3  O   UNL     1     -12.147   9.697  70.967  1.00  0.00    -0.304 OA 
HETATM    4  O   UNL     1     -12.515  11.813  70.252  1.00  0.00    -0.242 OA 
ENDROOT
BRANCH   4   5
HETATM    5  C   UNL     1     -11.750  11.392  69.122  1.00  0.00    -0.342 C  
BRANCH   5   6
HETATM    6  C   UNL     1     -11.189  12.642  68.396  1.00  0.00    -0.279 C  
BRANCH   6   7
HETATM    7  O   UNL     1     -11.152  13.822  69.216  1.00  0.00    -0.251 OA 
HETATM    8  O   UNL     1     -12.250  14.895  67.552  1.00  0.00    -0.150 OA 
HETATM    9  N   UNL     1     -11.772  14.978  68.682  1.00  0.00    -0.341 N  
HETATM   10  O   UNL     1     -11.777  15.922  69.467  1.00  0.00    -0.342 OA 
ENDBRANCH   6   7
BRANCH   6  11
HETATM   11  C   UNL     1      -9.846  12.392  67.656  1.00  0.00    -0.198 C  
BRANCH  11  12
HETATM   12  O   UNL     1      -8.900  13.375  68.091  1.00  0.00    -0.171 OA 
HETATM   13  O   UNL     1      -9.249  14.377  66.101  1.00  0.00    -0.231 OA 
HETATM   14  O   UNL     1      -8.485  15.526  67.856  1.00  0.00    -0.141 OA 
HETATM   15  N   UNL     1      -8.886  14.528  67.267  1.00  0.00    -0.197 N  
ENDBRANCH  11  12
BRANCH  11  16
HETATM   16  C   UNL     1      -9.296  10.965  67.863  1.00  0.00    -0.156 C  
BRANCH  16  17
HETATM   17  O   UNL     1      -8.781  10.426  66.647  1.00  0.00    -0.133 OA 
HETATM   18  N   UNL     1      -9.659   9.450  66.087  1.00  0.00    -0.226 N  
HETATM   19  O   UNL     1      -9.278   9.045  64.991  1.00  0.00    -0.178 OA 
HETATM   20  O   UNL     1     -10.640   9.132  66.754  1.00  0.00    -0.227 OA 
ENDBRANCH  16  17
ENDBRANCH  11  16
ENDBRANCH   6  11
ENDBRANCH   5   6
ENDBRANCH   4   5
TORSDOF 7
ENDMDL
MODEL      250
REMARK 921   NORMALIZED FREE ENERGY PREDICTED BY IDOCK:   -3.35 KCAL/MOL
REMARK 922        TOTAL FREE ENERGY PREDICTED BY IDOCK:   -5.67 KCAL/MOL
REMARK 923 INTER-LIGAND FREE ENERGY PREDICTED BY IDOCK:   -4.64 KCAL/MOL
REMARK 924 INTRA-LIGAND FREE ENERGY PREDICTED BY IDOCK:   -1.03 KCAL/MOL
REMARK 927      BINDING AFFINITY PREDICTED BY RF-SCORE:    0.00 PKD
ROOT
HETATM    1  O   UNL     1     -10.702   4.834  72.406  1.00  0.00    -0.204 OA 
HETATM    2  N   UNL     1     -10.272   5.246  71.332  1.00  0.00    -0.205 N  
HETATM    3  O   UNL     1      -9.158   5.119  70.821  1.00  0.00    -0.130 OA 
HETATM    4  O   UNL     1     -11.242   5.972  70.593  1.00  0.00    -0.309 OA 
ENDROOT
BRANCH   4   5
HETATM    5  C   UNL     1     -10.728   6.473  69.359  1.00  0.00    -0.277 C  
BRANCH   5   6
HETATM    6  C   UNL     1     -10.508   8.002  69.484  1.00  0.00    -0.226 C  
BRANCH   6   7
HETATM    7  O   UNL     1      -9.260   8.361  70.100  1.00  0.00    -0.155 OA 
HETATM    8  O   UNL     1     -10.453   9.015  71.909  1.00  0.00    -0.343 OA 
HETATM    9  N   UNL     1      -9.335   8.876  71.418  1.00  0.00    -0.258 N  
HETATM   10  O   UNL     1      -8.231   9.081  71.912  1.00  0.00    -0.362 OA 
ENDBRANCH   6   7
BRANCH   6  11
HETATM   11  C   UNL     1     -10.767   8.787  68.168  1.00  0.00    -0.073 C  
BRANCH  11  12
HETATM   12  O   UNL     1     -10.040  10.019  68.226  1.00  0.00    -0.149 OA 
HETATM   13  O   UNL     1     -12.020  11.035  67.860  1.00  0.00    -0.620 OA 
HETATM   14  O   UNL     1     -10.331  12.114  68.843  1.00  0.00    -0.178 OA 
HETATM   15  N   UNL     1     -10.885  11.153  68.319  1.00  0.00    -0.196 N  
ENDBRANCH  11  12
BRANCH  11  16
HETATM   16  C   UNL     1     -10.398   7.986  66.901  1.00  0.00    -0.338 C  
BRANCH  16  17
HETATM   17  O   UNL     1      -9.730   8.806  65.945  1.00  0.00    -0.237 OA 
HETATM   18  N   UNL     1      -8.510   8.213  65.500  1.00  0.00    -0.156 N  
HETATM   19  O   UNL     1      -7.969   8.860  64.605  1.00  0.00    -0.117 OA 
HETATM   20  O   UNL     1      -8.155   7.178  66.057  1.00  0.00    -0.103 OA 
ENDBRANCH  16  17
ENDBRANCH  11  16
ENDBRANCH   6  11
ENDBRANCH   5   6
ENDBRANCH   4   5
TORSDOF 7
ENDMDL
MODEL      251
REMARK 921   NORMALIZED FREE ENERGY PREDICTED BY IDOCK:   -3.33 KCAL/MOL
REMARK 922        TOTAL FREE ENERGY PREDICTED BY IDOCK:   -5.63 KCAL/MOL
REMARK 923 INTER-LIGAND FREE ENERGY PREDICTED BY IDOCK:   -4.47 KCAL/MOL
REMARK 924 INTRA-LIGAND FREE ENERGY PREDICTED BY IDOCK:   -1.16 KCAL/MOL
REMARK 927      BINDING AFFINITY PREDICTED BY RF-SCORE:    0.00 PKD
ROOT
HETATM    1  O   UNL     1      -9.683   4.847  67.584  1.00  0.00    -0.144 OA 
HETATM    2  N   UNL     1     -10.182   5.067  68.684  1.00  0.00    -0.126 N  
HETATM    3  O   UNL     1     -10.138   4.407  69.723  1.00  0.00    -0.214 OA 
HETATM    4  O   UNL     1     -10.910   6.286  68.723  1.00  0.00    -0.268 OA 
ENDROOT
BRANCH   4   5
HETATM    5  C   UNL     1     -11.510   6.524  69.996  1.00  0.00    -0.412 C  
BRANCH   5   6
HETATM    6  C   UNL     1     -10.853   7.771  70.641  1.00  0.00    -0.237 C  
BRANCH   6   7
HETATM    7  O   UNL     1     -11.745   8.532  71.474  1.00  0.00    -0.269 OA 
HETATM    8  O   UNL     1     -11.289  10.319  70.160  1.00  0.00    -0.270 OA 
HETATM    9  N   UNL     1     -11.931   9.890  71.117  1.00  0.00    -0.353 N  
HETATM   10  O   UNL     1     -12.766  10.456  71.816  1.00  0.00    -0.416 OA 
ENDBRANCH   6   7
BRANCH   6  11
HETATM   11  C   UNL     1      -9.496   7.479  71.338  1.00  0.00    -0.148 C  
BRANCH  11  12
HETATM   12  O   UNL     1      -8.469   8.197  70.646  1.00  0.00    -0.121 OA 
HETATM   13  O   UNL     1      -7.459   6.198  70.375  1.00  0.00    -0.085 OA 
HETATM   14  O   UNL     1      -7.032   7.905  69.000  1.00  0.00    -0.056 OA 
HETATM   15  N   UNL     1      -7.578   7.345  69.946  1.00  0.00    -0.088 N  
ENDBRANCH  11  12
BRANCH  11  16
HETATM   16  C   UNL     1      -9.498   7.829  72.842  1.00  0.00    -0.234 C  
BRANCH  16  17
HETATM   17  O   UNL     1      -8.532   8.834  73.142  1.00  0.00    -0.386 OA 
HETATM   18  N   UNL     1      -7.482   8.328  73.967  1.00  0.00    -0.178 N  
HETATM   19  O   UNL     1      -6.592   9.154  74.157  1.00  0.00    -0.351 OA 
HETATM   20  O   UNL     1      -7.602   7.180  74.385  1.00  0.00    -0.113 OA 
ENDBRANCH  16  17
ENDBRANCH  11  16
ENDBRANCH   6  11
ENDBRANCH   5   6
ENDBRANCH   4   5
TORSDOF 7
ENDMDL
MODEL      252
REMARK 921   NORMALIZED FREE ENERGY PREDICTED BY IDOCK:   -3.29 KCAL/MOL
REMARK 922        TOTAL FREE ENERGY PREDICTED BY IDOCK:   -5.57 KCAL/MOL
REMARK 923 INTER-LIGAND FREE ENERGY PREDICTED BY IDOCK:   -4.77 KCAL/MOL
REMARK 924 INTRA-LIGAND FREE ENERGY PREDICTED BY IDOCK:   -0.80 KCAL/MOL
REMARK 927      BINDING AFFINITY PREDICTED BY RF-SCORE:    0.00 PKD
ROOT
HETATM    1  O   UNL     1      -8.764   8.408  65.340  1.00  0.00    -0.175 OA 
HETATM    2  N   UNL     1      -9.285   9.509  65.178  1.00  0.00    -0.239 N  
HETATM    3  O   UNL     1      -9.259  10.266  64.207  1.00  0.00    -0.211 OA 
HETATM    4  O   UNL     1     -10.028   9.936  66.310  1.00  0.00    -0.227 OA 
ENDROOT
BRANCH   4   5
HETATM    5  C   UNL     1     -10.609  11.228  66.127  1.00  0.00    -0.258 C  
BRANCH   5   6
HETATM    6  C   UNL     1     -10.672  11.953  67.496  1.00  0.00    -0.225 C  
BRANCH   6   7
HETATM    7  O   UNL     1     -10.178  11.166  68.593  1.00  0.00    -0.191 OA 
HETATM    8  O   UNL     1     -12.336  10.753  69.141  1.00  0.00    -0.400 OA 
HETATM    9  N   UNL     1     -11.154  10.541  69.408  1.00  0.00    -0.240 N  
HETATM   10  O   UNL     1     -10.663   9.820  70.271  1.00  0.00    -0.257 OA 
ENDBRANCH   6   7
BRANCH   6  11
HETATM   11  C   UNL     1     -10.075  13.387  67.479  1.00  0.00    -0.227 C  
BRANCH  11  12
HETATM   12  O   UNL     1     -10.546  14.087  68.636  1.00  0.00    -0.246 OA 
HETATM   13  O   UNL     1     -11.244  15.684  67.205  1.00  0.00    -0.269 OA 
HETATM   14  O   UNL     1     -12.165  15.460  69.226  1.00  0.00    -0.283 OA 
HETATM   15  N   UNL     1     -11.396  15.174  68.314  1.00  0.00    -0.313 N  
ENDBRANCH  11  12
BRANCH  11  16
HETATM   16  C   UNL     1      -8.533  13.402  67.411  1.00  0.00    -0.196 C  
BRANCH  16  17
HETATM   17  O   UNL     1      -8.031  14.734  67.326  1.00  0.00    -0.187 OA 
HETATM   18  N   UNL     1      -6.604  14.759  67.289  1.00  0.00     0.033 N  
HETATM   19  O   UNL     1      -6.156  15.891  67.119  1.00  0.00    -0.315 OA 
HETATM   20  O   UNL     1      -6.021  13.689  67.444  1.00  0.00    -0.346 OA 
ENDBRANCH  16  17
ENDBRANCH  11  16
ENDBRANCH   6  11
ENDBRANCH   5   6
ENDBRANCH   4   5
TORSDOF 7
ENDMDL
MODEL      253
REMARK 921   NORMALIZED FREE ENERGY PREDICTED BY IDOCK:   -3.28 KCAL/MOL
REMARK 922        TOTAL FREE ENERGY PREDICTED BY IDOCK:   -5.56 KCAL/MOL
REMARK 923 INTER-LIGAND FREE ENERGY PREDICTED BY IDOCK:   -5.41 KCAL/MOL
REMARK 924 INTRA-LIGAND FREE ENERGY PREDICTED BY IDOCK:   -0.15 KCAL/MOL
REMARK 927      BINDING AFFINITY PREDICTED BY RF-SCORE:    0.00 PKD
ROOT
HETATM    1  O   UNL     1     -10.603   9.453  69.908  1.00  0.00    -0.211 OA 
HETATM    2  N   UNL     1     -11.282  10.442  70.175  1.00  0.00    -0.301 N  
HETATM    3  O   UNL     1     -12.166  10.594  71.019  1.00  0.00    -0.338 OA 
HETATM    4  O   UNL     1     -10.962  11.563  69.366  1.00  0.00    -0.230 OA 
ENDROOT
BRANCH   4   5
HETATM    5  C   UNL     1     -11.773  12.701  69.662  1.00  0.00    -0.303 C  
BRANCH   5   6
HETATM    6  C   UNL     1     -11.595  13.755  68.540  1.00  0.00    -0.338 C  
BRANCH   6   7
HETATM    7  O   UNL     1     -10.778  14.876  68.919  1.00  0.00    -0.229 OA 
HETATM    8  O   UNL     1     -12.686  15.941  69.513  1.00  0.00     0.004 OA 
HETATM    9  N   UNL     1     -11.459  15.997  69.455  1.00  0.00    -0.334 N  
HETATM   10  O   UNL     1     -10.696  16.880  69.835  1.00  0.00    -0.257 OA 
ENDBRANCH   6   7
BRANCH   6  11
HETATM   11  C   UNL     1     -11.178  13.155  67.169  1.00  0.00    -0.294 C  
BRANCH  11  12
HETATM   12  O   UNL     1     -12.158  13.527  66.195  1.00  0.00    -0.396 OA 
HETATM   13  O   UNL     1     -11.332  11.847  64.937  1.00  0.00    -0.316 OA 
HETATM   14  O   UNL     1     -13.410  12.605  64.634  1.00  0.00    -0.767 OA 
HETATM   15  N   UNL     1     -12.306  12.564  65.166  1.00  0.00    -0.473 N  
ENDBRANCH  11  12
BRANCH  11  16
HETATM   16  C   UNL     1      -9.764  13.584  66.724  1.00  0.00    -0.271 C  
BRANCH  16  17
HETATM   17  O   UNL     1      -8.778  13.189  67.677  1.00  0.00    -0.168 OA 
HETATM   18  N   UNL     1      -7.914  12.180  67.156  1.00  0.00    -0.174 N  
HETATM   19  O   UNL     1      -7.000  11.896  67.928  1.00  0.00    -0.074 OA 
HETATM   20  O   UNL     1      -8.190  11.722  66.050  1.00  0.00     0.055 OA 
ENDBRANCH  16  17
ENDBRANCH  11  16
ENDBRANCH   6  11
ENDBRANCH   5   6
ENDBRANCH   4   5
TORSDOF 7
ENDMDL
MODEL      254
REMARK 921   NORMALIZED FREE ENERGY PREDICTED BY IDOCK:   -3.28 KCAL/MOL
REMARK 922        TOTAL FREE ENERGY PREDICTED BY IDOCK:   -5.56 KCAL/MOL
REMARK 923 INTER-LIGAND FREE ENERGY PREDICTED BY IDOCK:   -4.59 KCAL/MOL
REMARK 924 INTRA-LIGAND FREE ENERGY PREDICTED BY IDOCK:   -0.97 KCAL/MOL
REMARK 927      BINDING AFFINITY PREDICTED BY RF-SCORE:    0.00 PKD
ROOT
HETATM    1  O   UNL     1     -12.144  11.129  70.635  1.00  0.00    -0.338 OA 
HETATM    2  N   UNL     1     -12.038  10.134  71.348  1.00  0.00    -0.383 N  
HETATM    3  O   UNL     1     -12.874   9.572  72.057  1.00  0.00    -0.381 OA 
HETATM    4  O   UNL     1     -10.735   9.573  71.317  1.00  0.00    -0.332 OA 
ENDROOT
BRANCH   4   5
HETATM    5  C   UNL     1     -10.610   8.433  72.168  1.00  0.00    -0.329 C  
BRANCH   5   6
HETATM    6  C   UNL     1      -9.842   7.318  71.414  1.00  0.00    -0.186 C  
BRANCH   6   7
HETATM    7  O   UNL     1      -8.595   6.952  72.029  1.00  0.00    -0.121 OA 
HETATM    8  O   UNL     1      -7.597   7.400  70.047  1.00  0.00    -0.086 OA 
HETATM    9  N   UNL     1      -7.439   7.053  71.216  1.00  0.00    -0.080 N  
HETATM   10  O   UNL     1      -6.404   6.808  71.827  1.00  0.00    -0.041 OA 
ENDBRANCH   6   7
BRANCH   6  11
HETATM   11  C   UNL     1     -10.712   6.081  71.059  1.00  0.00    -0.265 C  
BRANCH  11  12
HETATM   12  O   UNL     1     -11.478   5.721  72.213  1.00  0.00    -0.288 OA 
HETATM   13  O   UNL     1     -10.166   3.891  72.331  1.00  0.00    -0.171 OA 
HETATM   14  O   UNL     1     -11.230   4.669  74.133  1.00  0.00    -0.257 OA 
HETATM   15  N   UNL     1     -10.895   4.663  72.953  1.00  0.00    -0.224 N  
ENDBRANCH  11  12
BRANCH  11  16
HETATM   16  C   UNL     1     -11.627   6.314  69.837  1.00  0.00    -0.291 C  
BRANCH  16  17
HETATM   17  O   UNL     1     -11.028   7.212  68.904  1.00  0.00    -0.170 OA 
HETATM   18  N   UNL     1     -10.700   6.559  67.678  1.00  0.00    -0.267 N  
HETATM   19  O   UNL     1     -10.271   7.337  66.829  1.00  0.00    -0.249 OA 
HETATM   20  O   UNL     1     -10.861   5.342  67.631  1.00  0.00    -0.127 OA 
ENDBRANCH  16  17
ENDBRANCH  11  16
ENDBRANCH   6  11
ENDBRANCH   5   6
ENDBRANCH   4   5
TORSDOF 7
ENDMDL
MODEL      255
REMARK 921   NORMALIZED FREE ENERGY PREDICTED BY IDOCK:   -3.28 KCAL/MOL
REMARK 922        TOTAL FREE ENERGY PREDICTED BY IDOCK:   -5.55 KCAL/MOL
REMARK 923 INTER-LIGAND FREE ENERGY PREDICTED BY IDOCK:   -4.53 KCAL/MOL
REMARK 924 INTRA-LIGAND FREE ENERGY PREDICTED BY IDOCK:   -1.02 KCAL/MOL
REMARK 927      BINDING AFFINITY PREDICTED BY RF-SCORE:    0.00 PKD
ROOT
HETATM    1  O   UNL     1     -10.368  11.742  65.626  1.00  0.00    -0.234 OA 
HETATM    2  N   UNL     1     -11.194  11.513  66.506  1.00  0.00    -0.299 N  
HETATM    3  O   UNL     1     -12.280  12.047  66.735  1.00  0.00    -0.545 OA 
HETATM    4  O   UNL     1     -10.797  10.460  67.371  1.00  0.00    -0.273 OA 
ENDROOT
BRANCH   4   5
HETATM    5  C   UNL     1     -11.747  10.217  68.409  1.00  0.00     0.309 C  
BRANCH   5   6
HETATM    6  C   UNL     1     -11.149  10.680  69.762  1.00  0.00    -0.295 C  
BRANCH   6   7
HETATM    7  O   UNL     1     -12.114  11.264  70.654  1.00  0.00    -0.355 OA 
HETATM    8  O   UNL     1     -11.510  13.284  69.827  1.00  0.00    -0.243 OA 
HETATM    9  N   UNL     1     -12.250  12.673  70.596  1.00  0.00    -0.358 N  
HETATM   10  O   UNL     1     -13.147  13.095  71.320  1.00  0.00    -0.289 OA 
ENDBRANCH   6   7
BRANCH   6  11
HETATM   11  C   UNL     1     -10.267   9.609  70.462  1.00  0.00    -0.287 C  
BRANCH  11  12
HETATM   12  O   UNL     1     -10.732   8.313  70.069  1.00  0.00    -0.237 OA 
HETATM   13  O   UNL     1     -11.536   8.125  72.167  1.00  0.00    -0.300 OA 
HETATM   14  O   UNL     1     -12.387   6.922  70.491  1.00  0.00    -0.312 OA 
HETATM   15  N   UNL     1     -11.634   7.745  71.002  1.00  0.00    -0.283 N  
ENDBRANCH  11  12
BRANCH  11  16
HETATM   16  C   UNL     1      -8.762   9.773  70.163  1.00  0.00    -0.180 C  
BRANCH  16  17
HETATM   17  O   UNL     1      -8.329   8.853  69.163  1.00  0.00    -0.119 OA 
HETATM   18  N   UNL     1      -7.424   9.461  68.241  1.00  0.00    -0.078 N  
HETATM   19  O   UNL     1      -6.967   8.659  67.430  1.00  0.00    -0.076 OA 
HETATM   20  O   UNL     1      -7.237  10.669  68.356  1.00  0.00    -0.079 OA 
ENDBRANCH  16  17
ENDBRANCH  11  16
ENDBRANCH   6  11
ENDBRANCH   5   6
ENDBRANCH   4   5
TORSDOF 7
ENDMDL
MODEL      256
REMARK 921   NORMALIZED FREE ENERGY PREDICTED BY IDOCK:   -3.27 KCAL/MOL
REMARK 922        TOTAL FREE ENERGY PREDICTED BY IDOCK:   -5.55 KCAL/MOL
REMARK 923 INTER-LIGAND FREE ENERGY PREDICTED BY IDOCK:   -6.30 KCAL/MOL
REMARK 924 INTRA-LIGAND FREE ENERGY PREDICTED BY IDOCK:    0.76 KCAL/MOL
REMARK 927      BINDING AFFINITY PREDICTED BY RF-SCORE:    0.00 PKD
ROOT
HETATM    1  O   UNL     1      -6.033  17.230  70.061  1.00  0.00    -0.244 OA 
HETATM    2  N   UNL     1      -6.504  17.238  68.927  1.00  0.00    -0.191 N  
HETATM    3  O   UNL     1      -6.103  17.794  67.903  1.00  0.00    -0.154 OA 
HETATM    4  O   UNL     1      -7.694  16.471  68.821  1.00  0.00    -0.201 OA 
ENDROOT
BRANCH   4   5
HETATM    5  C   UNL     1      -8.253  16.507  67.507  1.00  0.00    -0.154 C  
BRANCH   5   6
HETATM    6  C   UNL     1      -9.782  16.271  67.601  1.00  0.00    -0.234 C  
BRANCH   6   7
HETATM    7  O   UNL     1     -10.559  17.481  67.572  1.00  0.00    -0.358 OA 
HETATM    8  O   UNL     1      -9.077  18.281  66.059  1.00  0.00    -0.510 OA 
HETATM    9  N   UNL     1     -10.110  18.495  66.691  1.00  0.00    -0.365 N  
HETATM   10  O   UNL     1     -10.864  19.462  66.654  1.00  0.00    -0.437 OA 
ENDBRANCH   6   7
BRANCH   6  11
HETATM   11  C   UNL     1     -10.318  15.199  66.611  1.00  0.00    -0.274 C  
BRANCH  11  12
HETATM   12  O   UNL     1     -10.315  15.759  65.293  1.00  0.00    -0.379 OA 
HETATM   13  O   UNL     1     -12.247  14.640  64.974  1.00  0.00    -0.381 OA 
HETATM   14  O   UNL     1     -11.738  16.439  63.755  1.00  0.00    -1.049 OA 
HETATM   15  N   UNL     1     -11.552  15.592  64.622  1.00  0.00    -0.346 N  
ENDBRANCH  11  12
BRANCH  11  16
HETATM   16  C   UNL     1      -9.517  13.881  66.654  1.00  0.00    -0.285 C  
BRANCH  16  17
HETATM   17  O   UNL     1     -10.311  12.808  67.159  1.00  0.00    -0.231 OA 
HETATM   18  N   UNL     1      -9.565  11.595  67.248  1.00  0.00    -0.173 N  
HETATM   19  O   UNL     1     -10.205  10.684  67.771  1.00  0.00    -0.169 OA 
HETATM   20  O   UNL     1      -8.425  11.604  66.792  1.00  0.00    -0.169 OA 
ENDBRANCH  16  17
ENDBRANCH  11  16
ENDBRANCH   6  11
ENDBRANCH   5   6
ENDBRANCH   4   5
TORSDOF 7
ENDMDL
MODEL      257
REMARK 921   NORMALIZED FREE ENERGY PREDICTED BY IDOCK:   -3.27 KCAL/MOL
REMARK 922        TOTAL FREE ENERGY PREDICTED BY IDOCK:   -5.54 KCAL/MOL
REMARK 923 INTER-LIGAND FREE ENERGY PREDICTED BY IDOCK:   -4.80 KCAL/MOL
REMARK 924 INTRA-LIGAND FREE ENERGY PREDICTED BY IDOCK:   -0.74 KCAL/MOL
REMARK 927      BINDING AFFINITY PREDICTED BY RF-SCORE:    0.00 PKD
ROOT
HETATM    1  O   UNL     1     -12.860  13.278  65.864  1.00  0.00    -0.360 OA 
HETATM    2  N   UNL     1     -11.890  13.222  66.616  1.00  0.00    -0.380 N  
HETATM    3  O   UNL     1     -11.512  14.007  67.486  1.00  0.00    -0.307 OA 
HETATM    4  O   UNL     1     -11.112  12.050  66.420  1.00  0.00    -0.288 OA 
ENDROOT
BRANCH   4   5
HETATM    5  C   UNL     1      -9.971  12.003  67.277  1.00  0.00    -0.194 C  
BRANCH   5   6
HETATM    6  C   UNL     1      -9.875  10.594  67.916  1.00  0.00    -0.161 C  
BRANCH   6   7
HETATM    7  O   UNL     1     -11.077  10.177  68.585  1.00  0.00    -0.235 OA 
HETATM    8  O   UNL     1      -9.780   9.598  70.348  1.00  0.00    -0.250 OA 
HETATM    9  N   UNL     1     -10.923   9.676  69.901  1.00  0.00    -0.243 N  
HETATM   10  O   UNL     1     -11.994   9.419  70.441  1.00  0.00    -0.175 OA 
ENDBRANCH   6   7
BRANCH   6  11
HETATM   11  C   UNL     1      -9.320   9.503  66.960  1.00  0.00    -0.148 C  
BRANCH  11  12
HETATM   12  O   UNL     1     -10.390   8.616  66.616  1.00  0.00    -0.289 OA 
HETATM   13  O   UNL     1      -8.928   6.941  66.999  1.00  0.00    -0.116 OA 
HETATM   14  O   UNL     1     -11.132   6.603  67.121  1.00  0.00    -0.392 OA 
HETATM   15  N   UNL     1     -10.114   7.266  66.947  1.00  0.00    -0.234 N  
ENDBRANCH  11  12
BRANCH  11  16
HETATM   16  C   UNL     1      -8.655  10.086  65.694  1.00  0.00    -0.155 C  
BRANCH  16  17
HETATM   17  O   UNL     1      -9.454   9.855  64.536  1.00  0.00    -0.283 OA 
HETATM   18  N   UNL     1      -8.668   9.844  63.345  1.00  0.00    -0.203 N  
HETATM   19  O   UNL     1      -9.324   9.552  62.348  1.00  0.00    -0.245 OA 
HETATM   20  O   UNL     1      -7.480  10.137  63.456  1.00  0.00    -0.143 OA 
ENDBRANCH  16  17
ENDBRANCH  11  16
ENDBRANCH   6  11
ENDBRANCH   5   6
ENDBRANCH   4   5
TORSDOF 7
ENDMDL
MODEL      258
REMARK 921   NORMALIZED FREE ENERGY PREDICTED BY IDOCK:   -3.26 KCAL/MOL
REMARK 922        TOTAL FREE ENERGY PREDICTED BY IDOCK:   -5.53 KCAL/MOL
REMARK 923 INTER-LIGAND FREE ENERGY PREDICTED BY IDOCK:   -5.18 KCAL/MOL
REMARK 924 INTRA-LIGAND FREE ENERGY PREDICTED BY IDOCK:   -0.35 KCAL/MOL
REMARK 927      BINDING AFFINITY PREDICTED BY RF-SCORE:    0.00 PKD
ROOT
HETATM    1  O   UNL     1     -13.066  12.206  71.522  1.00  0.00    -0.384 OA 
HETATM    2  N   UNL     1     -12.650  11.407  70.687  1.00  0.00    -0.298 N  
HETATM    3  O   UNL     1     -12.559  10.180  70.736  1.00  0.00    -0.316 OA 
HETATM    4  O   UNL     1     -12.219  12.039  69.490  1.00  0.00    -0.224 OA 
ENDROOT
BRANCH   4   5
HETATM    5  C   UNL     1     -11.710  11.109  68.534  1.00  0.00    -0.298 C  
BRANCH   5   6
HETATM    6  C   UNL     1     -10.633  11.812  67.668  1.00  0.00    -0.205 C  
BRANCH   6   7
HETATM    7  O   UNL     1      -9.327  11.220  67.771  1.00  0.00    -0.157 OA 
HETATM    8  O   UNL     1      -8.557  13.260  68.379  1.00  0.00    -0.173 OA 
HETATM    9  N   UNL     1      -8.279  12.078  68.184  1.00  0.00    -0.155 N  
HETATM   10  O   UNL     1      -7.212  11.490  68.332  1.00  0.00    -0.077 OA 
ENDBRANCH   6   7
BRANCH   6  11
HETATM   11  C   UNL     1     -11.063  12.046  66.193  1.00  0.00    -0.322 C  
BRANCH  11  12
HETATM   12  O   UNL     1     -11.752  13.299  66.116  1.00  0.00    -0.340 OA 
HETATM   13  O   UNL     1     -13.030  12.331  64.530  1.00  0.00    -0.738 OA 
HETATM   14  O   UNL     1     -13.768  14.084  65.698  1.00  0.00    -0.315 OA 
HETATM   15  N   UNL     1     -12.960  13.218  65.379  1.00  0.00    -0.285 N  
ENDBRANCH  11  12
BRANCH  11  16
HETATM   16  C   UNL     1      -9.880  12.003  65.202  1.00  0.00    -0.200 C  
BRANCH  16  17
HETATM   17  O   UNL     1      -9.904  10.811  64.418  1.00  0.00    -0.259 OA 
HETATM   18  N   UNL     1      -8.786   9.970  64.702  1.00  0.00    -0.175 N  
HETATM   19  O   UNL     1      -8.840   8.897  64.106  1.00  0.00    -0.115 OA 
HETATM   20  O   UNL     1      -7.930  10.414  65.462  1.00  0.00    -0.147 OA 
ENDBRANCH  16  17
ENDBRANCH  11  16
ENDBRANCH   6  11
ENDBRANCH   5   6
ENDBRANCH   4   5
TORSDOF 7
ENDMDL
MODEL      259
REMARK 921   NORMALIZED FREE ENERGY PREDICTED BY IDOCK:   -3.25 KCAL/MOL
REMARK 922        TOTAL FREE ENERGY PREDICTED BY IDOCK:   -5.53 KCAL/MOL
REMARK 923 INTER-LIGAND FREE ENERGY PREDICTED BY IDOCK:   -4.77 KCAL/MOL
REMARK 924 INTRA-LIGAND FREE ENERGY PREDICTED BY IDOCK:   -0.75 KCAL/MOL
REMARK 927      BINDING AFFINITY PREDICTED BY RF-SCORE:    0.00 PKD
ROOT
HETATM    1  O   UNL     1     -12.140  13.769  71.132  1.00  0.00    -0.330 OA 
HETATM    2  N   UNL     1     -12.083  13.010  70.168  1.00  0.00    -0.338 N  
HETATM    3  O   UNL     1     -12.168  13.249  68.962  1.00  0.00    -0.277 OA 
HETATM    4  O   UNL     1     -11.883  11.656  70.545  1.00  0.00    -0.342 OA 
ENDROOT
BRANCH   4   5
HETATM    5  C   UNL     1     -11.846  10.775  69.422  1.00  0.00    -0.298 C  
BRANCH   5   6
HETATM    6  C   UNL     1     -10.704   9.746  69.624  1.00  0.00    -0.242 C  
BRANCH   6   7
HETATM    7  O   UNL     1      -9.469  10.328  70.073  1.00  0.00    -0.122 OA 
HETATM    8  O   UNL     1      -8.498   9.456  68.223  1.00  0.00    -0.118 OA 
HETATM    9  N   UNL     1      -8.343  10.136  69.235  1.00  0.00    -0.146 N  
HETATM   10  O   UNL     1      -7.346  10.729  69.635  1.00  0.00    -0.145 OA 
ENDBRANCH   6   7
BRANCH   6  11
HETATM   11  C   UNL     1     -11.114   8.505  70.465  1.00  0.00    -0.244 C  
BRANCH  11  12
HETATM   12  O   UNL     1     -12.480   8.662  70.866  1.00  0.00    -0.167 OA 
HETATM   13  O   UNL     1     -11.801   8.000  72.912  1.00  0.00    -0.337 OA 
HETATM   14  O   UNL     1     -13.654   9.215  72.646  1.00  0.00    -0.465 OA 
HETATM   15  N   UNL     1     -12.648   8.621  72.273  1.00  0.00    -0.387 N  
ENDBRANCH  11  12
BRANCH  11  16
HETATM   16  C   UNL     1     -10.906   7.170  69.718  1.00  0.00    -0.240 C  
BRANCH  16  17
HETATM   17  O   UNL     1      -9.530   6.795  69.700  1.00  0.00    -0.147 OA 
HETATM   18  N   UNL     1      -9.367   5.381  69.804  1.00  0.00    -0.137 N  
HETATM   19  O   UNL     1      -8.194   5.032  69.695  1.00  0.00    -0.086 OA 
HETATM   20  O   UNL     1     -10.379   4.713  70.002  1.00  0.00    -0.205 OA 
ENDBRANCH  16  17
ENDBRANCH  11  16
ENDBRANCH   6  11
ENDBRANCH   5   6
ENDBRANCH   4   5
TORSDOF 7
ENDMDL
MODEL      260
REMARK 921   NORMALIZED FREE ENERGY PREDICTED BY IDOCK:   -3.24 KCAL/MOL
REMARK 922        TOTAL FREE ENERGY PREDICTED BY IDOCK:   -5.50 KCAL/MOL
REMARK 923 INTER-LIGAND FREE ENERGY PREDICTED BY IDOCK:   -4.63 KCAL/MOL
REMARK 924 INTRA-LIGAND FREE ENERGY PREDICTED BY IDOCK:   -0.87 KCAL/MOL
REMARK 927      BINDING AFFINITY PREDICTED BY RF-SCORE:    0.00 PKD
ROOT
HETATM    1  O   UNL     1      -8.557  15.860  66.456  1.00  0.00    -0.256 OA 
HETATM    2  N   UNL     1      -8.596  14.880  67.195  1.00  0.00    -0.211 N  
HETATM    3  O   UNL     1      -8.585  14.810  68.425  1.00  0.00    -0.153 OA 
HETATM    4  O   UNL     1      -8.669  13.656  66.479  1.00  0.00    -0.068 OA 
ENDROOT
BRANCH   4   5
HETATM    5  C   UNL     1      -8.685  12.518  67.342  1.00  0.00    -0.189 C  
BRANCH   5   6
HETATM    6  C   UNL     1     -10.078  11.843  67.263  1.00  0.00    -0.196 C  
BRANCH   6   7
HETATM    7  O   UNL     1     -10.628  11.799  65.935  1.00  0.00    -0.253 OA 
HETATM    8  O   UNL     1     -12.301  13.124  66.689  1.00  0.00    -0.330 OA 
HETATM    9  N   UNL     1     -11.815  12.541  65.722  1.00  0.00    -0.429 N  
HETATM   10  O   UNL     1     -12.181  12.528  64.550  1.00  0.00    -0.412 OA 
ENDBRANCH   6   7
BRANCH   6  11
HETATM   11  C   UNL     1     -10.155  10.467  67.982  1.00  0.00    -0.165 C  
BRANCH  11  12
HETATM   12  O   UNL     1      -8.828   9.939  68.089  1.00  0.00    -0.118 OA 
HETATM   13  O   UNL     1      -9.608   8.149  66.960  1.00  0.00    -0.167 OA 
HETATM   14  O   UNL     1      -7.434   8.657  66.963  1.00  0.00    -0.083 OA 
HETATM   15  N   UNL     1      -8.615   8.812  67.256  1.00  0.00    -0.121 N  
ENDBRANCH  11  12
BRANCH  11  16
HETATM   16  C   UNL     1     -10.835  10.543  69.365  1.00  0.00    -0.249 C  
BRANCH  16  17
HETATM   17  O   UNL     1     -10.041   9.911  70.368  1.00  0.00    -0.267 OA 
HETATM   18  N   UNL     1     -10.824   9.531  71.500  1.00  0.00    -0.330 N  
HETATM   19  O   UNL     1     -10.176   8.900  72.332  1.00  0.00    -0.251 OA 
HETATM   20  O   UNL     1     -12.000   9.885  71.511  1.00  0.00    -0.379 OA 
ENDBRANCH  16  17
ENDBRANCH  11  16
ENDBRANCH   6  11
ENDBRANCH   5   6
ENDBRANCH   4   5
TORSDOF 7
ENDMDL
MODEL      261
REMARK 921   NORMALIZED FREE ENERGY PREDICTED BY IDOCK:   -3.22 KCAL/MOL
REMARK 922        TOTAL FREE ENERGY PREDICTED BY IDOCK:   -5.48 KCAL/MOL
REMARK 923 INTER-LIGAND FREE ENERGY PREDICTED BY IDOCK:   -4.64 KCAL/MOL
REMARK 924 INTRA-LIGAND FREE ENERGY PREDICTED BY IDOCK:   -0.84 KCAL/MOL
REMARK 927      BINDING AFFINITY PREDICTED BY RF-SCORE:    0.00 PKD
ROOT
HETATM    1  O   UNL     1      -7.517   9.955  65.633  1.00  0.00    -0.105 OA 
HETATM    2  N   UNL     1      -8.169  10.238  66.634  1.00  0.00    -0.123 N  
HETATM    3  O   UNL     1      -8.471   9.547  67.608  1.00  0.00    -0.121 OA 
HETATM    4  O   UNL     1      -8.623  11.583  66.631  1.00  0.00    -0.168 OA 
ENDROOT
BRANCH   4   5
HETATM    5  C   UNL     1      -9.404  11.899  67.784  1.00  0.00    -0.184 C  
BRANCH   5   6
HETATM    6  C   UNL     1      -9.464  13.439  67.949  1.00  0.00    -0.216 C  
BRANCH   6   7
HETATM    7  O   UNL     1      -8.645  14.156  67.010  1.00  0.00    -0.215 OA 
HETATM    8  O   UNL     1      -7.556  15.043  68.786  1.00  0.00    -0.120 OA 
HETATM    9  N   UNL     1      -7.629  14.976  67.560  1.00  0.00    -0.176 N  
HETATM   10  O   UNL     1      -6.916  15.490  66.704  1.00  0.00    -0.072 OA 
ENDBRANCH   6   7
BRANCH   6  11
HETATM   11  C   UNL     1     -10.906  14.010  68.034  1.00  0.00    -0.246 C  
BRANCH  11  12
HETATM   12  O   UNL     1     -10.946  14.986  69.081  1.00  0.00    -0.239 OA 
HETATM   13  O   UNL     1     -12.428  13.622  70.096  1.00  0.00    -0.308 OA 
HETATM   14  O   UNL     1     -11.227  15.098  71.263  1.00  0.00    -0.331 OA 
HETATM   15  N   UNL     1     -11.595  14.514  70.249  1.00  0.00    -0.278 N  
ENDBRANCH  11  12
BRANCH  11  16
HETATM   16  C   UNL     1     -11.401  14.609  66.700  1.00  0.00    -0.356 C  
BRANCH  16  17
HETATM   17  O   UNL     1     -11.127  16.006  66.625  1.00  0.00    -0.170 OA 
HETATM   18  N   UNL     1     -11.001  16.449  65.273  1.00  0.00    -0.266 N  
HETATM   19  O   UNL     1     -10.860  17.666  65.186  1.00  0.00    -0.664 OA 
HETATM   20  O   UNL     1     -11.030  15.588  64.398  1.00  0.00    -0.284 OA 
ENDBRANCH  16  17
ENDBRANCH  11  16
ENDBRANCH   6  11
ENDBRANCH   5   6
ENDBRANCH   4   5
TORSDOF 7
ENDMDL
MODEL      262
REMARK 921   NORMALIZED FREE ENERGY PREDICTED BY IDOCK:   -3.22 KCAL/MOL
REMARK 922        TOTAL FREE ENERGY PREDICTED BY IDOCK:   -5.48 KCAL/MOL
REMARK 923 INTER-LIGAND FREE ENERGY PREDICTED BY IDOCK:   -6.06 KCAL/MOL
REMARK 924 INTRA-LIGAND FREE ENERGY PREDICTED BY IDOCK:    0.58 KCAL/MOL
REMARK 927      BINDING AFFINITY PREDICTED BY RF-SCORE:    0.00 PKD
ROOT
HETATM    1  O   UNL     1      -7.407  19.894  68.619  1.00  0.00    -0.313 OA 
HETATM    2  N   UNL     1      -8.569  19.610  68.341  1.00  0.00    -0.338 N  
HETATM    3  O   UNL     1      -9.431  20.269  67.757  1.00  0.00    -0.354 OA 
HETATM    4  O   UNL     1      -8.934  18.308  68.772  1.00  0.00    -0.298 OA 
ENDROOT
BRANCH   4   5
HETATM    5  C   UNL     1     -10.294  17.992  68.471  1.00  0.00    -0.349 C  
BRANCH   5   6
HETATM    6  C   UNL     1     -10.368  16.547  67.916  1.00  0.00    -0.294 C  
BRANCH   6   7
HETATM    7  O   UNL     1     -11.477  15.786  68.424  1.00  0.00    -0.362 OA 
HETATM    8  O   UNL     1     -10.138  15.162  70.139  1.00  0.00    -0.174 OA 
HETATM    9  N   UNL     1     -11.259  15.094  69.641  1.00  0.00    -0.255 N  
HETATM   10  O   UNL     1     -12.269  14.536  70.059  1.00  0.00    -0.312 OA 
ENDBRANCH   6   7
BRANCH   6  11
HETATM   11  C   UNL     1     -10.246  16.457  66.370  1.00  0.00    -0.316 C  
BRANCH  11  12
HETATM   12  O   UNL     1      -9.303  17.441  65.932  1.00  0.00    -0.508 OA 
HETATM   13  O   UNL     1      -7.728  16.149  66.901  1.00  0.00    -0.202 OA 
HETATM   14  O   UNL     1      -7.206  17.581  65.270  1.00  0.00     0.026 OA 
HETATM   15  N   UNL     1      -7.959  17.006  66.049  1.00  0.00    -0.248 N  
ENDBRANCH  11  12
BRANCH  11  16
HETATM   16  C   UNL     1      -9.850  15.051  65.873  1.00  0.00    -0.338 C  
BRANCH  16  17
HETATM   17  O   UNL     1     -10.971  14.359  65.326  1.00  0.00    -0.314 OA 
HETATM   18  N   UNL     1     -11.282  13.182  66.072  1.00  0.00    -0.288 N  
HETATM   19  O   UNL     1     -12.302  12.626  65.672  1.00  0.00    -0.581 OA 
HETATM   20  O   UNL     1     -10.510  12.872  66.975  1.00  0.00    -0.237 OA 
ENDBRANCH  16  17
ENDBRANCH  11  16
ENDBRANCH   6  11
ENDBRANCH   5   6
ENDBRANCH   4   5
TORSDOF 7
ENDMDL
MODEL      263
REMARK 921   NORMALIZED FREE ENERGY PREDICTED BY IDOCK:   -3.21 KCAL/MOL
REMARK 922        TOTAL FREE ENERGY PREDICTED BY IDOCK:   -5.47 KCAL/MOL
REMARK 923 INTER-LIGAND FREE ENERGY PREDICTED BY IDOCK:   -4.53 KCAL/MOL
REMARK 924 INTRA-LIGAND FREE ENERGY PREDICTED BY IDOCK:   -0.94 KCAL/MOL
REMARK 927      BINDING AFFINITY PREDICTED BY RF-SCORE:    0.00 PKD
ROOT
HETATM    1  O   UNL     1      -6.655  14.065  67.520  1.00  0.00    -0.219 OA 
HETATM    2  N   UNL     1      -7.414  13.205  67.961  1.00  0.00    -0.117 N  
HETATM    3  O   UNL     1      -7.168  12.180  68.597  1.00  0.00    -0.100 OA 
HETATM    4  O   UNL     1      -8.777  13.476  67.674  1.00  0.00    -0.170 OA 
ENDROOT
BRANCH   4   5
HETATM    5  C   UNL     1      -9.652  12.459  68.164  1.00  0.00    -0.218 C  
BRANCH   5   6
HETATM    6  C   UNL     1     -10.433  11.846  66.974  1.00  0.00    -0.224 C  
BRANCH   6   7
HETATM    7  O   UNL     1     -10.336  12.610  65.760  1.00  0.00    -0.268 OA 
HETATM    8  O   UNL     1     -12.573  12.348  65.531  1.00  0.00    -0.616 OA 
HETATM    9  N   UNL     1     -11.549  12.846  65.068  1.00  0.00    -0.318 N  
HETATM   10  O   UNL     1     -11.406  13.573  64.090  1.00  0.00    -0.382 OA 
ENDBRANCH   6   7
BRANCH   6  11
HETATM   11  C   UNL     1     -10.154  10.334  66.748  1.00  0.00    -0.216 C  
BRANCH  11  12
HETATM   12  O   UNL     1      -8.738  10.128  66.771  1.00  0.00    -0.126 OA 
HETATM   13  O   UNL     1      -8.895   9.810  64.544  1.00  0.00    -0.185 OA 
HETATM   14  O   UNL     1      -6.973  10.439  65.489  1.00  0.00    -0.139 OA 
HETATM   15  N   UNL     1      -8.160  10.128  65.477  1.00  0.00    -0.141 N  
ENDBRANCH  11  12
BRANCH  11  16
HETATM   16  C   UNL     1     -10.864   9.426  67.774  1.00  0.00    -0.159 C  
BRANCH  16  17
HETATM   17  O   UNL     1     -10.783   8.053  67.394  1.00  0.00    -0.269 OA 
HETATM   18  N   UNL     1     -10.675   7.196  68.530  1.00  0.00    -0.183 N  
HETATM   19  O   UNL     1     -10.701   6.005  68.227  1.00  0.00    -0.241 OA 
HETATM   20  O   UNL     1     -10.554   7.734  69.628  1.00  0.00    -0.239 OA 
ENDBRANCH  16  17
ENDBRANCH  11  16
ENDBRANCH   6  11
ENDBRANCH   5   6
ENDBRANCH   4   5
TORSDOF 7
ENDMDL
MODEL      264
REMARK 921   NORMALIZED FREE ENERGY PREDICTED BY IDOCK:   -3.21 KCAL/MOL
REMARK 922        TOTAL FREE ENERGY PREDICTED BY IDOCK:   -5.47 KCAL/MOL
REMARK 923 INTER-LIGAND FREE ENERGY PREDICTED BY IDOCK:   -5.29 KCAL/MOL
REMARK 924 INTRA-LIGAND FREE ENERGY PREDICTED BY IDOCK:   -0.18 KCAL/MOL
REMARK 927      BINDING AFFINITY PREDICTED BY RF-SCORE:    0.00 PKD
ROOT
HETATM    1  O   UNL     1      -7.593   9.634  68.181  1.00  0.00    -0.082 OA 
HETATM    2  N   UNL     1      -8.387   9.474  69.103  1.00  0.00    -0.118 N  
HETATM    3  O   UNL     1      -8.378   8.661  70.028  1.00  0.00    -0.115 OA 
HETATM    4  O   UNL     1      -9.468  10.394  69.063  1.00  0.00    -0.178 OA 
ENDROOT
BRANCH   4   5
HETATM    5  C   UNL     1     -10.403  10.186  70.121  1.00  0.00    -0.224 C  
BRANCH   5   6
HETATM    6  C   UNL     1     -11.725  10.922  69.782  1.00  0.00    -0.338 C  
BRANCH   6   7
HETATM    7  O   UNL     1     -12.671  10.947  70.864  1.00  0.00    -0.348 OA 
HETATM    8  O   UNL     1     -12.474   8.693  70.959  1.00  0.00    -0.230 OA 
HETATM    9  N   UNL     1     -12.991   9.696  71.448  1.00  0.00    -0.364 N  
HETATM   10  O   UNL     1     -13.736   9.799  72.417  1.00  0.00    -0.376 OA 
ENDBRANCH   6   7
BRANCH   6  11
HETATM   11  C   UNL     1     -11.521  12.322  69.141  1.00  0.00    -0.296 C  
BRANCH  11  12
HETATM   12  O   UNL     1     -11.926  12.255  67.769  1.00  0.00    -0.474 OA 
HETATM   13  O   UNL     1      -9.962  13.258  67.294  1.00  0.00    -0.226 OA 
HETATM   14  O   UNL     1     -11.037  12.038  65.765  1.00  0.00    -0.303 OA 
HETATM   15  N   UNL     1     -10.870  12.545  66.869  1.00  0.00    -0.243 N  
ENDBRANCH  11  12
BRANCH  11  16
HETATM   16  C   UNL     1     -12.273  13.446  69.886  1.00  0.00    -0.271 C  
BRANCH  16  17
HETATM   17  O   UNL     1     -11.377  14.460  70.335  1.00  0.00    -0.207 OA 
HETATM   18  N   UNL     1     -11.430  15.619  69.503  1.00  0.00    -0.318 N  
HETATM   19  O   UNL     1     -10.735  16.539  69.930  1.00  0.00    -0.329 OA 
HETATM   20  O   UNL     1     -12.122  15.550  68.491  1.00  0.00    -0.246 OA 
ENDBRANCH  16  17
ENDBRANCH  11  16
ENDBRANCH   6  11
ENDBRANCH   5   6
ENDBRANCH   4   5
TORSDOF 7
ENDMDL
MODEL      265
REMARK 921   NORMALIZED FREE ENERGY PREDICTED BY IDOCK:   -3.20 KCAL/MOL
REMARK 922        TOTAL FREE ENERGY PREDICTED BY IDOCK:   -5.45 KCAL/MOL
REMARK 923 INTER-LIGAND FREE ENERGY PREDICTED BY IDOCK:   -5.89 KCAL/MOL
REMARK 924 INTRA-LIGAND FREE ENERGY PREDICTED BY IDOCK:    0.44 KCAL/MOL
REMARK 927      BINDING AFFINITY PREDICTED BY RF-SCORE:    0.00 PKD
ROOT
HETATM    1  O   UNL     1     -12.416  13.342  63.120  1.00  0.00    -0.710 OA 
HETATM    2  N   UNL     1     -11.527  12.635  63.586  1.00  0.00    -0.462 N  
HETATM    3  O   UNL     1     -10.424  12.338  63.124  1.00  0.00    -0.359 OA 
HETATM    4  O   UNL     1     -11.860  12.099  64.858  1.00  0.00    -0.350 OA 
ENDROOT
BRANCH   4   5
HETATM    5  C   UNL     1     -10.834  11.255  65.381  1.00  0.00    -0.188 C  
BRANCH   5   6
HETATM    6  C   UNL     1     -10.414  11.776  66.780  1.00  0.00    -0.225 C  
BRANCH   6   7
HETATM    7  O   UNL     1      -9.135  12.433  66.795  1.00  0.00    -0.205 OA 
HETATM    8  O   UNL     1      -8.233  10.451  67.413  1.00  0.00    -0.117 OA 
HETATM    9  N   UNL     1      -8.018  11.626  67.125  1.00  0.00    -0.156 N  
HETATM   10  O   UNL     1      -6.953  12.229  67.036  1.00  0.00    -0.125 OA 
ENDBRANCH   6   7
BRANCH   6  11
HETATM   11  C   UNL     1     -11.513  12.603  67.502  1.00  0.00    -0.340 C  
BRANCH  11  12
HETATM   12  O   UNL     1     -12.381  11.697  68.191  1.00  0.00    -0.429 OA 
HETATM   13  O   UNL     1     -10.628  11.280  69.547  1.00  0.00    -0.162 OA 
HETATM   14  O   UNL     1     -12.724  10.916  70.222  1.00  0.00    -0.298 OA 
HETATM   15  N   UNL     1     -11.853  11.265  69.433  1.00  0.00    -0.327 N  
ENDBRANCH  11  12
BRANCH  11  16
HETATM   16  C   UNL     1     -10.940  13.663  68.467  1.00  0.00    -0.267 C  
BRANCH  16  17
HETATM   17  O   UNL     1     -11.171  14.984  67.983  1.00  0.00    -0.290 OA 
HETATM   18  N   UNL     1     -10.892  15.968  68.978  1.00  0.00    -0.262 N  
HETATM   19  O   UNL     1     -10.994  17.116  68.550  1.00  0.00    -0.317 OA 
HETATM   20  O   UNL     1     -10.614  15.563  70.103  1.00  0.00    -0.299 OA 
ENDBRANCH  16  17
ENDBRANCH  11  16
ENDBRANCH   6  11
ENDBRANCH   5   6
ENDBRANCH   4   5
TORSDOF 7
ENDMDL
MODEL      266
REMARK 921   NORMALIZED FREE ENERGY PREDICTED BY IDOCK:   -3.20 KCAL/MOL
REMARK 922        TOTAL FREE ENERGY PREDICTED BY IDOCK:   -5.44 KCAL/MOL
REMARK 923 INTER-LIGAND FREE ENERGY PREDICTED BY IDOCK:   -4.53 KCAL/MOL
REMARK 924 INTRA-LIGAND FREE ENERGY PREDICTED BY IDOCK:   -0.92 KCAL/MOL
REMARK 927      BINDING AFFINITY PREDICTED BY RF-SCORE:    0.00 PKD
ROOT
HETATM    1  O   UNL     1      -9.541   4.113  74.551  1.00  0.00    -0.107 OA 
HETATM    2  N   UNL     1      -9.903   4.466  73.432  1.00  0.00    -0.127 N  
HETATM    3  O   UNL     1     -10.973   4.287  72.849  1.00  0.00    -0.179 OA 
HETATM    4  O   UNL     1      -8.903   5.195  72.736  1.00  0.00    -0.119 OA 
ENDROOT
BRANCH   4   5
HETATM    5  C   UNL     1      -9.318   5.578  71.425  1.00  0.00    -0.147 C  
BRANCH   5   6
HETATM    6  C   UNL     1      -9.583   7.106  71.404  1.00  0.00    -0.161 C  
BRANCH   6   7
HETATM    7  O   UNL     1      -8.403   7.897  71.183  1.00  0.00    -0.106 OA 
HETATM    8  O   UNL     1      -8.681   8.716  73.276  1.00  0.00    -0.352 OA 
HETATM    9  N   UNL     1      -7.985   8.715  72.262  1.00  0.00    -0.065 N  
HETATM   10  O   UNL     1      -6.928   9.296  72.037  1.00  0.00    -0.313 OA 
ENDBRANCH   6   7
BRANCH   6  11
HETATM   11  C   UNL     1     -10.761   7.529  70.483  1.00  0.00    -0.235 C  
BRANCH  11  12
HETATM   12  O   UNL     1     -11.115   6.414  69.659  1.00  0.00    -0.327 OA 
HETATM   13  O   UNL     1     -10.726   7.775  67.903  1.00  0.00    -0.187 OA 
HETATM   14  O   UNL     1     -10.620   5.555  67.691  1.00  0.00    -0.216 OA 
HETATM   15  N   UNL     1     -10.785   6.610  68.295  1.00  0.00    -0.240 N  
ENDBRANCH  11  12
BRANCH  11  16
HETATM   16  C   UNL     1     -11.985   8.051  71.265  1.00  0.00    -0.296 C  
BRANCH  16  17
HETATM   17  O   UNL     1     -11.785   9.391  71.709  1.00  0.00    -0.371 OA 
HETATM   18  N   UNL     1     -12.941  10.199  71.488  1.00  0.00    -0.408 N  
HETATM   19  O   UNL     1     -12.821  11.332  71.950  1.00  0.00    -0.401 OA 
HETATM   20  O   UNL     1     -13.871   9.689  70.869  1.00  0.00    -0.173 OA 
ENDBRANCH  16  17
ENDBRANCH  11  16
ENDBRANCH   6  11
ENDBRANCH   5   6
ENDBRANCH   4   5
TORSDOF 7
ENDMDL
MODEL      267
REMARK 921   NORMALIZED FREE ENERGY PREDICTED BY IDOCK:   -3.19 KCAL/MOL
REMARK 922        TOTAL FREE ENERGY PREDICTED BY IDOCK:   -5.44 KCAL/MOL
REMARK 923 INTER-LIGAND FREE ENERGY PREDICTED BY IDOCK:   -5.34 KCAL/MOL
REMARK 924 INTRA-LIGAND FREE ENERGY PREDICTED BY IDOCK:   -0.10 KCAL/MOL
REMARK 927      BINDING AFFINITY PREDICTED BY RF-SCORE:    0.00 PKD
ROOT
HETATM    1  O   UNL     1     -13.158  11.870  71.579  1.00  0.00    -0.402 OA 
HETATM    2  N   UNL     1     -12.392  11.121  70.978  1.00  0.00    -0.385 N  
HETATM    3  O   UNL     1     -11.729  10.167  71.387  1.00  0.00    -0.360 OA 
HETATM    4  O   UNL     1     -12.287  11.436  69.597  1.00  0.00    -0.259 OA 
ENDROOT
BRANCH   4   5
HETATM    5  C   UNL     1     -11.375  10.580  68.909  1.00  0.00    -0.251 C  
BRANCH   5   6
HETATM    6  C   UNL     1     -10.960  11.250  67.574  1.00  0.00    -0.265 C  
BRANCH   6   7
HETATM    7  O   UNL     1     -11.048  12.685  67.593  1.00  0.00    -0.241 OA 
HETATM    8  O   UNL     1     -12.565  12.517  65.921  1.00  0.00    -0.514 OA 
HETATM    9  N   UNL     1     -11.959  13.271  66.680  1.00  0.00    -0.393 N  
HETATM   10  O   UNL     1     -12.045  14.488  66.808  1.00  0.00    -0.395 OA 
ENDBRANCH   6   7
BRANCH   6  11
HETATM   11  C   UNL     1      -9.603  10.747  67.009  1.00  0.00    -0.169 C  
BRANCH  11  12
HETATM   12  O   UNL     1      -9.318  11.469  65.806  1.00  0.00    -0.226 OA 
HETATM   13  O   UNL     1     -10.022   9.628  64.709  1.00  0.00    -0.112 OA 
HETATM   14  O   UNL     1     -10.049  11.637  63.735  1.00  0.00    -0.311 OA 
HETATM   15  N   UNL     1      -9.851  10.845  64.651  1.00  0.00    -0.267 N  
ENDBRANCH  11  12
BRANCH  11  16
HETATM   16  C   UNL     1      -8.442  10.872  68.019  1.00  0.00    -0.130 C  
BRANCH  16  17
HETATM   17  O   UNL     1      -8.886  10.626  69.352  1.00  0.00    -0.127 OA 
HETATM   18  N   UNL     1      -8.101   9.620  69.993  1.00  0.00    -0.163 N  
HETATM   19  O   UNL     1      -8.408   9.463  71.173  1.00  0.00    -0.310 OA 
HETATM   20  O   UNL     1      -7.262   9.043  69.307  1.00  0.00    -0.063 OA 
ENDBRANCH  16  17
ENDBRANCH  11  16
ENDBRANCH   6  11
ENDBRANCH   5   6
ENDBRANCH   4   5
TORSDOF 7
ENDMDL
MODEL      268
REMARK 921   NORMALIZED FREE ENERGY PREDICTED BY IDOCK:   -3.19 KCAL/MOL
REMARK 922        TOTAL FREE ENERGY PREDICTED BY IDOCK:   -5.44 KCAL/MOL
REMARK 923 INTER-LIGAND FREE ENERGY PREDICTED BY IDOCK:   -4.69 KCAL/MOL
REMARK 924 INTRA-LIGAND FREE ENERGY PREDICTED BY IDOCK:   -0.74 KCAL/MOL
REMARK 927      BINDING AFFINITY PREDICTED BY RF-SCORE:    0.00 PKD
ROOT
HETATM    1  O   UNL     1     -12.017  14.367  71.021  1.00  0.00    -0.325 OA 
HETATM    2  N   UNL     1     -12.095  13.813  69.927  1.00  0.00    -0.337 N  
HETATM    3  O   UNL     1     -12.277  14.290  68.806  1.00  0.00    -0.301 OA 
HETATM    4  O   UNL     1     -11.941  12.404  70.013  1.00  0.00    -0.328 OA 
ENDROOT
BRANCH   4   5
HETATM    5  C   UNL     1     -12.060  11.763  68.742  1.00  0.00    -0.144 C  
BRANCH   5   6
HETATM    6  C   UNL     1     -10.668  11.239  68.306  1.00  0.00    -0.194 C  
BRANCH   6   7
HETATM    7  O   UNL     1      -9.583  12.118  68.651  1.00  0.00    -0.165 OA 
HETATM    8  O   UNL     1      -9.558  12.777  66.485  1.00  0.00    -0.247 OA 
HETATM    9  N   UNL     1      -9.070  12.922  67.604  1.00  0.00    -0.184 N  
HETATM   10  O   UNL     1      -8.206  13.706  67.986  1.00  0.00    -0.139 OA 
ENDBRANCH   6   7
BRANCH   6  11
HETATM   11  C   UNL     1     -10.391   9.767  68.716  1.00  0.00    -0.208 C  
BRANCH  11  12
HETATM   12  O   UNL     1      -9.166   9.350  68.103  1.00  0.00    -0.131 OA 
HETATM   13  O   UNL     1     -10.356   7.647  67.225  1.00  0.00    -0.238 OA 
HETATM   14  O   UNL     1      -8.460   8.343  66.275  1.00  0.00    -0.115 OA 
HETATM   15  N   UNL     1      -9.357   8.356  67.111  1.00  0.00    -0.147 N  
ENDBRANCH  11  12
BRANCH  11  16
HETATM   16  C   UNL     1     -10.344   9.561  70.245  1.00  0.00    -0.269 C  
BRANCH  16  17
HETATM   17  O   UNL     1     -11.574   9.033  70.735  1.00  0.00    -0.276 OA 
HETATM   18  N   UNL     1     -11.450   8.561  72.077  1.00  0.00    -0.336 N  
HETATM   19  O   UNL     1     -12.523   8.190  72.549  1.00  0.00    -0.296 OA 
HETATM   20  O   UNL     1     -10.325   8.565  72.570  1.00  0.00    -0.315 OA 
ENDBRANCH  16  17
ENDBRANCH  11  16
ENDBRANCH   6  11
ENDBRANCH   5   6
ENDBRANCH   4   5
TORSDOF 7
ENDMDL
MODEL      269
REMARK 921   NORMALIZED FREE ENERGY PREDICTED BY IDOCK:   -3.18 KCAL/MOL
REMARK 922        TOTAL FREE ENERGY PREDICTED BY IDOCK:   -5.43 KCAL/MOL
REMARK 923 INTER-LIGAND FREE ENERGY PREDICTED BY IDOCK:   -4.87 KCAL/MOL
REMARK 924 INTRA-LIGAND FREE ENERGY PREDICTED BY IDOCK:   -0.55 KCAL/MOL
REMARK 927      BINDING AFFINITY PREDICTED BY RF-SCORE:    0.00 PKD
ROOT
HETATM    1  O   UNL     1     -12.472  14.500  70.657  1.00  0.00    -0.304 OA 
HETATM    2  N   UNL     1     -12.812  13.418  71.129  1.00  0.00    -0.320 N  
HETATM    3  O   UNL     1     -13.646  13.156  71.997  1.00  0.00    -0.475 OA 
HETATM    4  O   UNL     1     -12.113  12.324  70.554  1.00  0.00    -0.364 OA 
ENDROOT
BRANCH   4   5
HETATM    5  C   UNL     1     -12.491  11.072  71.126  1.00  0.00    -0.397 C  
BRANCH   5   6
HETATM    6  C   UNL     1     -11.522   9.972  70.624  1.00  0.00    -0.345 C  
BRANCH   6   7
HETATM    7  O   UNL     1     -11.967   8.634  70.902  1.00  0.00    -0.276 OA 
HETATM    8  O   UNL     1     -10.442   8.579  72.575  1.00  0.00    -0.317 OA 
HETATM    9  N   UNL     1     -11.339   7.976  71.989  1.00  0.00    -0.281 N  
HETATM   10  O   UNL     1     -11.825   6.874  72.223  1.00  0.00    -0.279 OA 
ENDBRANCH   6   7
BRANCH   6  11
HETATM   11  C   UNL     1     -11.073  10.152  69.147  1.00  0.00    -0.212 C  
BRANCH  11  12
HETATM   12  O   UNL     1      -9.914  10.991  69.125  1.00  0.00    -0.195 OA 
HETATM   13  O   UNL     1     -10.673  11.739  67.137  1.00  0.00    -0.221 OA 
HETATM   14  O   UNL     1      -9.284  12.967  68.381  1.00  0.00    -0.196 OA 
HETATM   15  N   UNL     1      -9.974  11.987  68.119  1.00  0.00    -0.197 N  
ENDBRANCH  11  12
BRANCH  11  16
HETATM   16  C   UNL     1     -10.802   8.813  68.428  1.00  0.00     0.034 C  
BRANCH  16  17
HETATM   17  O   UNL     1      -9.423   8.678  68.088  1.00  0.00    -0.139 OA 
HETATM   18  N   UNL     1      -8.821   7.569  68.755  1.00  0.00    -0.131 N  
HETATM   19  O   UNL     1      -7.659   7.379  68.402  1.00  0.00    -0.108 OA 
HETATM   20  O   UNL     1      -9.505   6.975  69.584  1.00  0.00    -0.149 OA 
ENDBRANCH  16  17
ENDBRANCH  11  16
ENDBRANCH   6  11
ENDBRANCH   5   6
ENDBRANCH   4   5
TORSDOF 7
ENDMDL
MODEL      270
REMARK 921   NORMALIZED FREE ENERGY PREDICTED BY IDOCK:   -3.17 KCAL/MOL
REMARK 922        TOTAL FREE ENERGY PREDICTED BY IDOCK:   -5.41 KCAL/MOL
REMARK 923 INTER-LIGAND FREE ENERGY PREDICTED BY IDOCK:   -5.56 KCAL/MOL
REMARK 924 INTRA-LIGAND FREE ENERGY PREDICTED BY IDOCK:    0.15 KCAL/MOL
REMARK 927      BINDING AFFINITY PREDICTED BY RF-SCORE:    0.00 PKD
ROOT
HETATM    1  O   UNL     1      -8.867  20.134  65.911  1.00  0.00    -0.266 OA 
HETATM    2  N   UNL     1      -9.762  19.374  66.272  1.00  0.00    -0.371 N  
HETATM    3  O   UNL     1     -10.919  19.616  66.618  1.00  0.00    -0.424 OA 
HETATM    4  O   UNL     1      -9.359  18.013  66.273  1.00  0.00    -0.401 OA 
ENDROOT
BRANCH   4   5
HETATM    5  C   UNL     1     -10.394  17.137  66.720  1.00  0.00    -0.302 C  
BRANCH   5   6
HETATM    6  C   UNL     1      -9.911  16.390  67.991  1.00  0.00    -0.242 C  
BRANCH   6   7
HETATM    7  O   UNL     1     -10.794  16.530  69.117  1.00  0.00    -0.310 OA 
HETATM    8  O   UNL     1     -12.149  15.015  68.119  1.00  0.00    -0.231 OA 
HETATM    9  N   UNL     1     -11.962  15.728  69.103  1.00  0.00    -0.361 N  
HETATM   10  O   UNL     1     -12.624  15.834  70.131  1.00  0.00    -0.347 OA 
ENDBRANCH   6   7
BRANCH   6  11
HETATM   11  C   UNL     1      -9.503  14.912  67.737  1.00  0.00    -0.203 C  
BRANCH  11  12
HETATM   12  O   UNL     1      -9.343  14.723  66.327  1.00  0.00    -0.286 OA 
HETATM   13  O   UNL     1     -10.472  12.791  66.608  1.00  0.00    -0.253 OA 
HETATM   14  O   UNL     1     -10.402  13.812  64.624  1.00  0.00    -0.426 OA 
HETATM   15  N   UNL     1     -10.152  13.677  65.817  1.00  0.00    -0.302 N  
ENDBRANCH  11  12
BRANCH  11  16
HETATM   16  C   UNL     1      -8.228  14.496  68.501  1.00  0.00    -0.154 C  
BRANCH  16  17
HETATM   17  O   UNL     1      -7.773  15.541  69.359  1.00  0.00    -0.209 OA 
HETATM   18  N   UNL     1      -6.545  16.105  68.900  1.00  0.00    -0.130 N  
HETATM   19  O   UNL     1      -6.187  17.070  69.573  1.00  0.00    -0.218 OA 
HETATM   20  O   UNL     1      -6.007  15.566  67.936  1.00  0.00    -0.126 OA 
ENDBRANCH  16  17
ENDBRANCH  11  16
ENDBRANCH   6  11
ENDBRANCH   5   6
ENDBRANCH   4   5
TORSDOF 7
ENDMDL
MODEL      271
REMARK 921   NORMALIZED FREE ENERGY PREDICTED BY IDOCK:   -3.17 KCAL/MOL
REMARK 922        TOTAL FREE ENERGY PREDICTED BY IDOCK:   -5.41 KCAL/MOL
REMARK 923 INTER-LIGAND FREE ENERGY PREDICTED BY IDOCK:   -4.40 KCAL/MOL
REMARK 924 INTRA-LIGAND FREE ENERGY PREDICTED BY IDOCK:   -1.01 KCAL/MOL
REMARK 927      BINDING AFFINITY PREDICTED BY RF-SCORE:    0.00 PKD
ROOT
HETATM    1  O   UNL     1      -7.677   4.869  69.798  1.00  0.00    -0.055 OA 
HETATM    2  N   UNL     1      -8.748   5.461  69.695  1.00  0.00    -0.102 N  
HETATM    3  O   UNL     1      -9.899   5.056  69.864  1.00  0.00    -0.184 OA 
HETATM    4  O   UNL     1      -8.589   6.823  69.328  1.00  0.00    -0.128 OA 
ENDROOT
BRANCH   4   5
HETATM    5  C   UNL     1      -9.838   7.499  69.183  1.00  0.00    -0.170 C  
BRANCH   5   6
HETATM    6  C   UNL     1     -10.106   7.752  67.677  1.00  0.00    -0.196 C  
BRANCH   6   7
HETATM    7  O   UNL     1     -10.902   6.732  67.050  1.00  0.00    -0.340 OA 
HETATM    8  O   UNL     1      -8.966   5.784  66.357  1.00  0.00    -0.129 OA 
HETATM    9  N   UNL     1     -10.193   5.703  66.383  1.00  0.00    -0.187 N  
HETATM   10  O   UNL     1     -10.929   4.824  65.945  1.00  0.00    -0.247 OA 
ENDBRANCH   6   7
BRANCH   6  11
HETATM   11  C   UNL     1     -10.619   9.184  67.358  1.00  0.00    -0.244 C  
BRANCH  11  12
HETATM   12  O   UNL     1     -10.220  10.054  68.423  1.00  0.00    -0.159 OA 
HETATM   13  O   UNL     1     -12.273  10.970  68.247  1.00  0.00    -0.582 OA 
HETATM   14  O   UNL     1     -11.098  11.122  70.138  1.00  0.00    -0.205 OA 
HETATM   15  N   UNL     1     -11.305  10.776  68.980  1.00  0.00    -0.262 N  
ENDBRANCH  11  12
BRANCH  11  16
HETATM   16  C   UNL     1     -10.128   9.714  65.995  1.00  0.00    -0.248 C  
BRANCH  16  17
HETATM   17  O   UNL     1      -9.473  10.974  66.134  1.00  0.00    -0.190 OA 
HETATM   18  N   UNL     1     -10.258  12.040  65.601  1.00  0.00    -0.244 N  
HETATM   19  O   UNL     1      -9.753  13.143  65.797  1.00  0.00    -0.236 OA 
HETATM   20  O   UNL     1     -11.294  11.734  65.016  1.00  0.00    -0.295 OA 
ENDBRANCH  16  17
ENDBRANCH  11  16
ENDBRANCH   6  11
ENDBRANCH   5   6
ENDBRANCH   4   5
TORSDOF 7
ENDMDL
MODEL      272
REMARK 921   NORMALIZED FREE ENERGY PREDICTED BY IDOCK:   -3.16 KCAL/MOL
REMARK 922        TOTAL FREE ENERGY PREDICTED BY IDOCK:   -5.39 KCAL/MOL
REMARK 923 INTER-LIGAND FREE ENERGY PREDICTED BY IDOCK:   -5.75 KCAL/MOL
REMARK 924 INTRA-LIGAND FREE ENERGY PREDICTED BY IDOCK:    0.36 KCAL/MOL
REMARK 927      BINDING AFFINITY PREDICTED BY RF-SCORE:    0.00 PKD
ROOT
HETATM    1  O   UNL     1      -7.494   7.550  67.924  1.00  0.00    -0.099 OA 
HETATM    2  N   UNL     1      -8.182   8.514  67.602  1.00  0.00    -0.117 N  
HETATM    3  O   UNL     1      -7.998   9.368  66.733  1.00  0.00    -0.107 OA 
HETATM    4  O   UNL     1      -9.370   8.623  68.373  1.00  0.00    -0.138 OA 
ENDROOT
BRANCH   4   5
HETATM    5  C   UNL     1     -10.152   9.762  68.013  1.00  0.00    -0.171 C  
BRANCH   5   6
HETATM    6  C   UNL     1     -11.123  10.097  69.175  1.00  0.00    -0.212 C  
BRANCH   6   7
HETATM    7  O   UNL     1     -10.561   9.886  70.481  1.00  0.00    -0.285 OA 
HETATM    8  O   UNL     1     -12.159   8.316  70.808  1.00  0.00    -0.206 OA 
HETATM    9  N   UNL     1     -11.176   8.887  71.275  1.00  0.00    -0.274 N  
HETATM   10  O   UNL     1     -10.595   8.702  72.340  1.00  0.00    -0.331 OA 
ENDBRANCH   6   7
BRANCH   6  11
HETATM   11  C   UNL     1     -11.810  11.484  69.043  1.00  0.00    -0.343 C  
BRANCH  11  12
HETATM   12  O   UNL     1     -11.556  12.230  70.238  1.00  0.00    -0.196 OA 
HETATM   13  O   UNL     1     -12.495  13.981  69.169  1.00  0.00    -0.238 OA 
HETATM   14  O   UNL     1     -12.425  13.890  71.399  1.00  0.00    -0.351 OA 
HETATM   15  N   UNL     1     -12.226  13.480  70.260  1.00  0.00    -0.350 N  
ENDBRANCH  11  12
BRANCH  11  16
HETATM   16  C   UNL     1     -11.358  12.269  67.793  1.00  0.00    -0.301 C  
BRANCH  16  17
HETATM   17  O   UNL     1     -12.257  12.072  66.703  1.00  0.00    -0.550 OA 
HETATM   18  N   UNL     1     -12.167  13.127  65.746  1.00  0.00    -0.448 N  
HETATM   19  O   UNL     1     -12.864  12.926  64.754  1.00  0.00    -0.706 OA 
HETATM   20  O   UNL     1     -11.445  14.079  66.029  1.00  0.00    -0.323 OA 
ENDBRANCH  16  17
ENDBRANCH  11  16
ENDBRANCH   6  11
ENDBRANCH   5   6
ENDBRANCH   4   5
TORSDOF 7
ENDMDL
MODEL      273
REMARK 921   NORMALIZED FREE ENERGY PREDICTED BY IDOCK:   -3.15 KCAL/MOL
REMARK 922        TOTAL FREE ENERGY PREDICTED BY IDOCK:   -5.37 KCAL/MOL
REMARK 923 INTER-LIGAND FREE ENERGY PREDICTED BY IDOCK:   -4.48 KCAL/MOL
REMARK 924 INTRA-LIGAND FREE ENERGY PREDICTED BY IDOCK:   -0.89 KCAL/MOL
REMARK 927      BINDING AFFINITY PREDICTED BY RF-SCORE:    0.00 PKD
ROOT
HETATM    1  O   UNL     1      -6.592   6.520  69.969  1.00  0.00    -0.045 OA 
HETATM    2  N   UNL     1      -7.081   7.579  69.582  1.00  0.00    -0.063 N  
HETATM    3  O   UNL     1      -6.712   8.345  68.691  1.00  0.00    -0.057 OA 
HETATM    4  O   UNL     1      -8.255   7.935  70.296  1.00  0.00    -0.119 OA 
ENDROOT
BRANCH   4   5
HETATM    5  C   UNL     1      -8.803   9.180  69.861  1.00  0.00    -0.169 C  
BRANCH   5   6
HETATM    6  C   UNL     1     -10.349   9.079  69.855  1.00  0.00    -0.207 C  
BRANCH   6   7
HETATM    7  O   UNL     1     -10.909   8.663  71.113  1.00  0.00    -0.234 OA 
HETATM    8  O   UNL     1     -11.582   6.767  70.075  1.00  0.00    -0.343 OA 
HETATM    9  N   UNL     1     -11.531   7.390  71.133  1.00  0.00    -0.271 N  
HETATM   10  O   UNL     1     -11.910   7.064  72.253  1.00  0.00    -0.277 OA 
ENDBRANCH   6   7
BRANCH   6  11
HETATM   11  C   UNL     1     -11.062  10.331  69.275  1.00  0.00    -0.245 C  
BRANCH  11  12
HETATM   12  O   UNL     1     -11.135  10.192  67.852  1.00  0.00    -0.286 OA 
HETATM   13  O   UNL     1     -10.452  12.339  67.753  1.00  0.00    -0.203 OA 
HETATM   14  O   UNL     1     -10.140  10.946  66.037  1.00  0.00    -0.232 OA 
HETATM   15  N   UNL     1     -10.515  11.263  67.161  1.00  0.00    -0.212 N  
ENDBRANCH  11  12
BRANCH  11  16
HETATM   16  C   UNL     1     -12.462  10.568  69.881  1.00  0.00    -0.122 C  
BRANCH  16  17
HETATM   17  O   UNL     1     -12.512  11.795  70.608  1.00  0.00    -0.324 OA 
HETATM   18  N   UNL     1     -13.116  11.625  71.890  1.00  0.00    -0.455 N  
HETATM   19  O   UNL     1     -13.081  12.650  72.567  1.00  0.00    -0.310 OA 
HETATM   20  O   UNL     1     -13.596  10.523  72.141  1.00  0.00    -0.308 OA 
ENDBRANCH  16  17
ENDBRANCH  11  16
ENDBRANCH   6  11
ENDBRANCH   5   6
ENDBRANCH   4   5
TORSDOF 7
ENDMDL
MODEL      274
REMARK 921   NORMALIZED FREE ENERGY PREDICTED BY IDOCK:   -3.14 KCAL/MOL
REMARK 922        TOTAL FREE ENERGY PREDICTED BY IDOCK:   -5.36 KCAL/MOL
REMARK 923 INTER-LIGAND FREE ENERGY PREDICTED BY IDOCK:   -5.19 KCAL/MOL
REMARK 924 INTRA-LIGAND FREE ENERGY PREDICTED BY IDOCK:   -0.17 KCAL/MOL
REMARK 927      BINDING AFFINITY PREDICTED BY RF-SCORE:    0.00 PKD
ROOT
HETATM    1  O   UNL     1      -9.596  10.118  63.770  1.00  0.00    -0.293 OA 
HETATM    2  N   UNL     1      -9.236  10.687  64.797  1.00  0.00    -0.207 N  
HETATM    3  O   UNL     1      -8.350  10.392  65.601  1.00  0.00    -0.152 OA 
HETATM    4  O   UNL     1      -9.980  11.868  65.061  1.00  0.00    -0.253 OA 
ENDROOT
BRANCH   4   5
HETATM    5  C   UNL     1      -9.576  12.510  66.270  1.00  0.00    -0.245 C  
BRANCH   5   6
HETATM    6  C   UNL     1     -10.391  13.817  66.446  1.00  0.00    -0.290 C  
BRANCH   6   7
HETATM    7  O   UNL     1     -11.813  13.611  66.504  1.00  0.00    -0.360 OA 
HETATM    8  O   UNL     1     -11.975  14.888  64.642  1.00  0.00    -0.428 OA 
HETATM    9  N   UNL     1     -12.577  14.211  65.473  1.00  0.00    -0.496 N  
HETATM   10  O   UNL     1     -13.769  13.925  65.536  1.00  0.00    -0.389 OA 
ENDBRANCH   6   7
BRANCH   6  11
HETATM   11  C   UNL     1      -9.877  14.732  67.592  1.00  0.00    -0.218 C  
BRANCH  11  12
HETATM   12  O   UNL     1     -10.673  14.488  68.757  1.00  0.00    -0.238 OA 
HETATM   13  O   UNL     1     -10.317  16.655  69.273  1.00  0.00    -0.293 OA 
HETATM   14  O   UNL     1     -12.079  15.547  70.083  1.00  0.00    -0.340 OA 
HETATM   15  N   UNL     1     -11.052  15.680  69.424  1.00  0.00    -0.279 N  
ENDBRANCH  11  12
BRANCH  11  16
HETATM   16  C   UNL     1      -8.377  14.539  67.896  1.00  0.00    -0.159 C  
BRANCH  16  17
HETATM   17  O   UNL     1      -7.774  15.757  68.329  1.00  0.00    -0.127 OA 
HETATM   18  N   UNL     1      -7.505  16.632  67.233  1.00  0.00    -0.153 N  
HETATM   19  O   UNL     1      -7.074  17.724  67.596  1.00  0.00    -0.181 OA 
HETATM   20  O   UNL     1      -7.712  16.194  66.104  1.00  0.00    -0.094 OA 
ENDBRANCH  16  17
ENDBRANCH  11  16
ENDBRANCH   6  11
ENDBRANCH   5   6
ENDBRANCH   4   5
TORSDOF 7
ENDMDL
MODEL      275
REMARK 921   NORMALIZED FREE ENERGY PREDICTED BY IDOCK:   -3.14 KCAL/MOL
REMARK 922        TOTAL FREE ENERGY PREDICTED BY IDOCK:   -5.36 KCAL/MOL
REMARK 923 INTER-LIGAND FREE ENERGY PREDICTED BY IDOCK:   -4.35 KCAL/MOL
REMARK 924 INTRA-LIGAND FREE ENERGY PREDICTED BY IDOCK:   -1.01 KCAL/MOL
REMARK 927      BINDING AFFINITY PREDICTED BY RF-SCORE:    0.00 PKD
ROOT
HETATM    1  O   UNL     1     -14.025   7.140  71.802  1.00  0.00    -0.370 OA 
HETATM    2  N   UNL     1     -12.870   6.775  71.599  1.00  0.00    -0.335 N  
HETATM    3  O   UNL     1     -11.994   6.433  72.394  1.00  0.00    -0.263 OA 
HETATM    4  O   UNL     1     -12.536   6.753  70.219  1.00  0.00    -0.144 OA 
ENDROOT
BRANCH   4   5
HETATM    5  C   UNL     1     -11.184   6.354  69.991  1.00  0.00    -0.411 C  
BRANCH   5   6
HETATM    6  C   UNL     1     -10.334   7.609  69.665  1.00  0.00    -0.213 C  
BRANCH   6   7
HETATM    7  O   UNL     1      -9.234   7.816  70.568  1.00  0.00    -0.160 OA 
HETATM    8  O   UNL     1     -10.515   9.359  71.620  1.00  0.00    -0.325 OA 
HETATM    9  N   UNL     1      -9.439   8.763  71.602  1.00  0.00    -0.270 N  
HETATM   10  O   UNL     1      -8.495   8.827  72.383  1.00  0.00    -0.393 OA 
ENDBRANCH   6   7
BRANCH   6  11
HETATM   11  C   UNL     1      -9.905   7.712  68.175  1.00  0.00    -0.164 C  
BRANCH  11  12
HETATM   12  O   UNL     1      -8.487   7.527  68.099  1.00  0.00    -0.123 OA 
HETATM   13  O   UNL     1      -8.441   9.481  66.973  1.00  0.00    -0.126 OA 
HETATM   14  O   UNL     1      -6.637   8.723  68.048  1.00  0.00    -0.059 OA 
HETATM   15  N   UNL     1      -7.803   8.690  67.667  1.00  0.00    -0.102 N  
ENDBRANCH  11  12
BRANCH  11  16
HETATM   16  C   UNL     1     -10.645   6.713  67.261  1.00  0.00    -0.317 C  
BRANCH  16  17
HETATM   17  O   UNL     1      -9.865   6.386  66.112  1.00  0.00    -0.052 OA 
HETATM   18  N   UNL     1      -9.714   4.975  65.959  1.00  0.00    -0.170 N  
HETATM   19  O   UNL     1      -9.126   4.672  64.923  1.00  0.00    -0.153 OA 
HETATM   20  O   UNL     1     -10.157   4.264  66.858  1.00  0.00    -0.196 OA 
ENDBRANCH  16  17
ENDBRANCH  11  16
ENDBRANCH   6  11
ENDBRANCH   5   6
ENDBRANCH   4   5
TORSDOF 7
ENDMDL
MODEL      276
REMARK 921   NORMALIZED FREE ENERGY PREDICTED BY IDOCK:   -3.10 KCAL/MOL
REMARK 922        TOTAL FREE ENERGY PREDICTED BY IDOCK:   -5.31 KCAL/MOL
REMARK 923 INTER-LIGAND FREE ENERGY PREDICTED BY IDOCK:   -4.42 KCAL/MOL
REMARK 924 INTRA-LIGAND FREE ENERGY PREDICTED BY IDOCK:   -0.89 KCAL/MOL
REMARK 927      BINDING AFFINITY PREDICTED BY RF-SCORE:    0.00 PKD
ROOT
HETATM    1  O   UNL     1      -6.377   5.447  68.110  1.00  0.00    -0.036 OA 
HETATM    2  N   UNL     1      -7.554   5.367  68.451  1.00  0.00    -0.079 N  
HETATM    3  O   UNL     1      -8.497   4.779  67.921  1.00  0.00    -0.103 OA 
HETATM    4  O   UNL     1      -7.827   6.074  69.652  1.00  0.00    -0.097 OA 
ENDROOT
BRANCH   4   5
HETATM    5  C   UNL     1      -9.202   6.001  70.029  1.00  0.00    -0.149 C  
BRANCH   5   6
HETATM    6  C   UNL     1      -9.894   7.345  69.684  1.00  0.00    -0.175 C  
BRANCH   6   7
HETATM    7  O   UNL     1     -10.418   7.401  68.347  1.00  0.00    -0.195 OA 
HETATM    8  O   UNL     1      -8.700   8.783  67.835  1.00  0.00    -0.135 OA 
HETATM    9  N   UNL     1      -9.689   8.185  67.419  1.00  0.00    -0.159 N  
HETATM   10  O   UNL     1     -10.144   8.120  66.281  1.00  0.00    -0.197 OA 
ENDBRANCH   6   7
BRANCH   6  11
HETATM   11  C   UNL     1     -10.926   7.815  70.746  1.00  0.00    -0.252 C  
BRANCH  11  12
HETATM   12  O   UNL     1     -10.776   7.000  71.914  1.00  0.00    -0.214 OA 
HETATM   13  O   UNL     1     -13.001   6.655  71.779  1.00  0.00    -0.319 OA 
HETATM   14  O   UNL     1     -11.670   5.211  72.840  1.00  0.00    -0.283 OA 
HETATM   15  N   UNL     1     -11.927   6.221  72.193  1.00  0.00    -0.326 N  
ENDBRANCH  11  12
BRANCH  11  16
HETATM   16  C   UNL     1     -10.798   9.312  71.096  1.00  0.00    -0.337 C  
BRANCH  16  17
HETATM   17  O   UNL     1     -10.875  10.126  69.927  1.00  0.00    -0.257 OA 
HETATM   18  N   UNL     1     -12.182  10.671  69.747  1.00  0.00    -0.287 N  
HETATM   19  O   UNL     1     -12.243  11.450  68.799  1.00  0.00    -0.502 OA 
HETATM   20  O   UNL     1     -13.058  10.292  70.521  1.00  0.00    -0.320 OA 
ENDBRANCH  16  17
ENDBRANCH  11  16
ENDBRANCH   6  11
ENDBRANCH   5   6
ENDBRANCH   4   5
TORSDOF 7
ENDMDL
MODEL      277
REMARK 921   NORMALIZED FREE ENERGY PREDICTED BY IDOCK:   -3.09 KCAL/MOL
REMARK 922        TOTAL FREE ENERGY PREDICTED BY IDOCK:   -5.29 KCAL/MOL
REMARK 923 INTER-LIGAND FREE ENERGY PREDICTED BY IDOCK:   -4.33 KCAL/MOL
REMARK 924 INTRA-LIGAND FREE ENERGY PREDICTED BY IDOCK:   -0.96 KCAL/MOL
REMARK 927      BINDING AFFINITY PREDICTED BY RF-SCORE:    0.00 PKD
ROOT
HETATM    1  O   UNL     1     -10.957   4.909  74.323  1.00  0.00    -0.322 OA 
HETATM    2  N   UNL     1     -11.094   5.353  73.186  1.00  0.00    -0.299 N  
HETATM    3  O   UNL     1     -12.109   5.719  72.591  1.00  0.00    -0.212 OA 
HETATM    4  O   UNL     1      -9.864   5.448  72.482  1.00  0.00    -0.161 OA 
ENDROOT
BRANCH   4   5
HETATM    5  C   UNL     1     -10.032   5.938  71.151  1.00  0.00    -0.189 C  
BRANCH   5   6
HETATM    6  C   UNL     1      -9.154   7.202  70.963  1.00  0.00    -0.151 C  
BRANCH   6   7
HETATM    7  O   UNL     1      -7.757   6.918  70.783  1.00  0.00    -0.090 OA 
HETATM    8  O   UNL     1      -7.419   7.750  72.861  1.00  0.00    -0.090 OA 
HETATM    9  N   UNL     1      -6.907   7.228  71.873  1.00  0.00    -0.058 N  
HETATM   10  O   UNL     1      -5.745   6.882  71.684  1.00  0.00    -0.035 OA 
ENDBRANCH   6   7
BRANCH   6  11
HETATM   11  C   UNL     1      -9.699   8.196  69.900  1.00  0.00    -0.176 C  
BRANCH  11  12
HETATM   12  O   UNL     1     -10.764   7.557  69.188  1.00  0.00    -0.214 OA 
HETATM   13  O   UNL     1      -9.719   8.235  67.308  1.00  0.00    -0.154 OA 
HETATM   14  O   UNL     1     -11.118   6.496  67.290  1.00  0.00    -0.378 OA 
HETATM   15  N   UNL     1     -10.498   7.422  67.803  1.00  0.00    -0.226 N  
ENDBRANCH  11  12
BRANCH  11  16
HETATM   16  C   UNL     1     -10.162   9.538  70.505  1.00  0.00    -0.287 C  
BRANCH  16  17
HETATM   17  O   UNL     1     -11.366   9.996  69.890  1.00  0.00    -0.247 OA 
HETATM   18  N   UNL     1     -11.109  11.002  68.911  1.00  0.00    -0.218 N  
HETATM   19  O   UNL     1     -12.123  11.340  68.304  1.00  0.00    -0.619 OA 
HETATM   20  O   UNL     1      -9.953  11.406  68.812  1.00  0.00    -0.206 OA 
ENDBRANCH  16  17
ENDBRANCH  11  16
ENDBRANCH   6  11
ENDBRANCH   5   6
ENDBRANCH   4   5
TORSDOF 7
ENDMDL
MODEL      278
REMARK 921   NORMALIZED FREE ENERGY PREDICTED BY IDOCK:   -3.08 KCAL/MOL
REMARK 922        TOTAL FREE ENERGY PREDICTED BY IDOCK:   -5.27 KCAL/MOL
REMARK 923 INTER-LIGAND FREE ENERGY PREDICTED BY IDOCK:   -5.81 KCAL/MOL
REMARK 924 INTRA-LIGAND FREE ENERGY PREDICTED BY IDOCK:    0.54 KCAL/MOL
REMARK 927      BINDING AFFINITY PREDICTED BY RF-SCORE:    0.00 PKD
ROOT
HETATM    1  O   UNL     1     -12.909  11.532  71.218  1.00  0.00    -0.404 OA 
HETATM    2  N   UNL     1     -12.051  11.302  70.370  1.00  0.00    -0.360 N  
HETATM    3  O   UNL     1     -11.179  10.432  70.337  1.00  0.00    -0.297 OA 
HETATM    4  O   UNL     1     -12.111  12.198  69.271  1.00  0.00    -0.264 OA 
ENDROOT
BRANCH   4   5
HETATM    5  C   UNL     1     -11.094  11.943  68.301  1.00  0.00    -0.239 C  
BRANCH   5   6
HETATM    6  C   UNL     1     -10.173  13.185  68.194  1.00  0.00    -0.239 C  
BRANCH   6   7
HETATM    7  O   UNL     1      -8.783  12.899  68.424  1.00  0.00    -0.178 OA 
HETATM    8  O   UNL     1      -9.133  10.893  67.434  1.00  0.00    -0.140 OA 
HETATM    9  N   UNL     1      -8.314  11.647  67.956  1.00  0.00    -0.141 N  
HETATM   10  O   UNL     1      -7.105  11.505  68.109  1.00  0.00    -0.070 OA 
ENDBRANCH   6   7
BRANCH   6  11
HETATM   11  C   UNL     1     -10.400  14.031  66.911  1.00  0.00    -0.269 C  
BRANCH  11  12
HETATM   12  O   UNL     1      -9.309  14.948  66.775  1.00  0.00    -0.223 OA 
HETATM   13  O   UNL     1     -10.696  16.498  67.646  1.00  0.00    -0.329 OA 
HETATM   14  O   UNL     1      -8.479  16.731  67.769  1.00  0.00    -0.189 OA 
HETATM   15  N   UNL     1      -9.525  16.167  67.464  1.00  0.00    -0.222 N  
ENDBRANCH  11  12
BRANCH  11  16
HETATM   16  C   UNL     1     -10.563  13.171  65.639  1.00  0.00    -0.277 C  
BRANCH  16  17
HETATM   17  O   UNL     1     -11.915  13.169  65.184  1.00  0.00    -0.350 OA 
HETATM   18  N   UNL     1     -12.091  12.318  64.052  1.00  0.00    -0.444 N  
HETATM   19  O   UNL     1     -13.267  12.229  63.706  1.00  0.00    -0.771 OA 
HETATM   20  O   UNL     1     -11.081  11.812  63.570  1.00  0.00    -0.407 OA 
ENDBRANCH  16  17
ENDBRANCH  11  16
ENDBRANCH   6  11
ENDBRANCH   5   6
ENDBRANCH   4   5
TORSDOF 7
ENDMDL
MODEL      279
REMARK 921   NORMALIZED FREE ENERGY PREDICTED BY IDOCK:   -3.07 KCAL/MOL
REMARK 922        TOTAL FREE ENERGY PREDICTED BY IDOCK:   -5.27 KCAL/MOL
REMARK 923 INTER-LIGAND FREE ENERGY PREDICTED BY IDOCK:   -5.65 KCAL/MOL
REMARK 924 INTRA-LIGAND FREE ENERGY PREDICTED BY IDOCK:    0.39 KCAL/MOL
REMARK 927      BINDING AFFINITY PREDICTED BY RF-SCORE:    0.00 PKD
ROOT
HETATM    1  O   UNL     1      -5.713  14.147  69.554  1.00  0.00    -0.091 OA 
HETATM    2  N   UNL     1      -6.230  14.322  68.454  1.00  0.00    -0.094 N  
HETATM    3  O   UNL     1      -5.720  14.360  67.333  1.00  0.00    -0.342 OA 
HETATM    4  O   UNL     1      -7.636  14.499  68.530  1.00  0.00    -0.109 OA 
ENDROOT
BRANCH   4   5
HETATM    5  C   UNL     1      -8.228  14.730  67.251  1.00  0.00    -0.213 C  
BRANCH   5   6
HETATM    6  C   UNL     1      -9.531  15.550  67.436  1.00  0.00    -0.211 C  
BRANCH   6   7
HETATM    7  O   UNL     1     -10.732  14.787  67.230  1.00  0.00    -0.282 OA 
HETATM    8  O   UNL     1     -10.887  15.767  65.194  1.00  0.00    -0.400 OA 
HETATM    9  N   UNL     1     -11.376  14.957  65.980  1.00  0.00    -0.333 N  
HETATM   10  O   UNL     1     -12.344  14.216  65.839  1.00  0.00    -0.448 OA 
ENDBRANCH   6   7
BRANCH   6  11
HETATM   11  C   UNL     1      -9.573  16.379  68.750  1.00  0.00    -0.249 C  
BRANCH  11  12
HETATM   12  O   UNL     1      -8.928  17.635  68.513  1.00  0.00    -0.283 OA 
HETATM   13  O   UNL     1     -10.776  18.199  67.350  1.00  0.00    -0.403 OA 
HETATM   14  O   UNL     1      -9.439  19.758  68.224  1.00  0.00    -0.348 OA 
HETATM   15  N   UNL     1      -9.804  18.613  67.981  1.00  0.00    -0.325 N  
ENDBRANCH  11  12
BRANCH  11  16
HETATM   16  C   UNL     1     -11.004  16.585  69.291  1.00  0.00    -0.302 C  
BRANCH  16  17
HETATM   17  O   UNL     1     -11.088  16.248  70.675  1.00  0.00    -0.341 OA 
HETATM   18  N   UNL     1     -12.050  15.219  70.911  1.00  0.00    -0.312 N  
HETATM   19  O   UNL     1     -12.068  14.850  72.083  1.00  0.00    -0.351 OA 
HETATM   20  O   UNL     1     -12.729  14.858  69.953  1.00  0.00    -0.216 OA 
ENDBRANCH  16  17
ENDBRANCH  11  16
ENDBRANCH   6  11
ENDBRANCH   5   6
ENDBRANCH   4   5
TORSDOF 7
ENDMDL
MODEL      280
REMARK 921   NORMALIZED FREE ENERGY PREDICTED BY IDOCK:   -3.07 KCAL/MOL
REMARK 922        TOTAL FREE ENERGY PREDICTED BY IDOCK:   -5.26 KCAL/MOL
REMARK 923 INTER-LIGAND FREE ENERGY PREDICTED BY IDOCK:   -5.89 KCAL/MOL
REMARK 924 INTRA-LIGAND FREE ENERGY PREDICTED BY IDOCK:    0.62 KCAL/MOL
REMARK 927      BINDING AFFINITY PREDICTED BY RF-SCORE:    0.00 PKD
ROOT
HETATM    1  O   UNL     1     -13.160  12.167  63.339  1.00  0.00    -0.752 OA 
HETATM    2  N   UNL     1     -12.187  12.409  64.048  1.00  0.00    -0.455 N  
HETATM    3  O   UNL     1     -11.046  12.757  63.740  1.00  0.00    -0.410 OA 
HETATM    4  O   UNL     1     -12.464  12.256  65.432  1.00  0.00    -0.596 OA 
ENDROOT
BRANCH   4   5
HETATM    5  C   UNL     1     -11.322  12.512  66.250  1.00  0.00    -0.338 C  
BRANCH   5   6
HETATM    6  C   UNL     1     -10.554  11.184  66.477  1.00  0.00    -0.262 C  
BRANCH   6   7
HETATM    7  O   UNL     1      -9.125  11.338  66.507  1.00  0.00    -0.172 OA 
HETATM    8  O   UNL     1      -9.037   9.957  64.714  1.00  0.00    -0.201 OA 
HETATM    9  N   UNL     1      -8.398  10.655  65.500  1.00  0.00    -0.167 N  
HETATM   10  O   UNL     1      -7.196  10.897  65.533  1.00  0.00    -0.033 OA 
ENDBRANCH   6   7
BRANCH   6  11
HETATM   11  C   UNL     1     -11.084  10.344  67.671  1.00  0.00    -0.293 C  
BRANCH  11  12
HETATM   12  O   UNL     1      -9.991   9.603  68.224  1.00  0.00    -0.147 OA 
HETATM   13  O   UNL     1     -10.984   7.773  67.356  1.00  0.00    -0.189 OA 
HETATM   14  O   UNL     1      -8.796   7.802  67.797  1.00  0.00    -0.126 OA 
HETATM   15  N   UNL     1      -9.927   8.272  67.740  1.00  0.00    -0.175 N  
ENDBRANCH  11  12
BRANCH  11  16
HETATM   16  C   UNL     1     -11.778  11.198  68.753  1.00  0.00    -0.326 C  
BRANCH  16  17
HETATM   17  O   UNL     1     -11.636  12.592  68.484  1.00  0.00    -0.276 OA 
HETATM   18  N   UNL     1     -11.937  13.386  69.631  1.00  0.00    -0.324 N  
HETATM   19  O   UNL     1     -11.728  14.583  69.445  1.00  0.00    -0.281 OA 
HETATM   20  O   UNL     1     -12.370  12.799  70.620  1.00  0.00    -0.360 OA 
ENDBRANCH  16  17
ENDBRANCH  11  16
ENDBRANCH   6  11
ENDBRANCH   5   6
ENDBRANCH   4   5
TORSDOF 7
ENDMDL
MODEL      281
REMARK 921   NORMALIZED FREE ENERGY PREDICTED BY IDOCK:   -3.02 KCAL/MOL
REMARK 922        TOTAL FREE ENERGY PREDICTED BY IDOCK:   -5.20 KCAL/MOL
REMARK 923 INTER-LIGAND FREE ENERGY PREDICTED BY IDOCK:   -4.37 KCAL/MOL
REMARK 924 INTRA-LIGAND FREE ENERGY PREDICTED BY IDOCK:   -0.83 KCAL/MOL
REMARK 927      BINDING AFFINITY PREDICTED BY RF-SCORE:    0.00 PKD
ROOT
HETATM    1  O   UNL     1      -6.176  12.774  69.935  1.00  0.00    -0.129 OA 
HETATM    2  N   UNL     1      -6.572  11.617  69.815  1.00  0.00    -0.110 N  
HETATM    3  O   UNL     1      -6.531  10.676  70.608  1.00  0.00    -0.310 OA 
HETATM    4  O   UNL     1      -7.168  11.370  68.550  1.00  0.00    -0.080 OA 
ENDROOT
BRANCH   4   5
HETATM    5  C   UNL     1      -7.602  10.017  68.405  1.00  0.00    -0.083 C  
BRANCH   5   6
HETATM    6  C   UNL     1      -9.144   9.993  68.251  1.00  0.00    -0.122 C  
BRANCH   6   7
HETATM    7  O   UNL     1      -9.591   9.978  66.884  1.00  0.00    -0.164 OA 
HETATM    8  O   UNL     1     -10.817  11.819  67.367  1.00  0.00    -0.227 OA 
HETATM    9  N   UNL     1     -10.473  11.019  66.500  1.00  0.00    -0.249 N  
HETATM   10  O   UNL     1     -10.746  10.994  65.304  1.00  0.00    -0.246 OA 
ENDBRANCH   6   7
BRANCH   6  11
HETATM   11  C   UNL     1      -9.848   8.912  69.116  1.00  0.00    -0.180 C  
BRANCH  11  12
HETATM   12  O   UNL     1     -11.117   9.425  69.537  1.00  0.00    -0.210 OA 
HETATM   13  O   UNL     1     -10.329   9.238  71.642  1.00  0.00    -0.340 OA 
HETATM   14  O   UNL     1     -11.981  10.657  71.148  1.00  0.00    -0.342 OA 
HETATM   15  N   UNL     1     -11.132   9.806  70.902  1.00  0.00    -0.334 N  
ENDBRANCH  11  12
BRANCH  11  16
HETATM   16  C   UNL     1     -10.011   7.562  68.387  1.00  0.00    -0.170 C  
BRANCH  16  17
HETATM   17  O   UNL     1      -9.488   6.486  69.163  1.00  0.00    -0.136 OA 
HETATM   18  N   UNL     1     -10.521   5.771  69.840  1.00  0.00    -0.262 N  
HETATM   19  O   UNL     1     -10.099   4.783  70.437  1.00  0.00    -0.238 OA 
HETATM   20  O   UNL     1     -11.660   6.225  69.761  1.00  0.00    -0.436 OA 
ENDBRANCH  16  17
ENDBRANCH  11  16
ENDBRANCH   6  11
ENDBRANCH   5   6
ENDBRANCH   4   5
TORSDOF 7
ENDMDL
MODEL      282
REMARK 921   NORMALIZED FREE ENERGY PREDICTED BY IDOCK:   -3.01 KCAL/MOL
REMARK 922        TOTAL FREE ENERGY PREDICTED BY IDOCK:   -5.19 KCAL/MOL
REMARK 923 INTER-LIGAND FREE ENERGY PREDICTED BY IDOCK:   -5.18 KCAL/MOL
REMARK 924 INTRA-LIGAND FREE ENERGY PREDICTED BY IDOCK:   -0.01 KCAL/MOL
REMARK 927      BINDING AFFINITY PREDICTED BY RF-SCORE:    0.00 PKD
ROOT
HETATM    1  O   UNL     1     -13.040  11.599  71.616  1.00  0.00    -0.445 OA 
HETATM    2  N   UNL     1     -12.134  11.271  70.854  1.00  0.00    -0.336 N  
HETATM    3  O   UNL     1     -11.445  10.250  70.833  1.00  0.00    -0.338 OA 
HETATM    4  O   UNL     1     -11.877  12.245  69.855  1.00  0.00    -0.321 OA 
ENDROOT
BRANCH   4   5
HETATM    5  C   UNL     1     -10.804  11.871  68.990  1.00  0.00    -0.190 C  
BRANCH   5   6
HETATM    6  C   UNL     1     -10.372  13.104  68.155  1.00  0.00    -0.244 C  
BRANCH   6   7
HETATM    7  O   UNL     1      -9.935  14.219  68.950  1.00  0.00    -0.221 OA 
HETATM    8  O   UNL     1     -11.508  15.461  67.896  1.00  0.00    -0.335 OA 
HETATM    9  N   UNL     1     -10.627  15.440  68.753  1.00  0.00    -0.228 N  
HETATM   10  O   UNL     1     -10.260  16.324  69.521  1.00  0.00    -0.257 OA 
ENDBRANCH   6   7
BRANCH   6  11
HETATM   11  C   UNL     1      -9.383  12.772  67.004  1.00  0.00    -0.229 C  
BRANCH  11  12
HETATM   12  O   UNL     1      -9.548  13.748  65.970  1.00  0.00    -0.258 OA 
HETATM   13  O   UNL     1     -10.928  12.259  64.988  1.00  0.00    -0.285 OA 
HETATM   14  O   UNL     1     -11.078  14.442  64.543  1.00  0.00    -0.362 OA 
HETATM   15  N   UNL     1     -10.619  13.445  65.093  1.00  0.00    -0.326 N  
ENDBRANCH  11  12
BRANCH  11  16
HETATM   16  C   UNL     1      -7.913  12.702  67.469  1.00  0.00    -0.174 C  
BRANCH  16  17
HETATM   17  O   UNL     1      -7.739  13.335  68.736  1.00  0.00    -0.111 OA 
HETATM   18  N   UNL     1      -6.648  14.255  68.722  1.00  0.00    -0.087 N  
HETATM   19  O   UNL     1      -6.543  14.879  69.775  1.00  0.00    -0.148 OA 
HETATM   20  O   UNL     1      -5.962  14.294  67.704  1.00  0.00    -0.288 OA 
ENDBRANCH  16  17
ENDBRANCH  11  16
ENDBRANCH   6  11
ENDBRANCH   5   6
ENDBRANCH   4   5
TORSDOF 7
ENDMDL
MODEL      283
REMARK 921   NORMALIZED FREE ENERGY PREDICTED BY IDOCK:   -3.00 KCAL/MOL
REMARK 922        TOTAL FREE ENERGY PREDICTED BY IDOCK:   -5.17 KCAL/MOL
REMARK 923 INTER-LIGAND FREE ENERGY PREDICTED BY IDOCK:   -4.78 KCAL/MOL
REMARK 924 INTRA-LIGAND FREE ENERGY PREDICTED BY IDOCK:   -0.39 KCAL/MOL
REMARK 927      BINDING AFFINITY PREDICTED BY RF-SCORE:    0.00 PKD
ROOT
HETATM    1  O   UNL     1     -13.107   7.358  71.629  1.00  0.00    -0.353 OA 
HETATM    2  N   UNL     1     -12.144   7.224  70.879  1.00  0.00    -0.312 N  
HETATM    3  O   UNL     1     -11.904   6.354  70.041  1.00  0.00    -0.404 OA 
HETATM    4  O   UNL     1     -11.182   8.258  71.030  1.00  0.00    -0.249 OA 
ENDROOT
BRANCH   4   5
HETATM    5  C   UNL     1     -10.052   8.082  70.176  1.00  0.00    -0.194 C  
BRANCH   5   6
HETATM    6  C   UNL     1      -9.509   9.474  69.761  1.00  0.00    -0.210 C  
BRANCH   6   7
HETATM    7  O   UNL     1      -8.081   9.515  69.596  1.00  0.00    -0.101 OA 
HETATM    8  O   UNL     1      -7.913   9.313  71.844  1.00  0.00    -0.276 OA 
HETATM    9  N   UNL     1      -7.309   9.397  70.777  1.00  0.00    -0.126 N  
HETATM   10  O   UNL     1      -6.103   9.355  70.555  1.00  0.00    -0.046 OA 
ENDBRANCH   6   7
BRANCH   6  11
HETATM   11  C   UNL     1     -10.263  10.113  68.562  1.00  0.00    -0.174 C  
BRANCH  11  12
HETATM   12  O   UNL     1     -10.553   9.084  67.610  1.00  0.00    -0.257 OA 
HETATM   13  O   UNL     1      -8.858   9.940  66.391  1.00  0.00    -0.140 OA 
HETATM   14  O   UNL     1      -9.514   7.821  66.133  1.00  0.00    -0.157 OA 
HETATM   15  N   UNL     1      -9.542   8.944  66.626  1.00  0.00    -0.198 N  
ENDBRANCH  11  12
BRANCH  11  16
HETATM   16  C   UNL     1     -11.548  10.858  68.981  1.00  0.00    -0.316 C  
BRANCH  16  17
HETATM   17  O   UNL     1     -11.375  12.272  68.908  1.00  0.00    -0.246 OA 
HETATM   18  N   UNL     1     -11.915  12.809  67.701  1.00  0.00    -0.331 N  
HETATM   19  O   UNL     1     -11.861  14.036  67.663  1.00  0.00    -0.357 OA 
HETATM   20  O   UNL     1     -12.335  12.007  66.870  1.00  0.00    -0.334 OA 
ENDBRANCH  16  17
ENDBRANCH  11  16
ENDBRANCH   6  11
ENDBRANCH   5   6
ENDBRANCH   4   5
TORSDOF 7
ENDMDL
MODEL      284
REMARK 921   NORMALIZED FREE ENERGY PREDICTED BY IDOCK:   -3.00 KCAL/MOL
REMARK 922        TOTAL FREE ENERGY PREDICTED BY IDOCK:   -5.17 KCAL/MOL
REMARK 923 INTER-LIGAND FREE ENERGY PREDICTED BY IDOCK:   -4.07 KCAL/MOL
REMARK 924 INTRA-LIGAND FREE ENERGY PREDICTED BY IDOCK:   -1.10 KCAL/MOL
REMARK 927      BINDING AFFINITY PREDICTED BY RF-SCORE:    0.00 PKD
ROOT
HETATM    1  O   UNL     1      -6.824   6.648  70.011  1.00  0.00    -0.051 OA 
HETATM    2  N   UNL     1      -7.070   7.846  69.901  1.00  0.00    -0.060 N  
HETATM    3  O   UNL     1      -6.354   8.773  69.518  1.00  0.00    -0.042 OA 
HETATM    4  O   UNL     1      -8.399   8.172  70.279  1.00  0.00    -0.119 OA 
ENDROOT
BRANCH   4   5
HETATM    5  C   UNL     1      -8.671   9.570  70.175  1.00  0.00    -0.230 C  
BRANCH   5   6
HETATM    6  C   UNL     1      -9.937   9.777  69.306  1.00  0.00    -0.192 C  
BRANCH   6   7
HETATM    7  O   UNL     1     -10.677  10.966  69.631  1.00  0.00    -0.238 OA 
HETATM    8  O   UNL     1     -12.108   9.643  70.784  1.00  0.00    -0.279 OA 
HETATM    9  N   UNL     1     -11.818  10.791  70.453  1.00  0.00    -0.329 N  
HETATM   10  O   UNL     1     -12.351  11.853  70.759  1.00  0.00    -0.374 OA 
ENDBRANCH   6   7
BRANCH   6  11
HETATM   11  C   UNL     1      -9.686   9.634  67.779  1.00  0.00    -0.146 C  
BRANCH  11  12
HETATM   12  O   UNL     1      -9.806   8.251  67.428  1.00  0.00    -0.161 OA 
HETATM   13  O   UNL     1      -7.901   8.535  66.254  1.00  0.00    -0.095 OA 
HETATM   14  O   UNL     1      -8.526   6.516  66.973  1.00  0.00    -0.112 OA 
HETATM   15  N   UNL     1      -8.631   7.731  66.832  1.00  0.00    -0.127 N  
ENDBRANCH  11  12
BRANCH  11  16
HETATM   16  C   UNL     1     -10.630  10.507  66.925  1.00  0.00    -0.243 C  
BRANCH  16  17
HETATM   17  O   UNL     1     -10.018  11.748  66.580  1.00  0.00    -0.196 OA 
HETATM   18  N   UNL     1     -10.951  12.828  66.626  1.00  0.00    -0.264 N  
HETATM   19  O   UNL     1     -10.421  13.918  66.425  1.00  0.00    -0.277 OA 
HETATM   20  O   UNL     1     -12.127  12.543  66.833  1.00  0.00    -0.537 OA 
ENDBRANCH  16  17
ENDBRANCH  11  16
ENDBRANCH   6  11
ENDBRANCH   5   6
ENDBRANCH   4   5
TORSDOF 7
ENDMDL
MODEL      285
REMARK 921   NORMALIZED FREE ENERGY PREDICTED BY IDOCK:   -2.98 KCAL/MOL
REMARK 922        TOTAL FREE ENERGY PREDICTED BY IDOCK:   -5.14 KCAL/MOL
REMARK 923 INTER-LIGAND FREE ENERGY PREDICTED BY IDOCK:   -4.19 KCAL/MOL
REMARK 924 INTRA-LIGAND FREE ENERGY PREDICTED BY IDOCK:   -0.96 KCAL/MOL
REMARK 927      BINDING AFFINITY PREDICTED BY RF-SCORE:    0.00 PKD
ROOT
HETATM    1  O   UNL     1      -6.219   6.911  67.498  1.00  0.00    -0.034 OA 
HETATM    2  N   UNL     1      -7.345   7.109  67.048  1.00  0.00    -0.087 N  
HETATM    3  O   UNL     1      -7.932   6.570  66.108  1.00  0.00    -0.102 OA 
HETATM    4  O   UNL     1      -8.048   8.120  67.755  1.00  0.00    -0.124 OA 
ENDROOT
BRANCH   4   5
HETATM    5  C   UNL     1      -9.345   8.365  67.211  1.00  0.00    -0.146 C  
BRANCH   5   6
HETATM    6  C   UNL     1      -9.277   9.600  66.276  1.00  0.00    -0.168 C  
BRANCH   6   7
HETATM    7  O   UNL     1      -9.483   9.288  64.887  1.00  0.00    -0.178 OA 
HETATM    8  O   UNL     1      -7.281   9.710  64.568  1.00  0.00    -0.110 OA 
HETATM    9  N   UNL     1      -8.339   9.354  64.053  1.00  0.00    -0.163 N  
HETATM   10  O   UNL     1      -8.569   8.995  62.902  1.00  0.00    -0.208 OA 
ENDBRANCH   6   7
BRANCH   6  11
HETATM   11  C   UNL     1     -10.145  10.799  66.748  1.00  0.00    -0.222 C  
BRANCH  11  12
HETATM   12  O   UNL     1     -10.155  10.813  68.180  1.00  0.00    -0.157 OA 
HETATM   13  O   UNL     1     -12.391  11.052  68.017  1.00  0.00    -0.310 OA 
HETATM   14  O   UNL     1     -11.450  10.211  69.858  1.00  0.00    -0.253 OA 
HETATM   15  N   UNL     1     -11.456  10.679  68.724  1.00  0.00    -0.272 N  
ENDBRANCH  11  12
BRANCH  11  16
HETATM   16  C   UNL     1      -9.668  12.153  66.184  1.00  0.00    -0.240 C  
BRANCH  16  17
HETATM   17  O   UNL     1     -10.755  13.065  66.035  1.00  0.00    -0.270 OA 
HETATM   18  N   UNL     1     -10.998  13.378  64.664  1.00  0.00    -0.356 N  
HETATM   19  O   UNL     1     -11.991  14.087  64.510  1.00  0.00    -0.404 OA 
HETATM   20  O   UNL     1     -10.205  12.934  63.838  1.00  0.00    -0.383 OA 
ENDBRANCH  16  17
ENDBRANCH  11  16
ENDBRANCH   6  11
ENDBRANCH   5   6
ENDBRANCH   4   5
TORSDOF 7
ENDMDL
MODEL      286
REMARK 921   NORMALIZED FREE ENERGY PREDICTED BY IDOCK:   -2.96 KCAL/MOL
REMARK 922        TOTAL FREE ENERGY PREDICTED BY IDOCK:   -5.10 KCAL/MOL
REMARK 923 INTER-LIGAND FREE ENERGY PREDICTED BY IDOCK:   -4.00 KCAL/MOL
REMARK 924 INTRA-LIGAND FREE ENERGY PREDICTED BY IDOCK:   -1.11 KCAL/MOL
REMARK 927      BINDING AFFINITY PREDICTED BY RF-SCORE:    0.00 PKD
ROOT
HETATM    1  O   UNL     1     -11.901  12.566  70.000  1.00  0.00    -0.331 OA 
HETATM    2  N   UNL     1     -11.804  11.791  69.052  1.00  0.00    -0.315 N  
HETATM    3  O   UNL     1     -12.255  11.874  67.909  1.00  0.00    -0.508 OA 
HETATM    4  O   UNL     1     -11.041  10.635  69.364  1.00  0.00    -0.223 OA 
ENDROOT
BRANCH   4   5
HETATM    5  C   UNL     1     -10.955   9.724  68.267  1.00  0.00    -0.164 C  
BRANCH   5   6
HETATM    6  C   UNL     1      -9.518   9.765  67.687  1.00  0.00    -0.144 C  
BRANCH   6   7
HETATM    7  O   UNL     1      -8.732  10.872  68.160  1.00  0.00    -0.124 OA 
HETATM    8  O   UNL     1      -9.237  11.932  66.224  1.00  0.00    -0.219 OA 
HETATM    9  N   UNL     1      -8.661  12.002  67.308  1.00  0.00    -0.167 N  
HETATM   10  O   UNL     1      -8.047  12.938  67.810  1.00  0.00    -0.140 OA 
ENDBRANCH   6   7
BRANCH   6  11
HETATM   11  C   UNL     1      -8.759   8.413  67.785  1.00  0.00    -0.137 C  
BRANCH  11  12
HETATM   12  O   UNL     1      -8.073   8.188  66.549  1.00  0.00    -0.102 OA 
HETATM   13  O   UNL     1      -9.192   6.232  66.454  1.00  0.00    -0.153 OA 
HETATM   14  O   UNL     1      -8.393   7.198  64.607  1.00  0.00    -0.071 OA 
HETATM   15  N   UNL     1      -8.611   7.105  65.810  1.00  0.00    -0.149 N  
ENDBRANCH  11  12
BRANCH  11  16
HETATM   16  C   UNL     1      -7.783   8.351  68.979  1.00  0.00    -0.097 C  
BRANCH  16  17
HETATM   17  O   UNL     1      -8.477   8.131  70.206  1.00  0.00    -0.122 OA 
HETATM   18  N   UNL     1      -8.127   9.100  71.193  1.00  0.00    -0.139 N  
HETATM   19  O   UNL     1      -8.786   8.983  72.224  1.00  0.00    -0.363 OA 
HETATM   20  O   UNL     1      -7.231   9.891  70.909  1.00  0.00    -0.330 OA 
ENDBRANCH  16  17
ENDBRANCH  11  16
ENDBRANCH   6  11
ENDBRANCH   5   6
ENDBRANCH   4   5
TORSDOF 7
ENDMDL
MODEL      287
REMARK 921   NORMALIZED FREE ENERGY PREDICTED BY IDOCK:   -2.95 KCAL/MOL
REMARK 922        TOTAL FREE ENERGY PREDICTED BY IDOCK:   -5.09 KCAL/MOL
REMARK 923 INTER-LIGAND FREE ENERGY PREDICTED BY IDOCK:   -4.78 KCAL/MOL
REMARK 924 INTRA-LIGAND FREE ENERGY PREDICTED BY IDOCK:   -0.31 KCAL/MOL
REMARK 927      BINDING AFFINITY PREDICTED BY RF-SCORE:    0.00 PKD
ROOT
HETATM    1  O   UNL     1      -5.898  10.899  71.470  1.00  0.00    -0.338 OA 
HETATM    2  N   UNL     1      -6.532   9.849  71.518  1.00  0.00     0.235 N  
HETATM    3  O   UNL     1      -6.469   8.917  72.321  1.00  0.00    -0.189 OA 
HETATM    4  O   UNL     1      -7.479   9.731  70.466  1.00  0.00    -0.177 OA 
ENDROOT
BRANCH   4   5
HETATM    5  C   UNL     1      -8.194   8.496  70.509  1.00  0.00    -0.115 C  
BRANCH   5   6
HETATM    6  C   UNL     1      -9.429   8.592  69.578  1.00  0.00    -0.162 C  
BRANCH   6   7
HETATM    7  O   UNL     1     -10.113   7.342  69.388  1.00  0.00    -0.177 OA 
HETATM    8  O   UNL     1      -9.525   7.463  67.206  1.00  0.00    -0.137 OA 
HETATM    9  N   UNL     1     -10.087   6.804  68.078  1.00  0.00    -0.151 N  
HETATM   10  O   UNL     1     -10.615   5.699  68.007  1.00  0.00    -0.221 OA 
ENDBRANCH   6   7
BRANCH   6  11
HETATM   11  C   UNL     1     -10.401   9.751  69.936  1.00  0.00    -0.254 C  
BRANCH  11  12
HETATM   12  O   UNL     1     -11.290   9.953  68.833  1.00  0.00    -0.136 OA 
HETATM   13  O   UNL     1     -11.400  12.103  69.505  1.00  0.00    -0.257 OA 
HETATM   14  O   UNL     1     -11.855  11.526  67.397  1.00  0.00    -0.607 OA 
HETATM   15  N   UNL     1     -11.529  11.324  68.562  1.00  0.00    -0.277 N  
ENDBRANCH  11  12
BRANCH  11  16
HETATM   16  C   UNL     1     -11.186   9.502  71.242  1.00  0.00    -0.382 C  
BRANCH  16  17
HETATM   17  O   UNL     1     -12.076   8.395  71.109  1.00  0.00    -0.289 OA 
HETATM   18  N   UNL     1     -13.293   8.608  71.824  1.00  0.00    -0.357 N  
HETATM   19  O   UNL     1     -14.110   7.707  71.643  1.00  0.00    -0.401 OA 
HETATM   20  O   UNL     1     -13.365   9.617  72.520  1.00  0.00    -0.390 OA 
ENDBRANCH  16  17
ENDBRANCH  11  16
ENDBRANCH   6  11
ENDBRANCH   5   6
ENDBRANCH   4   5
TORSDOF 7
ENDMDL
MODEL      288
REMARK 921   NORMALIZED FREE ENERGY PREDICTED BY IDOCK:   -2.94 KCAL/MOL
REMARK 922        TOTAL FREE ENERGY PREDICTED BY IDOCK:   -5.09 KCAL/MOL
REMARK 923 INTER-LIGAND FREE ENERGY PREDICTED BY IDOCK:   -4.18 KCAL/MOL
REMARK 924 INTRA-LIGAND FREE ENERGY PREDICTED BY IDOCK:   -0.91 KCAL/MOL
REMARK 927      BINDING AFFINITY PREDICTED BY RF-SCORE:    0.00 PKD
ROOT
HETATM    1  O   UNL     1      -7.427   7.857  68.842  1.00  0.00    -0.090 OA 
HETATM    2  N   UNL     1      -7.876   8.645  68.013  1.00  0.00    -0.102 N  
HETATM    3  O   UNL     1      -8.778   8.502  67.187  1.00  0.00    -0.127 OA 
HETATM    4  O   UNL     1      -7.228   9.908  68.050  1.00  0.00    -0.081 OA 
ENDROOT
BRANCH   4   5
HETATM    5  C   UNL     1      -7.734  10.811  67.067  1.00  0.00    -0.121 C  
BRANCH   5   6
HETATM    6  C   UNL     1      -8.537  11.933  67.774  1.00  0.00    -0.154 C  
BRANCH   6   7
HETATM    7  O   UNL     1      -7.937  13.235  67.662  1.00  0.00    -0.148 OA 
HETATM    8  O   UNL     1      -7.256  12.998  69.809  1.00  0.00     0.345 OA 
HETATM    9  N   UNL     1      -7.249  13.710  68.807  1.00  0.00    -0.102 N  
HETATM   10  O   UNL     1      -6.692  14.786  68.614  1.00  0.00    -0.083 OA 
ENDBRANCH   6   7
BRANCH   6  11
HETATM   11  C   UNL     1     -10.050  11.946  67.421  1.00  0.00    -0.196 C  
BRANCH  11  12
HETATM   12  O   UNL     1     -10.698  12.923  68.242  1.00  0.00    -0.228 OA 
HETATM   13  O   UNL     1     -12.126  11.276  68.820  1.00  0.00    -0.508 OA 
HETATM   14  O   UNL     1     -11.814  13.051  70.138  1.00  0.00    -0.313 OA 
HETATM   15  N   UNL     1     -11.628  12.353  69.146  1.00  0.00    -0.294 N  
ENDBRANCH  11  12
BRANCH  11  16
HETATM   16  C   UNL     1     -10.321  12.211  65.925  1.00  0.00    -0.255 C  
BRANCH  16  17
HETATM   17  O   UNL     1     -11.718  12.353  65.669  1.00  0.00    -0.381 OA 
HETATM   18  N   UNL     1     -12.039  13.661  65.197  1.00  0.00    -0.381 N  
HETATM   19  O   UNL     1     -13.221  13.772  64.880  1.00  0.00    -0.627 OA 
HETATM   20  O   UNL     1     -11.132  14.489  65.184  1.00  0.00    -0.330 OA 
ENDBRANCH  16  17
ENDBRANCH  11  16
ENDBRANCH   6  11
ENDBRANCH   5   6
ENDBRANCH   4   5
TORSDOF 7
ENDMDL
MODEL      289
REMARK 921   NORMALIZED FREE ENERGY PREDICTED BY IDOCK:   -2.94 KCAL/MOL
REMARK 922        TOTAL FREE ENERGY PREDICTED BY IDOCK:   -5.09 KCAL/MOL
REMARK 923 INTER-LIGAND FREE ENERGY PREDICTED BY IDOCK:   -4.26 KCAL/MOL
REMARK 924 INTRA-LIGAND FREE ENERGY PREDICTED BY IDOCK:   -0.83 KCAL/MOL
REMARK 927      BINDING AFFINITY PREDICTED BY RF-SCORE:    0.00 PKD
ROOT
HETATM    1  O   UNL     1     -12.135  11.694  65.982  1.00  0.00    -0.279 OA 
HETATM    2  N   UNL     1     -11.311  11.561  66.883  1.00  0.00    -0.298 N  
HETATM    3  O   UNL     1     -10.160  11.990  66.976  1.00  0.00    -0.202 OA 
HETATM    4  O   UNL     1     -11.803  10.791  67.969  1.00  0.00    -0.546 OA 
ENDROOT
BRANCH   4   5
HETATM    5  C   UNL     1     -10.832  10.617  69.001  1.00  0.00    -0.235 C  
BRANCH   5   6
HETATM    6  C   UNL     1     -10.160   9.230  68.835  1.00  0.00    -0.195 C  
BRANCH   6   7
HETATM    7  O   UNL     1     -10.487   8.570  67.601  1.00  0.00    -0.244 OA 
HETATM    8  O   UNL     1     -10.960   6.725  68.826  1.00  0.00    -0.239 OA 
HETATM    9  N   UNL     1     -10.931   7.228  67.704  1.00  0.00    -0.159 N  
HETATM   10  O   UNL     1     -11.273   6.755  66.625  1.00  0.00    -0.205 OA 
ENDBRANCH   6   7
BRANCH   6  11
HETATM   11  C   UNL     1      -8.632   9.230  69.120  1.00  0.00    -0.134 C  
BRANCH  11  12
HETATM   12  O   UNL     1      -8.238  10.560  69.474  1.00  0.00    -0.151 OA 
HETATM   13  O   UNL     1      -6.500  10.263  68.068  1.00  0.00    -0.060 OA 
HETATM   14  O   UNL     1      -7.232  12.308  68.585  1.00  0.00    -0.098 OA 
HETATM   15  N   UNL     1      -7.231  11.081  68.624  1.00  0.00    -0.084 N  
ENDBRANCH  11  12
BRANCH  11  16
HETATM   16  C   UNL     1      -8.218   8.221  70.211  1.00  0.00    -0.121 C  
BRANCH  16  17
HETATM   17  O   UNL     1      -9.304   7.933  71.090  1.00  0.00    -0.148 OA 
HETATM   18  N   UNL     1      -9.045   8.390  72.418  1.00  0.00    -0.239 N  
HETATM   19  O   UNL     1     -10.008   8.237  73.166  1.00  0.00    -0.246 OA 
HETATM   20  O   UNL     1      -7.928   8.846  72.645  1.00  0.00    -0.377 OA 
ENDBRANCH  16  17
ENDBRANCH  11  16
ENDBRANCH   6  11
ENDBRANCH   5   6
ENDBRANCH   4   5
TORSDOF 7
ENDMDL
MODEL      290
REMARK 921   NORMALIZED FREE ENERGY PREDICTED BY IDOCK:   -2.94 KCAL/MOL
REMARK 922        TOTAL FREE ENERGY PREDICTED BY IDOCK:   -5.08 KCAL/MOL
REMARK 923 INTER-LIGAND FREE ENERGY PREDICTED BY IDOCK:   -4.19 KCAL/MOL
REMARK 924 INTRA-LIGAND FREE ENERGY PREDICTED BY IDOCK:   -0.89 KCAL/MOL
REMARK 927      BINDING AFFINITY PREDICTED BY RF-SCORE:    0.00 PKD
ROOT
HETATM    1  O   UNL     1     -10.522   4.396  72.430  1.00  0.00    -0.190 OA 
HETATM    2  N   UNL     1     -10.982   5.490  72.112  1.00  0.00    -0.243 N  
HETATM    3  O   UNL     1     -11.484   6.374  72.808  1.00  0.00    -0.229 OA 
HETATM    4  O   UNL     1     -10.899   5.735  70.716  1.00  0.00    -0.271 OA 
ENDROOT
BRANCH   4   5
HETATM    5  C   UNL     1     -11.460   6.996  70.349  1.00  0.00    -0.310 C  
BRANCH   5   6
HETATM    6  C   UNL     1     -10.680   7.564  69.135  1.00  0.00    -0.151 C  
BRANCH   6   7
HETATM    7  O   UNL     1     -11.124   7.051  67.868  1.00  0.00    -0.160 OA 
HETATM    8  O   UNL     1      -9.392   5.595  67.960  1.00  0.00    -0.107 OA 
HETATM    9  N   UNL     1     -10.377   5.975  67.329  1.00  0.00    -0.192 N  
HETATM   10  O   UNL     1     -10.859   5.533  66.291  1.00  0.00    -0.232 OA 
ENDBRANCH   6   7
BRANCH   6  11
HETATM   11  C   UNL     1     -10.550   9.112  69.136  1.00  0.00    -0.208 C  
BRANCH  11  12
HETATM   12  O   UNL     1     -11.238   9.622  70.283  1.00  0.00    -0.246 OA 
HETATM   13  O   UNL     1     -12.249  11.050  68.859  1.00  0.00    -0.519 OA 
HETATM   14  O   UNL     1     -13.179  10.518  70.818  1.00  0.00    -0.335 OA 
HETATM   15  N   UNL     1     -12.320  10.473  69.944  1.00  0.00    -0.236 N  
ENDBRANCH  11  12
BRANCH  11  16
HETATM   16  C   UNL     1      -9.086   9.598  69.106  1.00  0.00    -0.154 C  
BRANCH  16  17
HETATM   17  O   UNL     1      -8.205   8.566  68.668  1.00  0.00    -0.119 OA 
HETATM   18  N   UNL     1      -7.787   8.765  67.318  1.00  0.00    -0.097 N  
HETATM   19  O   UNL     1      -6.954   7.938  66.954  1.00  0.00    -0.070 OA 
HETATM   20  O   UNL     1      -8.307   9.692  66.702  1.00  0.00    -0.122 OA 
ENDBRANCH  16  17
ENDBRANCH  11  16
ENDBRANCH   6  11
ENDBRANCH   5   6
ENDBRANCH   4   5
TORSDOF 7
ENDMDL
MODEL      291
REMARK 921   NORMALIZED FREE ENERGY PREDICTED BY IDOCK:   -2.94 KCAL/MOL
REMARK 922        TOTAL FREE ENERGY PREDICTED BY IDOCK:   -5.08 KCAL/MOL
REMARK 923 INTER-LIGAND FREE ENERGY PREDICTED BY IDOCK:   -4.40 KCAL/MOL
REMARK 924 INTRA-LIGAND FREE ENERGY PREDICTED BY IDOCK:   -0.68 KCAL/MOL
REMARK 927      BINDING AFFINITY PREDICTED BY RF-SCORE:    0.00 PKD
ROOT
HETATM    1  O   UNL     1     -10.028  10.155  64.654  1.00  0.00    -0.328 OA 
HETATM    2  N   UNL     1      -9.662   9.590  65.682  1.00  0.00    -0.289 N  
HETATM    3  O   UNL     1      -9.956   8.480  66.127  1.00  0.00    -0.239 OA 
HETATM    4  O   UNL     1      -8.757  10.373  66.446  1.00  0.00    -0.136 OA 
ENDROOT
BRANCH   4   5
HETATM    5  C   UNL     1      -8.357   9.724  67.654  1.00  0.00    -0.114 C  
BRANCH   5   6
HETATM    6  C   UNL     1      -9.048  10.419  68.855  1.00  0.00    -0.173 C  
BRANCH   6   7
HETATM    7  O   UNL     1      -9.943  11.479  68.477  1.00  0.00    -0.196 OA 
HETATM    8  O   UNL     1      -8.166  12.880  68.568  1.00  0.00    -0.139 OA 
HETATM    9  N   UNL     1      -9.366  12.764  68.325  1.00  0.00    -0.210 N  
HETATM   10  O   UNL     1     -10.167  13.601  67.920  1.00  0.00    -0.239 OA 
ENDBRANCH   6   7
BRANCH   6  11
HETATM   11  C   UNL     1      -9.691   9.434  69.870  1.00  0.00    -0.212 C  
BRANCH  11  12
HETATM   12  O   UNL     1      -9.111   9.668  71.157  1.00  0.00    -0.172 OA 
HETATM   13  O   UNL     1      -8.602   7.471  71.166  1.00  0.00    -0.120 OA 
HETATM   14  O   UNL     1      -7.463   8.926  72.418  1.00  0.00    -0.342 OA 
HETATM   15  N   UNL     1      -8.321   8.582  71.612  1.00  0.00    -0.155 N  
ENDBRANCH  11  12
BRANCH  11  16
HETATM   16  C   UNL     1     -11.229   9.541  69.928  1.00  0.00    -0.178 C  
BRANCH  16  17
HETATM   17  O   UNL     1     -11.805   8.405  70.569  1.00  0.00    -0.163 OA 
HETATM   18  N   UNL     1     -12.942   8.761  71.356  1.00  0.00    -0.301 N  
HETATM   19  O   UNL     1     -13.507   7.782  71.839  1.00  0.00    -0.320 OA 
HETATM   20  O   UNL     1     -13.194   9.958  71.465  1.00  0.00    -0.373 OA 
ENDBRANCH  16  17
ENDBRANCH  11  16
ENDBRANCH   6  11
ENDBRANCH   5   6
ENDBRANCH   4   5
TORSDOF 7
ENDMDL
MODEL      292
REMARK 921   NORMALIZED FREE ENERGY PREDICTED BY IDOCK:   -2.93 KCAL/MOL
REMARK 922        TOTAL FREE ENERGY PREDICTED BY IDOCK:   -5.07 KCAL/MOL
REMARK 923 INTER-LIGAND FREE ENERGY PREDICTED BY IDOCK:   -6.54 KCAL/MOL
REMARK 924 INTRA-LIGAND FREE ENERGY PREDICTED BY IDOCK:    1.47 KCAL/MOL
REMARK 927      BINDING AFFINITY PREDICTED BY RF-SCORE:    0.00 PKD
ROOT
HETATM    1  O   UNL     1      -8.039  10.116  65.205  1.00  0.00    -0.138 OA 
HETATM    2  N   UNL     1      -9.175  10.572  65.313  1.00  0.00    -0.187 N  
HETATM    3  O   UNL     1     -10.196  10.060  65.773  1.00  0.00    -0.265 OA 
HETATM    4  O   UNL     1      -9.282  11.900  64.824  1.00  0.00     0.063 OA 
ENDROOT
BRANCH   4   5
HETATM    5  C   UNL     1     -10.610  12.415  64.927  1.00  0.00    -0.294 C  
BRANCH   5   6
HETATM    6  C   UNL     1     -10.616  13.606  65.920  1.00  0.00    -0.289 C  
BRANCH   6   7
HETATM    7  O   UNL     1     -10.352  14.878  65.303  1.00  0.00    -0.351 OA 
HETATM    8  O   UNL     1     -12.527  14.915  64.675  1.00  0.00    -0.403 OA 
HETATM    9  N   UNL     1     -11.453  15.514  64.679  1.00  0.00    -0.382 N  
HETATM   10  O   UNL     1     -11.178  16.629  64.249  1.00  0.00    -1.098 OA 
ENDBRANCH   6   7
BRANCH   6  11
HETATM   11  C   UNL     1     -11.860  13.645  66.850  1.00  0.00    -0.411 C  
BRANCH  11  12
HETATM   12  O   UNL     1     -12.249  12.299  67.143  1.00  0.00    -0.506 OA 
HETATM   13  O   UNL     1     -10.295  12.132  68.258  1.00  0.00    -0.201 OA 
HETATM   14  O   UNL     1     -12.015  10.790  68.731  1.00  0.00    -0.414 OA 
HETATM   15  N   UNL     1     -11.439  11.695  68.137  1.00  0.00    -0.291 N  
ENDBRANCH  11  12
BRANCH  11  16
HETATM   16  C   UNL     1     -11.622  14.447  68.147  1.00  0.00    -0.329 C  
BRANCH  16  17
HETATM   17  O   UNL     1     -11.587  15.850  67.891  1.00  0.00    -0.256 OA 
HETATM   18  N   UNL     1     -10.311  16.412  68.196  1.00  0.00    -0.271 N  
HETATM   19  O   UNL     1     -10.233  17.600  67.892  1.00  0.00    -0.321 OA 
HETATM   20  O   UNL     1      -9.485  15.672  68.724  1.00  0.00    -0.193 OA 
ENDBRANCH  16  17
ENDBRANCH  11  16
ENDBRANCH   6  11
ENDBRANCH   5   6
ENDBRANCH   4   5
TORSDOF 7
ENDMDL
MODEL      293
REMARK 921   NORMALIZED FREE ENERGY PREDICTED BY IDOCK:   -2.92 KCAL/MOL
REMARK 922        TOTAL FREE ENERGY PREDICTED BY IDOCK:   -5.06 KCAL/MOL
REMARK 923 INTER-LIGAND FREE ENERGY PREDICTED BY IDOCK:   -4.14 KCAL/MOL
REMARK 924 INTRA-LIGAND FREE ENERGY PREDICTED BY IDOCK:   -0.91 KCAL/MOL
REMARK 927      BINDING AFFINITY PREDICTED BY RF-SCORE:    0.00 PKD
ROOT
HETATM    1  O   UNL     1      -9.718   3.835  74.190  1.00  0.00    -0.102 OA 
HETATM    2  N   UNL     1      -9.745   4.034  72.978  1.00  0.00    -0.126 N  
HETATM    3  O   UNL     1     -10.400   3.477  72.095  1.00  0.00    -0.133 OA 
HETATM    4  O   UNL     1      -8.875   5.081  72.574  1.00  0.00    -0.122 OA 
ENDROOT
BRANCH   4   5
HETATM    5  C   UNL     1      -8.889   5.289  71.161  1.00  0.00    -0.135 C  
BRANCH   5   6
HETATM    6  C   UNL     1      -9.499   6.682  70.861  1.00  0.00    -0.164 C  
BRANCH   6   7
HETATM    7  O   UNL     1      -8.590   7.585  70.206  1.00  0.00    -0.140 OA 
HETATM    8  O   UNL     1      -8.842   8.970  71.979  1.00  0.00    -0.373 OA 
HETATM    9  N   UNL     1      -8.282   8.780  70.902  1.00  0.00    -0.144 N  
HETATM   10  O   UNL     1      -7.439   9.461  70.327  1.00  0.00    -0.093 OA 
ENDBRANCH   6   7
BRANCH   6  11
HETATM   11  C   UNL     1     -10.886   6.628  70.163  1.00  0.00    -0.279 C  
BRANCH  11  12
HETATM   12  O   UNL     1     -11.624   7.798  70.532  1.00  0.00    -0.253 OA 
HETATM   13  O   UNL     1     -12.742   6.461  71.963  1.00  0.00    -0.281 OA 
HETATM   14  O   UNL     1     -12.626   8.666  72.292  1.00  0.00    -0.365 OA 
HETATM   15  N   UNL     1     -12.398   7.613  71.705  1.00  0.00    -0.314 N  
ENDBRANCH  11  12
BRANCH  11  16
HETATM   16  C   UNL     1     -10.788   6.496  68.628  1.00  0.00    -0.295 C  
BRANCH  16  17
HETATM   17  O   UNL     1     -10.875   7.769  67.991  1.00  0.00    -0.115 OA 
HETATM   18  N   UNL     1     -10.058   7.832  66.822  1.00  0.00    -0.270 N  
HETATM   19  O   UNL     1     -10.194   8.888  66.208  1.00  0.00    -0.284 OA 
HETATM   20  O   UNL     1      -9.333   6.868  66.593  1.00  0.00    -0.154 OA 
ENDBRANCH  16  17
ENDBRANCH  11  16
ENDBRANCH   6  11
ENDBRANCH   5   6
ENDBRANCH   4   5
TORSDOF 7
ENDMDL
MODEL      294
REMARK 921   NORMALIZED FREE ENERGY PREDICTED BY IDOCK:   -2.92 KCAL/MOL
REMARK 922        TOTAL FREE ENERGY PREDICTED BY IDOCK:   -5.05 KCAL/MOL
REMARK 923 INTER-LIGAND FREE ENERGY PREDICTED BY IDOCK:   -4.23 KCAL/MOL
REMARK 924 INTRA-LIGAND FREE ENERGY PREDICTED BY IDOCK:   -0.83 KCAL/MOL
REMARK 927      BINDING AFFINITY PREDICTED BY RF-SCORE:    0.00 PKD
ROOT
HETATM    1  O   UNL     1      -6.054   7.132  69.812  1.00  0.00    -0.026 OA 
HETATM    2  N   UNL     1      -6.821   8.040  69.502  1.00  0.00    -0.045 N  
HETATM    3  O   UNL     1      -6.725   8.895  68.621  1.00  0.00    -0.057 OA 
HETATM    4  O   UNL     1      -7.990   8.071  70.308  1.00  0.00    -0.099 OA 
ENDROOT
BRANCH   4   5
HETATM    5  C   UNL     1      -8.864   9.145  69.961  1.00  0.00    -0.182 C  
BRANCH   5   6
HETATM    6  C   UNL     1     -10.300   8.801  70.434  1.00  0.00    -0.199 C  
BRANCH   6   7
HETATM    7  O   UNL     1     -10.419   8.632  71.857  1.00  0.00    -0.284 OA 
HETATM    8  O   UNL     1     -11.178   6.539  71.447  1.00  0.00    -0.259 OA 
HETATM    9  N   UNL     1     -10.879   7.369  72.303  1.00  0.00    -0.233 N  
HETATM   10  O   UNL     1     -10.875   7.265  73.526  1.00  0.00    -0.375 OA 
ENDBRANCH   6   7
BRANCH   6  11
HETATM   11  C   UNL     1     -11.397   9.738  69.855  1.00  0.00    -0.192 C  
BRANCH  11  12
HETATM   12  O   UNL     1     -11.794  10.656  70.880  1.00  0.00    -0.332 OA 
HETATM   13  O   UNL     1     -13.905   9.983  70.460  1.00  0.00     0.092 OA 
HETATM   14  O   UNL     1     -13.346  10.878  72.427  1.00  0.00    -0.258 OA 
HETATM   15  N   UNL     1     -13.140  10.480  71.285  1.00  0.00    -0.390 N  
ENDBRANCH  11  12
BRANCH  11  16
HETATM   16  C   UNL     1     -10.945  10.488  68.584  1.00  0.00    -0.248 C  
BRANCH  16  17
HETATM   17  O   UNL     1     -11.090  11.899  68.735  1.00  0.00    -0.215 OA 
HETATM   18  N   UNL     1     -11.354  12.539  67.486  1.00  0.00    -0.291 N  
HETATM   19  O   UNL     1     -11.577  13.741  67.610  1.00  0.00    -0.307 OA 
HETATM   20  O   UNL     1     -11.309  11.840  66.478  1.00  0.00    -0.325 OA 
ENDBRANCH  16  17
ENDBRANCH  11  16
ENDBRANCH   6  11
ENDBRANCH   5   6
ENDBRANCH   4   5
TORSDOF 7
ENDMDL
MODEL      295
REMARK 921   NORMALIZED FREE ENERGY PREDICTED BY IDOCK:   -2.91 KCAL/MOL
REMARK 922        TOTAL FREE ENERGY PREDICTED BY IDOCK:   -5.05 KCAL/MOL
REMARK 923 INTER-LIGAND FREE ENERGY PREDICTED BY IDOCK:   -4.23 KCAL/MOL
REMARK 924 INTRA-LIGAND FREE ENERGY PREDICTED BY IDOCK:   -0.82 KCAL/MOL
REMARK 927      BINDING AFFINITY PREDICTED BY RF-SCORE:    0.00 PKD
ROOT
HETATM    1  O   UNL     1     -11.461  12.022  65.287  1.00  0.00    -0.338 OA 
HETATM    2  N   UNL     1     -10.667  11.922  66.219  1.00  0.00    -0.260 N  
HETATM    3  O   UNL     1      -9.480  12.243  66.291  1.00  0.00    -0.234 OA 
HETATM    4  O   UNL     1     -11.251  11.344  67.377  1.00  0.00    -0.278 OA 
ENDROOT
BRANCH   4   5
HETATM    5  C   UNL     1     -10.318  11.204  68.448  1.00  0.00    -0.186 C  
BRANCH   5   6
HETATM    6  C   UNL     1     -10.734   9.998  69.329  1.00  0.00    -0.224 C  
BRANCH   6   7
HETATM    7  O   UNL     1     -12.148   9.919  69.575  1.00  0.00     0.128 OA 
HETATM    8  O   UNL     1     -11.685  10.223  71.770  1.00  0.00    -0.141 OA 
HETATM    9  N   UNL     1     -12.561  10.076  70.921  1.00  0.00    -0.333 N  
HETATM   10  O   UNL     1     -13.782  10.083  71.047  1.00  0.00    -0.241 OA 
ENDBRANCH   6   7
BRANCH   6  11
HETATM   11  C   UNL     1     -10.137   8.641  68.864  1.00  0.00    -0.202 C  
BRANCH  11  12
HETATM   12  O   UNL     1      -9.161   8.900  67.850  1.00  0.00    -0.138 OA 
HETATM   13  O   UNL     1     -10.266   7.380  66.604  1.00  0.00    -0.240 OA 
HETATM   14  O   UNL     1      -8.992   8.947  65.653  1.00  0.00    -0.182 OA 
HETATM   15  N   UNL     1      -9.516   8.355  66.591  1.00  0.00    -0.188 N  
ENDBRANCH  11  12
BRANCH  11  16
HETATM   16  C   UNL     1      -9.530   7.818  70.020  1.00  0.00    -0.161 C  
BRANCH  16  17
HETATM   17  O   UNL     1     -10.500   7.551  71.032  1.00  0.00    -0.213 OA 
HETATM   18  N   UNL     1     -10.929   6.190  71.007  1.00  0.00    -0.280 N  
HETATM   19  O   UNL     1     -11.693   5.919  71.931  1.00  0.00    -0.255 OA 
HETATM   20  O   UNL     1     -10.514   5.489  70.088  1.00  0.00    -0.260 OA 
ENDBRANCH  16  17
ENDBRANCH  11  16
ENDBRANCH   6  11
ENDBRANCH   5   6
ENDBRANCH   4   5
TORSDOF 7
ENDMDL
MODEL      296
REMARK 921   NORMALIZED FREE ENERGY PREDICTED BY IDOCK:   -2.91 KCAL/MOL
REMARK 922        TOTAL FREE ENERGY PREDICTED BY IDOCK:   -5.04 KCAL/MOL
REMARK 923 INTER-LIGAND FREE ENERGY PREDICTED BY IDOCK:   -5.41 KCAL/MOL
REMARK 924 INTRA-LIGAND FREE ENERGY PREDICTED BY IDOCK:    0.37 KCAL/MOL
REMARK 927      BINDING AFFINITY PREDICTED BY RF-SCORE:    0.00 PKD
ROOT
HETATM    1  O   UNL     1     -11.648  12.454  63.094  1.00  0.00    -0.392 OA 
HETATM    2  N   UNL     1     -10.642  11.826  63.413  1.00  0.00    -0.415 N  
HETATM    3  O   UNL     1      -9.481  11.927  63.012  1.00  0.00    -0.359 OA 
HETATM    4  O   UNL     1     -10.899  10.844  64.406  1.00  0.00    -0.299 OA 
ENDROOT
BRANCH   4   5
HETATM    5  C   UNL     1      -9.732  10.099  64.753  1.00  0.00    -0.322 C  
BRANCH   5   6
HETATM    6  C   UNL     1      -9.454  10.268  66.269  1.00  0.00    -0.177 C  
BRANCH   6   7
HETATM    7  O   UNL     1      -8.552  11.344  66.577  1.00  0.00    -0.169 OA 
HETATM    8  O   UNL     1      -6.936   9.782  66.848  1.00  0.00    -0.086 OA 
HETATM    9  N   UNL     1      -7.211  10.980  66.852  1.00  0.00    -0.125 N  
HETATM   10  O   UNL     1      -6.480  11.951  67.023  1.00  0.00    -0.145 OA 
ENDBRANCH   6   7
BRANCH   6  11
HETATM   11  C   UNL     1     -10.737  10.300  67.146  1.00  0.00    -0.241 C  
BRANCH  11  12
HETATM   12  O   UNL     1     -10.653   9.243  68.107  1.00  0.00    -0.221 OA 
HETATM   13  O   UNL     1      -9.521  10.705  69.399  1.00  0.00    -0.176 OA 
HETATM   14  O   UNL     1     -10.590   8.960  70.292  1.00  0.00    -0.203 OA 
HETATM   15  N   UNL     1     -10.214   9.689  69.379  1.00  0.00    -0.197 N  
ENDBRANCH  11  12
BRANCH  11  16
HETATM   16  C   UNL     1     -10.965  11.661  67.836  1.00  0.00    -0.225 C  
BRANCH  16  17
HETATM   17  O   UNL     1     -12.140  12.303  67.343  1.00  0.00    -0.533 OA 
HETATM   18  N   UNL     1     -11.824  13.369  66.448  1.00  0.00    -0.375 N  
HETATM   19  O   UNL     1     -12.824  13.870  65.939  1.00  0.00    -0.472 OA 
HETATM   20  O   UNL     1     -10.637  13.655  66.316  1.00  0.00    -0.283 OA 
ENDBRANCH  16  17
ENDBRANCH  11  16
ENDBRANCH   6  11
ENDBRANCH   5   6
ENDBRANCH   4   5
TORSDOF 7
ENDMDL
MODEL      297
REMARK 921   NORMALIZED FREE ENERGY PREDICTED BY IDOCK:   -2.89 KCAL/MOL
REMARK 922        TOTAL FREE ENERGY PREDICTED BY IDOCK:   -5.02 KCAL/MOL
REMARK 923 INTER-LIGAND FREE ENERGY PREDICTED BY IDOCK:   -4.46 KCAL/MOL
REMARK 924 INTRA-LIGAND FREE ENERGY PREDICTED BY IDOCK:   -0.56 KCAL/MOL
REMARK 927      BINDING AFFINITY PREDICTED BY RF-SCORE:    0.00 PKD
ROOT
HETATM    1  O   UNL     1     -12.158  11.842  67.088  1.00  0.00    -0.592 OA 
HETATM    2  N   UNL     1     -11.168  11.612  67.777  1.00  0.00    -0.247 N  
HETATM    3  O   UNL     1     -10.704  12.233  68.734  1.00  0.00    -0.228 OA 
HETATM    4  O   UNL     1     -10.482  10.435  67.376  1.00  0.00    -0.216 OA 
ENDROOT
BRANCH   4   5
HETATM    5  C   UNL     1      -9.315  10.188  68.162  1.00  0.00    -0.135 C  
BRANCH   5   6
HETATM    6  C   UNL     1      -9.504   8.864  68.946  1.00  0.00    -0.152 C  
BRANCH   6   7
HETATM    7  O   UNL     1      -8.698   7.779  68.457  1.00  0.00    -0.128 OA 
HETATM    8  O   UNL     1     -10.116   6.373  69.524  1.00  0.00    -0.161 OA 
HETATM    9  N   UNL     1      -9.125   6.474  68.804  1.00  0.00    -0.127 N  
HETATM   10  O   UNL     1      -8.442   5.596  68.285  1.00  0.00    -0.105 OA 
ENDBRANCH   6   7
BRANCH   6  11
HETATM   11  C   UNL     1      -9.409   9.026  70.489  1.00  0.00    -0.219 C  
BRANCH  11  12
HETATM   12  O   UNL     1      -8.264   9.831  70.789  1.00  0.00    -0.251 OA 
HETATM   13  O   UNL     1      -7.385   7.975  71.722  1.00  0.00    -0.067 OA 
HETATM   14  O   UNL     1      -6.079   9.634  70.998  1.00  0.00    -0.073 OA 
HETATM   15  N   UNL     1      -7.146   9.066  71.206  1.00  0.00    -0.098 N  
ENDBRANCH  11  12
BRANCH  11  16
HETATM   16  C   UNL     1     -10.686   9.622  71.117  1.00  0.00    -0.294 C  
BRANCH  16  17
HETATM   17  O   UNL     1     -11.635   8.604  71.427  1.00  0.00    -0.265 OA 
HETATM   18  N   UNL     1     -12.836   9.149  71.973  1.00  0.00    -0.378 N  
HETATM   19  O   UNL     1     -13.701   8.296  72.158  1.00  0.00    -0.328 OA 
HETATM   20  O   UNL     1     -12.850  10.356  72.201  1.00  0.00    -0.392 OA 
ENDBRANCH  16  17
ENDBRANCH  11  16
ENDBRANCH   6  11
ENDBRANCH   5   6
ENDBRANCH   4   5
TORSDOF 7
ENDMDL
MODEL      298
REMARK 921   NORMALIZED FREE ENERGY PREDICTED BY IDOCK:   -2.88 KCAL/MOL
REMARK 922        TOTAL FREE ENERGY PREDICTED BY IDOCK:   -4.99 KCAL/MOL
REMARK 923 INTER-LIGAND FREE ENERGY PREDICTED BY IDOCK:   -5.94 KCAL/MOL
REMARK 924 INTRA-LIGAND FREE ENERGY PREDICTED BY IDOCK:    0.94 KCAL/MOL
REMARK 927      BINDING AFFINITY PREDICTED BY RF-SCORE:    0.00 PKD
ROOT
HETATM    1  O   UNL     1     -10.344  20.719  68.329  1.00  0.00    -0.002 OA 
HETATM    2  N   UNL     1     -10.535  19.685  67.694  1.00  0.00    -0.440 N  
HETATM    3  O   UNL     1     -10.667  19.509  66.482  1.00  0.00    -0.449 OA 
HETATM    4  O   UNL     1     -10.605  18.536  68.525  1.00  0.00    -0.238 OA 
ENDROOT
BRANCH   4   5
HETATM    5  C   UNL     1     -10.856  17.341  67.786  1.00  0.00    -0.261 C  
BRANCH   5   6
HETATM    6  C   UNL     1      -9.729  16.317  68.080  1.00  0.00    -0.230 C  
BRANCH   6   7
HETATM    7  O   UNL     1      -8.530  16.909  68.608  1.00  0.00    -0.243 OA 
HETATM    8  O   UNL     1      -7.709  16.893  66.498  1.00  0.00    -0.232 OA 
HETATM    9  N   UNL     1      -7.509  17.203  67.671  1.00  0.00    -0.166 N  
HETATM   10  O   UNL     1      -6.553  17.782  68.176  1.00  0.00    -0.183 OA 
ENDBRANCH   6   7
BRANCH   6  11
HETATM   11  C   UNL     1     -10.195  15.085  68.904  1.00  0.00    -0.235 C  
BRANCH  11  12
HETATM   12  O   UNL     1     -10.068  15.397  70.295  1.00  0.00    -0.250 OA 
HETATM   13  O   UNL     1     -12.311  15.631  70.297  1.00  0.00    -0.400 OA 
HETATM   14  O   UNL     1     -11.194  15.177  72.176  1.00  0.00    -0.384 OA 
HETATM   15  N   UNL     1     -11.311  15.398  70.975  1.00  0.00    -0.342 N  
ENDBRANCH  11  12
BRANCH  11  16
HETATM   16  C   UNL     1     -11.633  14.637  68.566  1.00  0.00    -0.317 C  
BRANCH  16  17
HETATM   17  O   UNL     1     -11.633  13.484  67.726  1.00  0.00    -0.299 OA 
HETATM   18  N   UNL     1     -11.902  12.292  68.464  1.00  0.00    -0.325 N  
HETATM   19  O   UNL     1     -12.001  11.302  67.743  1.00  0.00    -0.637 OA 
HETATM   20  O   UNL     1     -11.980  12.396  69.685  1.00  0.00    -0.304 OA 
ENDBRANCH  16  17
ENDBRANCH  11  16
ENDBRANCH   6  11
ENDBRANCH   5   6
ENDBRANCH   4   5
TORSDOF 7
ENDMDL
MODEL      299
REMARK 921   NORMALIZED FREE ENERGY PREDICTED BY IDOCK:   -2.85 KCAL/MOL
REMARK 922        TOTAL FREE ENERGY PREDICTED BY IDOCK:   -4.96 KCAL/MOL
REMARK 923 INTER-LIGAND FREE ENERGY PREDICTED BY IDOCK:   -5.85 KCAL/MOL
REMARK 924 INTRA-LIGAND FREE ENERGY PREDICTED BY IDOCK:    0.89 KCAL/MOL
REMARK 927      BINDING AFFINITY PREDICTED BY RF-SCORE:    0.00 PKD
ROOT
HETATM    1  O   UNL     1      -7.964  19.486  65.931  1.00  0.00    -0.373 OA 
HETATM    2  N   UNL     1      -9.109  19.065  65.787  1.00  0.00     0.184 N  
HETATM    3  O   UNL     1     -10.134  19.653  65.441  1.00  0.00    -0.303 OA 
HETATM    4  O   UNL     1      -9.224  17.678  66.068  1.00  0.00    -0.491 OA 
ENDROOT
BRANCH   4   5
HETATM    5  C   UNL     1     -10.562  17.200  65.925  1.00  0.00    -0.215 C  
BRANCH   5   6
HETATM    6  C   UNL     1     -10.895  16.265  67.116  1.00  0.00    -0.190 C  
BRANCH   6   7
HETATM    7  O   UNL     1     -10.659  14.873  66.846  1.00  0.00    -0.289 OA 
HETATM    8  O   UNL     1      -8.447  15.354  66.821  1.00  0.00    -0.238 OA 
HETATM    9  N   UNL     1      -9.304  14.478  66.727  1.00  0.00    -0.250 N  
HETATM   10  O   UNL     1      -9.173  13.266  66.582  1.00  0.00    -0.250 OA 
ENDBRANCH   6   7
BRANCH   6  11
HETATM   11  C   UNL     1     -10.278  16.720  68.468  1.00  0.00    -0.298 C  
BRANCH  11  12
HETATM   12  O   UNL     1     -10.748  18.041  68.758  1.00  0.00    -0.135 OA 
HETATM   13  O   UNL     1      -8.592  18.557  69.174  1.00  0.00    -0.105 OA 
HETATM   14  O   UNL     1     -10.072  20.133  68.617  1.00  0.00    -0.379 OA 
HETATM   15  N   UNL     1      -9.699  18.989  68.856  1.00  0.00    -0.397 N  
ENDBRANCH  11  12
BRANCH  11  16
HETATM   16  C   UNL     1     -10.587  15.754  69.631  1.00  0.00    -0.295 C  
BRANCH  16  17
HETATM   17  O   UNL     1     -11.975  15.430  69.682  1.00  0.00    -0.320 OA 
HETATM   18  N   UNL     1     -12.559  15.803  70.930  1.00  0.00    -0.436 N  
HETATM   19  O   UNL     1     -13.774  15.620  70.956  1.00  0.00    -0.582 OA 
HETATM   20  O   UNL     1     -11.801  16.228  71.798  1.00  0.00    -0.487 OA 
ENDBRANCH  16  17
ENDBRANCH  11  16
ENDBRANCH   6  11
ENDBRANCH   5   6
ENDBRANCH   4   5
TORSDOF 7
ENDMDL
MODEL      300
REMARK 921   NORMALIZED FREE ENERGY PREDICTED BY IDOCK:   -2.84 KCAL/MOL
REMARK 922        TOTAL FREE ENERGY PREDICTED BY IDOCK:   -4.94 KCAL/MOL
REMARK 923 INTER-LIGAND FREE ENERGY PREDICTED BY IDOCK:   -4.23 KCAL/MOL
REMARK 924 INTRA-LIGAND FREE ENERGY PREDICTED BY IDOCK:   -0.71 KCAL/MOL
REMARK 927      BINDING AFFINITY PREDICTED BY RF-SCORE:    0.00 PKD
ROOT
HETATM    1  O   UNL     1     -12.676  11.640  71.289  1.00  0.00    -0.393 OA 
HETATM    2  N   UNL     1     -12.247  11.682  70.138  1.00  0.00    -0.306 N  
HETATM    3  O   UNL     1     -12.171  12.628  69.353  1.00  0.00    -0.200 OA 
HETATM    4  O   UNL     1     -11.772  10.425  69.683  1.00  0.00    -0.248 OA 
ENDROOT
BRANCH   4   5
HETATM    5  C   UNL     1     -11.301  10.473  68.336  1.00  0.00    -0.262 C  
BRANCH   5   6
HETATM    6  C   UNL     1      -9.771  10.221  68.325  1.00  0.00    -0.142 C  
BRANCH   6   7
HETATM    7  O   UNL     1      -9.003  11.283  68.915  1.00  0.00    -0.142 OA 
HETATM    8  O   UNL     1      -8.349  11.843  66.821  1.00  0.00    -0.178 OA 
HETATM    9  N   UNL     1      -8.290  12.116  68.018  1.00  0.00    -0.159 N  
HETATM   10  O   UNL     1      -7.727  13.049  68.581  1.00  0.00    -0.127 OA 
ENDBRANCH   6   7
BRANCH   6  11
HETATM   11  C   UNL     1      -9.358   8.822  68.860  1.00  0.00    -0.145 C  
BRANCH  11  12
HETATM   12  O   UNL     1      -9.357   8.868  70.291  1.00  0.00    -0.163 OA 
HETATM   13  O   UNL     1      -7.281   7.994  70.170  1.00  0.00    -0.055 OA 
HETATM   14  O   UNL     1      -7.947   9.148  71.961  1.00  0.00    -0.323 OA 
HETATM   15  N   UNL     1      -8.072   8.649  70.847  1.00  0.00    -0.121 N  
ENDBRANCH  11  12
BRANCH  11  16
HETATM   16  C   UNL     1     -10.262   7.683  68.343  1.00  0.00    -0.198 C  
BRANCH  16  17
HETATM   17  O   UNL     1      -9.723   6.403  68.670  1.00  0.00    -0.123 OA 
HETATM   18  N   UNL     1     -10.537   5.714  69.620  1.00  0.00    -0.311 N  
HETATM   19  O   UNL     1     -10.139   4.573  69.842  1.00  0.00    -0.234 OA 
HETATM   20  O   UNL     1     -11.486   6.331  70.095  1.00  0.00    -0.400 OA 
ENDBRANCH  16  17
ENDBRANCH  11  16
ENDBRANCH   6  11
ENDBRANCH   5   6
ENDBRANCH   4   5
TORSDOF 7
ENDMDL
MODEL      301
REMARK 921   NORMALIZED FREE ENERGY PREDICTED BY IDOCK:   -2.84 KCAL/MOL
REMARK 922        TOTAL FREE ENERGY PREDICTED BY IDOCK:   -4.94 KCAL/MOL
REMARK 923 INTER-LIGAND FREE ENERGY PREDICTED BY IDOCK:   -4.31 KCAL/MOL
REMARK 924 INTRA-LIGAND FREE ENERGY PREDICTED BY IDOCK:   -0.63 KCAL/MOL
REMARK 927      BINDING AFFINITY PREDICTED BY RF-SCORE:    0.00 PKD
ROOT
HETATM    1  O   UNL     1      -9.778   5.031  67.011  1.00  0.00    -0.141 OA 
HETATM    2  N   UNL     1     -10.574   5.763  67.592  1.00  0.00    -0.241 N  
HETATM    3  O   UNL     1     -11.374   6.584  67.141  1.00  0.00    -0.333 OA 
HETATM    4  O   UNL     1     -10.538   5.604  69.002  1.00  0.00    -0.245 OA 
ENDROOT
BRANCH   4   5
HETATM    5  C   UNL     1     -11.446   6.478  69.675  1.00  0.00    -0.352 C  
BRANCH   5   6
HETATM    6  C   UNL     1     -10.646   7.631  70.332  1.00  0.00    -0.230 C  
BRANCH   6   7
HETATM    7  O   UNL     1     -11.460   8.743  70.743  1.00  0.00    -0.275 OA 
HETATM    8  O   UNL     1      -9.903  10.100  69.815  1.00  0.00    -0.232 OA 
HETATM    9  N   UNL     1     -10.984  10.031  70.396  1.00  0.00    -0.301 N  
HETATM   10  O   UNL     1     -11.767  10.925  70.701  1.00  0.00    -0.331 OA 
ENDBRANCH   6   7
BRANCH   6  11
HETATM   11  C   UNL     1      -9.671   7.166  71.449  1.00  0.00    -0.168 C  
BRANCH  11  12
HETATM   12  O   UNL     1     -10.105   5.888  71.925  1.00  0.00    -0.179 OA 
HETATM   13  O   UNL     1     -10.714   6.962  73.813  1.00  0.00    -0.347 OA 
HETATM   14  O   UNL     1     -11.649   5.019  73.235  1.00  0.00    -0.322 OA 
HETATM   15  N   UNL     1     -10.895   5.977  73.099  1.00  0.00    -0.257 N  
ENDBRANCH  11  12
BRANCH  11  16
HETATM   16  C   UNL     1      -8.199   7.114  70.987  1.00  0.00    -0.109 C  
BRANCH  16  17
HETATM   17  O   UNL     1      -7.369   6.492  71.966  1.00  0.00    -0.088 OA 
HETATM   18  N   UNL     1      -6.358   7.378  72.444  1.00  0.00    -0.050 N  
HETATM   19  O   UNL     1      -5.694   6.890  73.356  1.00  0.00    -0.049 OA 
HETATM   20  O   UNL     1      -6.266   8.471  71.891  1.00  0.00    -0.055 OA 
ENDBRANCH  16  17
ENDBRANCH  11  16
ENDBRANCH   6  11
ENDBRANCH   5   6
ENDBRANCH   4   5
TORSDOF 7
ENDMDL
MODEL      302
REMARK 921   NORMALIZED FREE ENERGY PREDICTED BY IDOCK:   -2.82 KCAL/MOL
REMARK 922        TOTAL FREE ENERGY PREDICTED BY IDOCK:   -4.92 KCAL/MOL
REMARK 923 INTER-LIGAND FREE ENERGY PREDICTED BY IDOCK:   -3.97 KCAL/MOL
REMARK 924 INTRA-LIGAND FREE ENERGY PREDICTED BY IDOCK:   -0.95 KCAL/MOL
REMARK 927      BINDING AFFINITY PREDICTED BY RF-SCORE:    0.00 PKD
ROOT
HETATM    1  O   UNL     1      -9.382   4.433  74.315  1.00  0.00    -0.108 OA 
HETATM    2  N   UNL     1      -9.627   4.847  73.185  1.00  0.00    -0.136 N  
HETATM    3  O   UNL     1     -10.557   4.577  72.424  1.00  0.00    -0.195 OA 
HETATM    4  O   UNL     1      -8.666   5.785  72.724  1.00  0.00    -0.120 OA 
ENDROOT
BRANCH   4   5
HETATM    5  C   UNL     1      -8.940   6.242  71.399  1.00  0.00    -0.139 C  
BRANCH   5   6
HETATM    6  C   UNL     1      -9.127   7.780  71.422  1.00  0.00    -0.134 C  
BRANCH   6   7
HETATM    7  O   UNL     1      -7.914   8.517  71.192  1.00  0.00    -0.099 OA 
HETATM    8  O   UNL     1      -7.848   8.916  73.419  1.00  0.00    -0.378 OA 
HETATM    9  N   UNL     1      -7.288   9.070  72.336  1.00  0.00     0.246 N  
HETATM   10  O   UNL     1      -6.217   9.611  72.078  1.00  0.00    -0.296 OA 
ENDBRANCH   6   7
BRANCH   6  11
HETATM   11  C   UNL     1     -10.304   8.286  70.542  1.00  0.00    -0.202 C  
BRANCH  11  12
HETATM   12  O   UNL     1     -11.502   8.249  71.325  1.00  0.00    -0.261 OA 
HETATM   13  O   UNL     1     -12.270   6.764  69.810  1.00  0.00    -0.022 OA 
HETATM   14  O   UNL     1     -13.102   6.840  71.880  1.00  0.00    -0.308 OA 
HETATM   15  N   UNL     1     -12.362   7.182  70.964  1.00  0.00    -0.351 N  
ENDBRANCH  11  12
BRANCH  11  16
HETATM   16  C   UNL     1     -10.065   9.697  69.962  1.00  0.00    -0.252 C  
BRANCH  16  17
HETATM   17  O   UNL     1     -10.630   9.824  68.659  1.00  0.00    -0.208 OA 
HETATM   18  N   UNL     1     -11.225  11.107  68.464  1.00  0.00    -0.234 N  
HETATM   19  O   UNL     1     -11.632  11.269  67.315  1.00  0.00    -0.527 OA 
HETATM   20  O   UNL     1     -11.272  11.856  69.436  1.00  0.00    -0.245 OA 
ENDBRANCH  16  17
ENDBRANCH  11  16
ENDBRANCH   6  11
ENDBRANCH   5   6
ENDBRANCH   4   5
TORSDOF 7
ENDMDL
MODEL      303
REMARK 921   NORMALIZED FREE ENERGY PREDICTED BY IDOCK:   -2.82 KCAL/MOL
REMARK 922        TOTAL FREE ENERGY PREDICTED BY IDOCK:   -4.91 KCAL/MOL
REMARK 923 INTER-LIGAND FREE ENERGY PREDICTED BY IDOCK:   -5.42 KCAL/MOL
REMARK 924 INTRA-LIGAND FREE ENERGY PREDICTED BY IDOCK:    0.51 KCAL/MOL
REMARK 927      BINDING AFFINITY PREDICTED BY RF-SCORE:    0.00 PKD
ROOT
HETATM    1  O   UNL     1      -5.592  17.237  70.733  1.00  0.00    -0.183 OA 
HETATM    2  N   UNL     1      -6.031  17.564  69.634  1.00  0.00    -0.243 N  
HETATM    3  O   UNL     1      -5.539  18.283  68.763  1.00  0.00    -0.187 OA 
HETATM    4  O   UNL     1      -7.304  16.998  69.361  1.00  0.00    -0.184 OA 
ENDROOT
BRANCH   4   5
HETATM    5  C   UNL     1      -7.822  17.403  68.093  1.00  0.00    -0.234 C  
BRANCH   5   6
HETATM    6  C   UNL     1      -9.362  17.225  68.095  1.00  0.00    -0.274 C  
BRANCH   6   7
HETATM    7  O   UNL     1     -10.040  18.043  69.063  1.00  0.00    -0.377 OA 
HETATM    8  O   UNL     1      -8.623  19.716  68.499  1.00  0.00    -0.345 OA 
HETATM    9  N   UNL     1      -9.582  19.378  69.189  1.00  0.00    -0.365 N  
HETATM   10  O   UNL     1     -10.258  20.042  69.969  1.00  0.00    -0.033 OA 
ENDBRANCH   6   7
BRANCH   6  11
HETATM   11  C   UNL     1     -10.009  17.316  66.685  1.00  0.00    -0.294 C  
BRANCH  11  12
HETATM   12  O   UNL     1      -9.145  18.082  65.839  1.00  0.00    -0.513 OA 
HETATM   13  O   UNL     1     -10.753  19.663  65.875  1.00  0.00    -0.492 OA 
HETATM   14  O   UNL     1      -8.629  20.184  65.426  1.00  0.00    -0.053 OA 
HETATM   15  N   UNL     1      -9.556  19.432  65.709  1.00  0.00    -0.059 N  
ENDBRANCH  11  12
BRANCH  11  16
HETATM   16  C   UNL     1     -10.310  15.935  66.066  1.00  0.00    -0.348 C  
BRANCH  16  17
HETATM   17  O   UNL     1     -11.331  15.252  66.791  1.00  0.00    -0.291 OA 
HETATM   18  N   UNL     1     -11.120  13.840  66.800  1.00  0.00    -0.304 N  
HETATM   19  O   UNL     1     -11.936  13.245  67.499  1.00  0.00    -0.356 OA 
HETATM   20  O   UNL     1     -10.194  13.409  66.117  1.00  0.00    -0.287 OA 
ENDBRANCH  16  17
ENDBRANCH  11  16
ENDBRANCH   6  11
ENDBRANCH   5   6
ENDBRANCH   4   5
TORSDOF 7
ENDMDL
MODEL      304
REMARK 921   NORMALIZED FREE ENERGY PREDICTED BY IDOCK:   -2.76 KCAL/MOL
REMARK 922        TOTAL FREE ENERGY PREDICTED BY IDOCK:   -4.83 KCAL/MOL
REMARK 923 INTER-LIGAND FREE ENERGY PREDICTED BY IDOCK:   -4.85 KCAL/MOL
REMARK 924 INTRA-LIGAND FREE ENERGY PREDICTED BY IDOCK:    0.03 KCAL/MOL
REMARK 927      BINDING AFFINITY PREDICTED BY RF-SCORE:    0.00 PKD
ROOT
HETATM    1  O   UNL     1     -11.969  12.079  69.628  1.00  0.00    -0.307 OA 
HETATM    2  N   UNL     1     -11.524  11.233  68.858  1.00  0.00    -0.267 N  
HETATM    3  O   UNL     1     -11.508  11.208  67.627  1.00  0.00    -0.428 OA 
HETATM    4  O   UNL     1     -10.940  10.129  69.533  1.00  0.00    -0.228 OA 
ENDROOT
BRANCH   4   5
HETATM    5  C   UNL     1     -10.448   9.135  68.634  1.00  0.00    -0.207 C  
BRANCH   5   6
HETATM    6  C   UNL     1     -10.583   7.740  69.297  1.00  0.00    -0.192 C  
BRANCH   6   7
HETATM    7  O   UNL     1      -9.438   6.892  69.102  1.00  0.00    -0.143 OA 
HETATM    8  O   UNL     1      -9.797   7.083  66.875  1.00  0.00    -0.175 OA 
HETATM    9  N   UNL     1      -9.082   6.616  67.759  1.00  0.00    -0.115 N  
HETATM   10  O   UNL     1      -8.050   5.958  67.666  1.00  0.00    -0.102 OA 
ENDBRANCH   6   7
BRANCH   6  11
HETATM   11  C   UNL     1     -11.039   7.788  70.781  1.00  0.00    -0.257 C  
BRANCH  11  12
HETATM   12  O   UNL     1     -12.358   7.237  70.867  1.00  0.00    -0.314 OA 
HETATM   13  O   UNL     1     -12.622   8.532  72.694  1.00  0.00    -0.355 OA 
HETATM   14  O   UNL     1     -14.381   7.814  71.522  1.00  0.00    -0.429 OA 
HETATM   15  N   UNL     1     -13.188   7.933  71.781  1.00  0.00    -0.337 N  
ENDBRANCH  11  12
BRANCH  11  16
HETATM   16  C   UNL     1     -10.071   7.060  71.738  1.00  0.00    -0.184 C  
BRANCH  16  17
HETATM   17  O   UNL     1      -9.584   7.939  72.750  1.00  0.00    -0.196 OA 
HETATM   18  N   UNL     1      -8.174   8.135  72.646  1.00  0.00    -0.157 N  
HETATM   19  O   UNL     1      -7.752   8.963  73.451  1.00  0.00    -0.377 OA 
HETATM   20  O   UNL     1      -7.575   7.462  71.811  1.00  0.00    -0.082 OA 
ENDBRANCH  16  17
ENDBRANCH  11  16
ENDBRANCH   6  11
ENDBRANCH   5   6
ENDBRANCH   4   5
TORSDOF 7
ENDMDL
MODEL      305
REMARK 921   NORMALIZED FREE ENERGY PREDICTED BY IDOCK:   -2.74 KCAL/MOL
REMARK 922        TOTAL FREE ENERGY PREDICTED BY IDOCK:   -4.81 KCAL/MOL
REMARK 923 INTER-LIGAND FREE ENERGY PREDICTED BY IDOCK:   -3.78 KCAL/MOL
REMARK 924 INTRA-LIGAND FREE ENERGY PREDICTED BY IDOCK:   -1.03 KCAL/MOL
REMARK 927      BINDING AFFINITY PREDICTED BY RF-SCORE:    0.00 PKD
ROOT
HETATM    1  O   UNL     1     -11.982  12.529  70.464  1.00  0.00    -0.326 OA 
HETATM    2  N   UNL     1     -11.813  11.783  69.504  1.00  0.00    -0.324 N  
HETATM    3  O   UNL     1     -12.132  11.923  68.322  1.00  0.00    -0.485 OA 
HETATM    4  O   UNL     1     -11.135  10.585  69.852  1.00  0.00    -0.267 OA 
ENDROOT
BRANCH   4   5
HETATM    5  C   UNL     1     -10.965   9.709  68.737  1.00  0.00    -0.117 C  
BRANCH   5   6
HETATM    6  C   UNL     1      -9.532   9.120  68.769  1.00  0.00    -0.147 C  
BRANCH   6   7
HETATM    7  O   UNL     1      -8.591   9.922  69.503  1.00  0.00    -0.155 OA 
HETATM    8  O   UNL     1      -7.842  10.692  67.509  1.00  0.00    -0.104 OA 
HETATM    9  N   UNL     1      -7.739  10.753  68.733  1.00  0.00    -0.113 N  
HETATM   10  O   UNL     1      -7.023  11.471  69.424  1.00  0.00    -0.112 OA 
ENDBRANCH   6   7
BRANCH   6  11
HETATM   11  C   UNL     1      -9.474   7.621  69.173  1.00  0.00    -0.154 C  
BRANCH  11  12
HETATM   12  O   UNL     1     -10.812   7.156  69.378  1.00  0.00    -0.235 OA 
HETATM   13  O   UNL     1     -10.201   6.788  71.517  1.00  0.00    -0.193 OA 
HETATM   14  O   UNL     1     -12.342   7.084  70.962  1.00  0.00    -0.370 OA 
HETATM   15  N   UNL     1     -11.137   6.999  70.748  1.00  0.00    -0.261 N  
ENDBRANCH  11  12
BRANCH  11  16
HETATM   16  C   UNL     1      -8.733   6.743  68.142  1.00  0.00    -0.122 C  
BRANCH  16  17
HETATM   17  O   UNL     1      -7.341   7.051  68.103  1.00  0.00    -0.091 OA 
HETATM   18  N   UNL     1      -6.956   7.602  66.844  1.00  0.00    -0.077 N  
HETATM   19  O   UNL     1      -5.781   7.962  66.826  1.00  0.00    -0.034 OA 
HETATM   20  O   UNL     1      -7.810   7.631  65.962  1.00  0.00    -0.093 OA 
ENDBRANCH  16  17
ENDBRANCH  11  16
ENDBRANCH   6  11
ENDBRANCH   5   6
ENDBRANCH   4   5
TORSDOF 7
ENDMDL
MODEL      306
REMARK 921   NORMALIZED FREE ENERGY PREDICTED BY IDOCK:   -2.73 KCAL/MOL
REMARK 922        TOTAL FREE ENERGY PREDICTED BY IDOCK:   -4.79 KCAL/MOL
REMARK 923 INTER-LIGAND FREE ENERGY PREDICTED BY IDOCK:   -4.92 KCAL/MOL
REMARK 924 INTRA-LIGAND FREE ENERGY PREDICTED BY IDOCK:    0.13 KCAL/MOL
REMARK 927      BINDING AFFINITY PREDICTED BY RF-SCORE:    0.00 PKD
ROOT
HETATM    1  O   UNL     1      -9.954   6.017  66.689  1.00  0.00    -0.159 OA 
HETATM    2  N   UNL     1      -9.666   7.210  66.732  1.00  0.00    -0.187 N  
HETATM    3  O   UNL     1      -9.315   7.976  65.833  1.00  0.00    -0.136 OA 
HETATM    4  O   UNL     1      -9.769   7.754  68.039  1.00  0.00    -0.148 OA 
ENDROOT
BRANCH   4   5
HETATM    5  C   UNL     1      -9.405   9.134  68.088  1.00  0.00    -0.138 C  
BRANCH   5   6
HETATM    6  C   UNL     1     -10.653   9.974  68.464  1.00  0.00    -0.215 C  
BRANCH   6   7
HETATM    7  O   UNL     1     -11.247   9.602  69.720  1.00  0.00    -0.233 OA 
HETATM    8  O   UNL     1      -9.250  10.054  70.686  1.00  0.00     0.053 OA 
HETATM    9  N   UNL     1     -10.415   9.703  70.862  1.00  0.00    -0.306 N  
HETATM   10  O   UNL     1     -11.008   9.453  71.906  1.00  0.00    -0.325 OA 
ENDBRANCH   6   7
BRANCH   6  11
HETATM   11  C   UNL     1     -10.443  11.508  68.338  1.00  0.00    -0.207 C  
BRANCH  11  12
HETATM   12  O   UNL     1      -9.438  11.747  67.347  1.00  0.00    -0.170 OA 
HETATM   13  O   UNL     1      -8.731  13.424  68.679  1.00  0.00    -0.110 OA 
HETATM   14  O   UNL     1      -7.360  12.466  67.200  1.00  0.00    -0.139 OA 
HETATM   15  N   UNL     1      -8.421  12.627  67.795  1.00  0.00    -0.160 N  
ENDBRANCH  11  12
BRANCH  11  16
HETATM   16  C   UNL     1     -11.741  12.273  68.007  1.00  0.00    -0.356 C  
BRANCH  16  17
HETATM   17  O   UNL     1     -12.090  12.132  66.631  1.00  0.00    -0.622 OA 
HETATM   18  N   UNL     1     -12.453  13.382  66.046  1.00  0.00    -0.403 N  
HETATM   19  O   UNL     1     -12.664  13.296  64.838  1.00  0.00    -0.635 OA 
HETATM   20  O   UNL     1     -12.526  14.351  66.797  1.00  0.00    -0.331 OA 
ENDBRANCH  16  17
ENDBRANCH  11  16
ENDBRANCH   6  11
ENDBRANCH   5   6
ENDBRANCH   4   5
TORSDOF 7
ENDMDL
MODEL      307
REMARK 921   NORMALIZED FREE ENERGY PREDICTED BY IDOCK:   -2.71 KCAL/MOL
REMARK 922        TOTAL FREE ENERGY PREDICTED BY IDOCK:   -4.75 KCAL/MOL
REMARK 923 INTER-LIGAND FREE ENERGY PREDICTED BY IDOCK:   -3.94 KCAL/MOL
REMARK 924 INTRA-LIGAND FREE ENERGY PREDICTED BY IDOCK:   -0.81 KCAL/MOL
REMARK 927      BINDING AFFINITY PREDICTED BY RF-SCORE:    0.00 PKD
ROOT
HETATM    1  O   UNL     1     -12.309  12.034  70.622  1.00  0.00    -0.356 OA 
HETATM    2  N   UNL     1     -11.905  11.219  69.796  1.00  0.00    -0.332 N  
HETATM    3  O   UNL     1     -12.167  11.105  68.598  1.00  0.00    -0.582 OA 
HETATM    4  O   UNL     1     -10.992  10.283  70.350  1.00  0.00    -0.296 OA 
ENDROOT
BRANCH   4   5
HETATM    5  C   UNL     1     -10.547   9.321  69.393  1.00  0.00    -0.223 C  
BRANCH   5   6
HETATM    6  C   UNL     1      -8.999   9.246  69.432  1.00  0.00    -0.147 C  
BRANCH   6   7
HETATM    7  O   UNL     1      -8.359  10.522  69.600  1.00  0.00    -0.119 OA 
HETATM    8  O   UNL     1      -7.896  10.472  67.384  1.00  0.00    -0.105 OA 
HETATM    9  N   UNL     1      -7.816  11.111  68.431  1.00  0.00    -0.125 N  
HETATM   10  O   UNL     1      -7.362  12.234  68.631  1.00  0.00    -0.105 OA 
ENDBRANCH   6   7
BRANCH   6  11
HETATM   11  C   UNL     1      -8.444   8.172  70.408  1.00  0.00    -0.129 C  
BRANCH  11  12
HETATM   12  O   UNL     1      -9.539   7.633  71.157  1.00  0.00    -0.159 OA 
HETATM   13  O   UNL     1      -8.512   8.473  72.982  1.00  0.00    -0.360 OA 
HETATM   14  O   UNL     1     -10.707   8.069  72.974  1.00  0.00    -0.361 OA 
HETATM   15  N   UNL     1      -9.580   8.109  72.492  1.00  0.00    -0.247 N  
ENDBRANCH  11  12
BRANCH  11  16
HETATM   16  C   UNL     1      -7.657   7.052  69.695  1.00  0.00    -0.104 C  
BRANCH  16  17
HETATM   17  O   UNL     1      -7.749   5.819  70.406  1.00  0.00    -0.090 OA 
HETATM   18  N   UNL     1      -6.612   5.606  71.243  1.00  0.00    -0.043 N  
HETATM   19  O   UNL     1      -6.718   4.596  71.935  1.00  0.00    -0.032 OA 
HETATM   20  O   UNL     1      -5.694   6.417  71.157  1.00  0.00    -0.025 OA 
ENDBRANCH  16  17
ENDBRANCH  11  16
ENDBRANCH   6  11
ENDBRANCH   5   6
ENDBRANCH   4   5
TORSDOF 7
ENDMDL
MODEL      308
REMARK 921   NORMALIZED FREE ENERGY PREDICTED BY IDOCK:   -2.70 KCAL/MOL
REMARK 922        TOTAL FREE ENERGY PREDICTED BY IDOCK:   -4.75 KCAL/MOL
REMARK 923 INTER-LIGAND FREE ENERGY PREDICTED BY IDOCK:   -3.73 KCAL/MOL
REMARK 924 INTRA-LIGAND FREE ENERGY PREDICTED BY IDOCK:   -1.01 KCAL/MOL
REMARK 927      BINDING AFFINITY PREDICTED BY RF-SCORE:    0.00 PKD
ROOT
HETATM    1  O   UNL     1     -10.819   3.878  72.831  1.00  0.00    -0.157 OA 
HETATM    2  N   UNL     1     -10.676   5.097  72.801  1.00  0.00    -0.227 N  
HETATM    3  O   UNL     1     -10.364   5.884  73.697  1.00  0.00    -0.210 OA 
HETATM    4  O   UNL     1     -10.914   5.646  71.513  1.00  0.00    -0.252 OA 
ENDROOT
BRANCH   4   5
HETATM    5  C   UNL     1     -10.774   7.067  71.490  1.00  0.00    -0.221 C  
BRANCH   5   6
HETATM    6  C   UNL     1      -9.917   7.472  70.264  1.00  0.00    -0.192 C  
BRANCH   6   7
HETATM    7  O   UNL     1     -10.249   8.762  69.723  1.00  0.00    -0.191 OA 
HETATM    8  O   UNL     1     -10.646   7.725  67.751  1.00  0.00    -0.225 OA 
HETATM    9  N   UNL     1     -10.653   8.789  68.366  1.00  0.00    -0.180 N  
HETATM   10  O   UNL     1     -11.002   9.906  67.995  1.00  0.00    -0.257 OA 
ENDBRANCH   6   7
BRANCH   6  11
HETATM   11  C   UNL     1      -8.388   7.295  70.476  1.00  0.00    -0.133 C  
BRANCH  11  12
HETATM   12  O   UNL     1      -8.135   7.194  71.881  1.00  0.00    -0.097 OA 
HETATM   13  O   UNL     1      -7.274   9.273  71.726  1.00  0.00    -0.328 OA 
HETATM   14  O   UNL     1      -8.039   8.480  73.668  1.00  0.00    -0.381 OA 
HETATM   15  N   UNL     1      -7.785   8.436  72.468  1.00  0.00    -0.119 N  
ENDBRANCH  11  12
BRANCH  11  16
HETATM   16  C   UNL     1      -7.808   6.080  69.720  1.00  0.00    -0.101 C  
BRANCH  16  17
HETATM   17  O   UNL     1      -8.844   5.240  69.216  1.00  0.00    -0.099 OA 
HETATM   18  N   UNL     1      -8.695   4.999  67.816  1.00  0.00    -0.103 N  
HETATM   19  O   UNL     1      -9.524   4.200  67.384  1.00  0.00    -0.163 OA 
HETATM   20  O   UNL     1      -7.804   5.611  67.235  1.00  0.00    -0.100 OA 
ENDBRANCH  16  17
ENDBRANCH  11  16
ENDBRANCH   6  11
ENDBRANCH   5   6
ENDBRANCH   4   5
TORSDOF 7
ENDMDL
MODEL      309
REMARK 921   NORMALIZED FREE ENERGY PREDICTED BY IDOCK:   -2.68 KCAL/MOL
REMARK 922        TOTAL FREE ENERGY PREDICTED BY IDOCK:   -4.72 KCAL/MOL
REMARK 923 INTER-LIGAND FREE ENERGY PREDICTED BY IDOCK:   -3.89 KCAL/MOL
REMARK 924 INTRA-LIGAND FREE ENERGY PREDICTED BY IDOCK:   -0.82 KCAL/MOL
REMARK 927      BINDING AFFINITY PREDICTED BY RF-SCORE:    0.00 PKD
ROOT
HETATM    1  O   UNL     1     -13.340  10.084  70.876  1.00  0.00    -0.382 OA 
HETATM    2  N   UNL     1     -13.101   8.944  71.266  1.00  0.00    -0.251 N  
HETATM    3  O   UNL     1     -13.857   8.085  71.723  1.00  0.00    -0.365 OA 
HETATM    4  O   UNL     1     -11.728   8.600  71.149  1.00  0.00    -0.278 OA 
ENDROOT
BRANCH   4   5
HETATM    5  C   UNL     1     -11.452   7.284  71.630  1.00  0.00    -0.265 C  
BRANCH   5   6
HETATM    6  C   UNL     1      -9.917   7.103  71.756  1.00  0.00    -0.175 C  
BRANCH   6   7
HETATM    7  O   UNL     1      -9.434   7.170  73.108  1.00  0.00    -0.146 OA 
HETATM    8  O   UNL     1      -7.919   8.690  72.388  1.00  0.00    -0.323 OA 
HETATM    9  N   UNL     1      -8.369   8.073  73.351  1.00  0.00    -0.199 N  
HETATM   10  O   UNL     1      -8.064   8.142  74.537  1.00  0.00    -0.243 OA 
ENDBRANCH   6   7
BRANCH   6  11
HETATM   11  C   UNL     1      -9.362   5.872  70.988  1.00  0.00    -0.161 C  
BRANCH  11  12
HETATM   12  O   UNL     1     -10.303   4.800  71.110  1.00  0.00    -0.196 OA 
HETATM   13  O   UNL     1      -8.512   3.439  71.264  1.00  0.00    -0.066 OA 
HETATM   14  O   UNL     1     -10.497   2.836  72.090  1.00  0.00    -0.075 OA 
HETATM   15  N   UNL     1      -9.705   3.585  71.527  1.00  0.00    -0.165 N  
ENDBRANCH  11  12
BRANCH  11  16
HETATM   16  C   UNL     1      -9.050   6.170  69.507  1.00  0.00    -0.139 C  
BRANCH  16  17
HETATM   17  O   UNL     1      -7.976   7.100  69.379  1.00  0.00    -0.120 OA 
HETATM   18  N   UNL     1      -8.408   8.332  68.803  1.00  0.00    -0.123 N  
HETATM   19  O   UNL     1      -7.517   9.178  68.774  1.00  0.00    -0.074 OA 
HETATM   20  O   UNL     1      -9.568   8.387  68.404  1.00  0.00    -0.145 OA 
ENDBRANCH  16  17
ENDBRANCH  11  16
ENDBRANCH   6  11
ENDBRANCH   5   6
ENDBRANCH   4   5
TORSDOF 7
ENDMDL
MODEL      310
REMARK 921   NORMALIZED FREE ENERGY PREDICTED BY IDOCK:   -2.65 KCAL/MOL
REMARK 922        TOTAL FREE ENERGY PREDICTED BY IDOCK:   -4.67 KCAL/MOL
REMARK 923 INTER-LIGAND FREE ENERGY PREDICTED BY IDOCK:   -3.87 KCAL/MOL
REMARK 924 INTRA-LIGAND FREE ENERGY PREDICTED BY IDOCK:   -0.80 KCAL/MOL
REMARK 927      BINDING AFFINITY PREDICTED BY RF-SCORE:    0.00 PKD
ROOT
HETATM    1  O   UNL     1     -12.297  12.058  70.820  1.00  0.00    -0.375 OA 
HETATM    2  N   UNL     1     -11.984  11.187  70.014  1.00  0.00    -0.335 N  
HETATM    3  O   UNL     1     -12.211  11.103  68.806  1.00  0.00    -0.555 OA 
HETATM    4  O   UNL     1     -11.241  10.132  70.606  1.00  0.00    -0.305 OA 
ENDROOT
BRANCH   4   5
HETATM    5  C   UNL     1     -10.904   9.108  69.670  1.00  0.00    -0.197 C  
BRANCH   5   6
HETATM    6  C   UNL     1      -9.361   8.983  69.589  1.00  0.00    -0.167 C  
BRANCH   6   7
HETATM    7  O   UNL     1      -8.675  10.246  69.602  1.00  0.00    -0.173 OA 
HETATM    8  O   UNL     1      -8.594  10.114  67.343  1.00  0.00    -0.122 OA 
HETATM    9  N   UNL     1      -8.325  10.784  68.338  1.00  0.00    -0.125 N  
HETATM   10  O   UNL     1      -7.820  11.899  68.419  1.00  0.00    -0.129 OA 
ENDBRANCH   6   7
BRANCH   6  11
HETATM   11  C   UNL     1      -8.755   7.970  70.600  1.00  0.00    -0.131 C  
BRANCH  11  12
HETATM   12  O   UNL     1      -7.419   7.663  70.187  1.00  0.00    -0.080 OA 
HETATM   13  O   UNL     1      -8.211   5.621  69.648  1.00  0.00    -0.103 OA 
HETATM   14  O   UNL     1      -6.362   6.432  68.696  1.00  0.00    -0.034 OA 
HETATM   15  N   UNL     1      -7.336   6.460  69.442  1.00  0.00    -0.089 N  
ENDBRANCH  11  12
BRANCH  11  16
HETATM   16  C   UNL     1      -8.782   8.477  72.057  1.00  0.00    -0.196 C  
BRANCH  16  17
HETATM   17  O   UNL     1      -9.777   7.801  72.823  1.00  0.00    -0.187 OA 
HETATM   18  N   UNL     1      -9.196   6.936  73.799  1.00  0.00    -0.164 N  
HETATM   19  O   UNL     1     -10.036   6.418  74.531  1.00  0.00    -0.302 OA 
HETATM   20  O   UNL     1      -7.975   6.805  73.774  1.00  0.00    -0.101 OA 
ENDBRANCH  16  17
ENDBRANCH  11  16
ENDBRANCH   6  11
ENDBRANCH   5   6
ENDBRANCH   4   5
TORSDOF 7
ENDMDL
MODEL      311
REMARK 921   NORMALIZED FREE ENERGY PREDICTED BY IDOCK:   -2.64 KCAL/MOL
REMARK 922        TOTAL FREE ENERGY PREDICTED BY IDOCK:   -4.66 KCAL/MOL
REMARK 923 INTER-LIGAND FREE ENERGY PREDICTED BY IDOCK:   -3.88 KCAL/MOL
REMARK 924 INTRA-LIGAND FREE ENERGY PREDICTED BY IDOCK:   -0.77 KCAL/MOL
REMARK 927      BINDING AFFINITY PREDICTED BY RF-SCORE:    0.00 PKD
ROOT
HETATM    1  O   UNL     1      -7.827  11.700  68.923  1.00  0.00    -0.118 OA 
HETATM    2  N   UNL     1      -7.508  10.690  69.544  1.00  0.00    -0.141 N  
HETATM    3  O   UNL     1      -6.950  10.572  70.636  1.00  0.00    -0.300 OA 
HETATM    4  O   UNL     1      -7.859   9.493  68.865  1.00  0.00    -0.078 OA 
ENDROOT
BRANCH   4   5
HETATM    5  C   UNL     1      -7.460   8.322  69.579  1.00  0.00    -0.086 C  
BRANCH   5   6
HETATM    6  C   UNL     1      -8.721   7.496  69.941  1.00  0.00    -0.140 C  
BRANCH   6   7
HETATM    7  O   UNL     1      -8.809   7.151  71.334  1.00  0.00    -0.131 OA 
HETATM    8  O   UNL     1      -8.487   4.996  70.719  1.00  0.00    -0.110 OA 
HETATM    9  N   UNL     1      -8.646   5.780  71.652  1.00  0.00    -0.131 N  
HETATM   10  O   UNL     1      -8.648   5.569  72.861  1.00  0.00    -0.119 OA 
ENDBRANCH   6   7
BRANCH   6  11
HETATM   11  C   UNL     1     -10.047   8.095  69.394  1.00  0.00    -0.194 C  
BRANCH  11  12
HETATM   12  O   UNL     1     -10.208   7.670  68.037  1.00  0.00    -0.186 OA 
HETATM   13  O   UNL     1     -10.800   9.801  67.595  1.00  0.00    -0.282 OA 
HETATM   14  O   UNL     1     -10.005   8.466  65.992  1.00  0.00    -0.153 OA 
HETATM   15  N   UNL     1     -10.349   8.754  67.134  1.00  0.00    -0.281 N  
ENDBRANCH  11  12
BRANCH  11  16
HETATM   16  C   UNL     1     -11.279   7.717  70.243  1.00  0.00    -0.206 C  
BRANCH  16  17
HETATM   17  O   UNL     1     -12.092   8.858  70.513  1.00  0.00    -0.096 OA 
HETATM   18  N   UNL     1     -12.377   8.986  71.906  1.00  0.00    -0.359 N  
HETATM   19  O   UNL     1     -12.996  10.015  72.169  1.00  0.00    -0.418 OA 
HETATM   20  O   UNL     1     -12.000   8.076  72.641  1.00  0.00    -0.356 OA 
ENDBRANCH  16  17
ENDBRANCH  11  16
ENDBRANCH   6  11
ENDBRANCH   5   6
ENDBRANCH   4   5
TORSDOF 7
ENDMDL
MODEL      312
REMARK 921   NORMALIZED FREE ENERGY PREDICTED BY IDOCK:   -2.64 KCAL/MOL
REMARK 922        TOTAL FREE ENERGY PREDICTED BY IDOCK:   -4.65 KCAL/MOL
REMARK 923 INTER-LIGAND FREE ENERGY PREDICTED BY IDOCK:   -3.79 KCAL/MOL
REMARK 924 INTRA-LIGAND FREE ENERGY PREDICTED BY IDOCK:   -0.86 KCAL/MOL
REMARK 927      BINDING AFFINITY PREDICTED BY RF-SCORE:    0.00 PKD
ROOT
HETATM    1  O   UNL     1     -12.648   6.332  71.965  1.00  0.00    -0.269 OA 
HETATM    2  N   UNL     1     -11.645   6.389  71.258  1.00  0.00    -0.315 N  
HETATM    3  O   UNL     1     -10.461   6.201  71.541  1.00  0.00    -0.210 OA 
HETATM    4  O   UNL     1     -11.942   6.722  69.910  1.00  0.00    -0.244 OA 
ENDROOT
BRANCH   4   5
HETATM    5  C   UNL     1     -10.771   6.813  69.099  1.00  0.00    -0.253 C  
BRANCH   5   6
HETATM    6  C   UNL     1     -10.521   8.300  68.736  1.00  0.00    -0.177 C  
BRANCH   6   7
HETATM    7  O   UNL     1     -10.649   9.199  69.850  1.00  0.00    -0.216 OA 
HETATM    8  O   UNL     1     -11.921  10.514  68.517  1.00  0.00    -0.354 OA 
HETATM    9  N   UNL     1     -11.444  10.352  69.638  1.00  0.00    -0.259 N  
HETATM   10  O   UNL     1     -11.580  11.030  70.653  1.00  0.00    -0.312 OA 
ENDBRANCH   6   7
BRANCH   6  11
HETATM   11  C   UNL     1      -9.217   8.541  67.927  1.00  0.00    -0.139 C  
BRANCH  11  12
HETATM   12  O   UNL     1      -8.377   7.390  68.068  1.00  0.00    -0.122 OA 
HETATM   13  O   UNL     1      -6.895   8.773  69.056  1.00  0.00    -0.057 OA 
HETATM   14  O   UNL     1      -6.860   6.574  69.442  1.00  0.00    -0.060 OA 
HETATM   15  N   UNL     1      -7.281   7.611  68.938  1.00  0.00    -0.079 N  
ENDBRANCH  11  12
BRANCH  11  16
HETATM   16  C   UNL     1      -9.476   8.860  66.439  1.00  0.00    -0.220 C  
BRANCH  16  17
HETATM   17  O   UNL     1      -8.468   9.720  65.910  1.00  0.00    -0.124 OA 
HETATM   18  N   UNL     1      -7.848   9.159  64.753  1.00  0.00    -0.114 N  
HETATM   19  O   UNL     1      -7.046   9.927  64.228  1.00  0.00    -0.122 OA 
HETATM   20  O   UNL     1      -8.167   8.013  64.447  1.00  0.00    -0.147 OA 
ENDBRANCH  16  17
ENDBRANCH  11  16
ENDBRANCH   6  11
ENDBRANCH   5   6
ENDBRANCH   4   5
TORSDOF 7
ENDMDL
MODEL      313
REMARK 921   NORMALIZED FREE ENERGY PREDICTED BY IDOCK:   -2.62 KCAL/MOL
REMARK 922        TOTAL FREE ENERGY PREDICTED BY IDOCK:   -4.64 KCAL/MOL
REMARK 923 INTER-LIGAND FREE ENERGY PREDICTED BY IDOCK:   -4.49 KCAL/MOL
REMARK 924 INTRA-LIGAND FREE ENERGY PREDICTED BY IDOCK:   -0.14 KCAL/MOL
REMARK 927      BINDING AFFINITY PREDICTED BY RF-SCORE:    0.00 PKD
ROOT
HETATM    1  O   UNL     1     -13.332  11.426  72.070  1.00  0.00    -0.467 OA 
HETATM    2  N   UNL     1     -13.390  10.201  72.016  1.00  0.00    -0.434 N  
HETATM    3  O   UNL     1     -14.259   9.427  72.423  1.00  0.00    -0.338 OA 
HETATM    4  O   UNL     1     -12.263   9.625  71.372  1.00  0.00    -0.332 OA 
ENDROOT
BRANCH   4   5
HETATM    5  C   UNL     1     -12.323   8.199  71.337  1.00  0.00    -0.298 C  
BRANCH   5   6
HETATM    6  C   UNL     1     -10.885   7.635  71.204  1.00  0.00    -0.235 C  
BRANCH   6   7
HETATM    7  O   UNL     1     -10.677   6.402  71.913  1.00  0.00    -0.214 OA 
HETATM    8  O   UNL     1      -9.784   7.630  73.592  1.00  0.00    -0.287 OA 
HETATM    9  N   UNL     1     -10.099   6.508  73.202  1.00  0.00    -0.181 N  
HETATM   10  O   UNL     1     -10.028   5.428  73.782  1.00  0.00    -0.163 OA 
ENDBRANCH   6   7
BRANCH   6  11
HETATM   11  C   UNL     1     -10.363   7.574  69.742  1.00  0.00    -0.221 C  
BRANCH  11  12
HETATM   12  O   UNL     1     -10.020   8.901  69.328  1.00  0.00    -0.182 OA 
HETATM   13  O   UNL     1     -10.066   8.098  67.221  1.00  0.00    -0.192 OA 
HETATM   14  O   UNL     1     -10.355  10.273  67.636  1.00  0.00    -0.192 OA 
HETATM   15  N   UNL     1     -10.165   9.097  67.932  1.00  0.00    -0.204 N  
ENDBRANCH  11  12
BRANCH  11  16
HETATM   16  C   UNL     1      -9.169   6.613  69.563  1.00  0.00    -0.143 C  
BRANCH  16  17
HETATM   17  O   UNL     1      -9.610   5.287  69.274  1.00  0.00    -0.134 OA 
HETATM   18  N   UNL     1      -8.631   4.554  68.537  1.00  0.00    -0.092 N  
HETATM   19  O   UNL     1      -8.953   3.381  68.361  1.00  0.00    -0.109 OA 
HETATM   20  O   UNL     1      -7.634   5.168  68.166  1.00  0.00    -0.078 OA 
ENDBRANCH  16  17
ENDBRANCH  11  16
ENDBRANCH   6  11
ENDBRANCH   5   6
ENDBRANCH   4   5
TORSDOF 7
ENDMDL
MODEL      314
REMARK 921   NORMALIZED FREE ENERGY PREDICTED BY IDOCK:   -2.61 KCAL/MOL
REMARK 922        TOTAL FREE ENERGY PREDICTED BY IDOCK:   -4.62 KCAL/MOL
REMARK 923 INTER-LIGAND FREE ENERGY PREDICTED BY IDOCK:   -3.84 KCAL/MOL
REMARK 924 INTRA-LIGAND FREE ENERGY PREDICTED BY IDOCK:   -0.78 KCAL/MOL
REMARK 927      BINDING AFFINITY PREDICTED BY RF-SCORE:    0.00 PKD
ROOT
HETATM    1  O   UNL     1     -10.438  16.554  69.474  1.00  0.00    -0.298 OA 
HETATM    2  N   UNL     1      -9.395  16.072  69.041  1.00  0.00    -0.226 N  
HETATM    3  O   UNL     1      -8.229  16.253  69.394  1.00  0.00    -0.202 OA 
HETATM    4  O   UNL     1      -9.612  15.167  67.969  1.00  0.00    -0.201 OA 
ENDROOT
BRANCH   4   5
HETATM    5  C   UNL     1      -8.395  14.631  67.450  1.00  0.00    -0.206 C  
BRANCH   5   6
HETATM    6  C   UNL     1      -8.294  13.134  67.839  1.00  0.00    -0.170 C  
BRANCH   6   7
HETATM    7  O   UNL     1      -7.818  12.912  69.177  1.00  0.00     0.171 OA 
HETATM    8  O   UNL     1      -6.146  11.681  68.273  1.00  0.00    -0.049 OA 
HETATM    9  N   UNL     1      -6.640  12.135  69.303  1.00  0.00    -0.108 N  
HETATM   10  O   UNL     1      -6.243  12.057  70.462  1.00  0.00    -0.234 OA 
ENDBRANCH   6   7
BRANCH   6  11
HETATM   11  C   UNL     1      -9.574  12.311  67.521  1.00  0.00    -0.184 C  
BRANCH  11  12
HETATM   12  O   UNL     1      -9.890  12.485  66.135  1.00  0.00    -0.251 OA 
HETATM   13  O   UNL     1     -11.933  13.135  66.835  1.00  0.00    -0.380 OA 
HETATM   14  O   UNL     1     -11.139  13.760  64.844  1.00  0.00    -0.329 OA 
HETATM   15  N   UNL     1     -11.100  13.194  65.932  1.00  0.00    -0.277 N  
ENDBRANCH  11  12
BRANCH  11  16
HETATM   16  C   UNL     1      -9.437  10.815  67.875  1.00  0.00    -0.157 C  
BRANCH  16  17
HETATM   17  O   UNL     1      -9.918  10.548  69.191  1.00  0.00    -0.204 OA 
HETATM   18  N   UNL     1      -9.000   9.750  69.938  1.00  0.00    -0.222 N  
HETATM   19  O   UNL     1      -9.353   9.589  71.104  1.00  0.00    -0.222 OA 
HETATM   20  O   UNL     1      -8.017   9.321  69.339  1.00  0.00    -0.090 OA 
ENDBRANCH  16  17
ENDBRANCH  11  16
ENDBRANCH   6  11
ENDBRANCH   5   6
ENDBRANCH   4   5
TORSDOF 7
ENDMDL
MODEL      315
REMARK 921   NORMALIZED FREE ENERGY PREDICTED BY IDOCK:   -2.61 KCAL/MOL
REMARK 922        TOTAL FREE ENERGY PREDICTED BY IDOCK:   -4.62 KCAL/MOL
REMARK 923 INTER-LIGAND FREE ENERGY PREDICTED BY IDOCK:   -4.70 KCAL/MOL
REMARK 924 INTRA-LIGAND FREE ENERGY PREDICTED BY IDOCK:    0.08 KCAL/MOL
REMARK 927      BINDING AFFINITY PREDICTED BY RF-SCORE:    0.00 PKD
ROOT
HETATM    1  O   UNL     1      -6.154   9.054  69.243  1.00  0.00    -0.041 OA 
HETATM    2  N   UNL     1      -6.935   9.399  70.127  1.00  0.00    -0.065 N  
HETATM    3  O   UNL     1      -6.786  10.197  71.053  1.00  0.00    -0.342 OA 
HETATM    4  O   UNL     1      -8.197   8.756  70.025  1.00  0.00    -0.108 OA 
ENDROOT
BRANCH   4   5
HETATM    5  C   UNL     1      -9.091   9.139  71.071  1.00  0.00    -0.237 C  
BRANCH   5   6
HETATM    6  C   UNL     1     -10.532   9.214  70.503  1.00  0.00    -0.236 C  
BRANCH   6   7
HETATM    7  O   UNL     1     -11.467   9.870  71.376  1.00  0.00    -0.371 OA 
HETATM    8  O   UNL     1     -12.756   8.015  71.229  1.00  0.00    -0.296 OA 
HETATM    9  N   UNL     1     -12.623   9.131  71.727  1.00  0.00    -0.344 N  
HETATM   10  O   UNL     1     -13.333   9.716  72.539  1.00  0.00    -0.390 OA 
ENDBRANCH   6   7
BRANCH   6  11
HETATM   11  C   UNL     1     -10.609   9.746  69.045  1.00  0.00    -0.219 C  
BRANCH  11  12
HETATM   12  O   UNL     1     -10.220  11.124  69.045  1.00  0.00    -0.209 OA 
HETATM   13  O   UNL     1     -12.121  11.507  67.892  1.00  0.00    -0.630 OA 
HETATM   14  O   UNL     1     -11.137  13.127  69.071  1.00  0.00    -0.249 OA 
HETATM   15  N   UNL     1     -11.263  11.989  68.630  1.00  0.00    -0.236 N  
ENDBRANCH  11  12
BRANCH  11  16
HETATM   16  C   UNL     1      -9.752   8.928  68.055  1.00  0.00    -0.156 C  
BRANCH  16  17
HETATM   17  O   UNL     1     -10.340   7.657  67.786  1.00  0.00    -0.194 OA 
HETATM   18  N   UNL     1      -9.408   6.760  67.184  1.00  0.00    -0.132 N  
HETATM   19  O   UNL     1      -9.869   5.631  67.032  1.00  0.00    -0.131 OA 
HETATM   20  O   UNL     1      -8.307   7.214  66.884  1.00  0.00    -0.115 OA 
ENDBRANCH  16  17
ENDBRANCH  11  16
ENDBRANCH   6  11
ENDBRANCH   5   6
ENDBRANCH   4   5
TORSDOF 7
ENDMDL
MODEL      316
REMARK 921   NORMALIZED FREE ENERGY PREDICTED BY IDOCK:   -2.60 KCAL/MOL
REMARK 922        TOTAL FREE ENERGY PREDICTED BY IDOCK:   -4.61 KCAL/MOL
REMARK 923 INTER-LIGAND FREE ENERGY PREDICTED BY IDOCK:   -3.63 KCAL/MOL
REMARK 924 INTRA-LIGAND FREE ENERGY PREDICTED BY IDOCK:   -0.98 KCAL/MOL
REMARK 927      BINDING AFFINITY PREDICTED BY RF-SCORE:    0.00 PKD
ROOT
HETATM    1  O   UNL     1      -7.777  11.114  69.022  1.00  0.00    -0.133 OA 
HETATM    2  N   UNL     1      -7.556   9.986  69.455  1.00  0.00    -0.116 N  
HETATM    3  O   UNL     1      -7.079   9.628  70.533  1.00  0.00    -0.115 OA 
HETATM    4  O   UNL     1      -7.928   8.965  68.542  1.00  0.00    -0.101 OA 
ENDROOT
BRANCH   4   5
HETATM    5  C   UNL     1      -7.644   7.657  69.039  1.00  0.00    -0.104 C  
BRANCH   5   6
HETATM    6  C   UNL     1      -8.947   6.817  69.030  1.00  0.00    -0.131 C  
BRANCH   6   7
HETATM    7  O   UNL     1      -9.030   5.885  67.939  1.00  0.00    -0.113 OA 
HETATM    8  O   UNL     1     -10.586   7.248  67.019  1.00  0.00    -0.306 OA 
HETATM    9  N   UNL     1      -9.925   6.219  66.893  1.00  0.00    -0.158 N  
HETATM   10  O   UNL     1      -9.883   5.425  65.958  1.00  0.00    -0.152 OA 
ENDBRANCH   6   7
BRANCH   6  11
HETATM   11  C   UNL     1      -9.285   6.161  70.397  1.00  0.00    -0.153 C  
BRANCH  11  12
HETATM   12  O   UNL     1      -9.231   7.173  71.409  1.00  0.00    -0.150 OA 
HETATM   13  O   UNL     1      -7.994   5.709  72.599  1.00  0.00    -0.102 OA 
HETATM   14  O   UNL     1      -7.873   7.905  72.982  1.00  0.00    -0.110 OA 
HETATM   15  N   UNL     1      -8.275   6.893  72.417  1.00  0.00    -0.104 N  
ENDBRANCH  11  12
BRANCH  11  16
HETATM   16  C   UNL     1     -10.650   5.442  70.404  1.00  0.00    -0.252 C  
BRANCH  16  17
HETATM   17  O   UNL     1     -11.721   6.359  70.186  1.00  0.00    -0.422 OA 
HETATM   18  N   UNL     1     -12.450   6.617  71.386  1.00  0.00    -0.314 N  
HETATM   19  O   UNL     1     -13.315   7.477  71.237  1.00  0.00    -0.323 OA 
HETATM   20  O   UNL     1     -12.147   5.958  72.377  1.00  0.00    -0.270 OA 
ENDBRANCH  16  17
ENDBRANCH  11  16
ENDBRANCH   6  11
ENDBRANCH   5   6
ENDBRANCH   4   5
TORSDOF 7
ENDMDL
MODEL      317
REMARK 921   NORMALIZED FREE ENERGY PREDICTED BY IDOCK:   -2.60 KCAL/MOL
REMARK 922        TOTAL FREE ENERGY PREDICTED BY IDOCK:   -4.60 KCAL/MOL
REMARK 923 INTER-LIGAND FREE ENERGY PREDICTED BY IDOCK:   -4.35 KCAL/MOL
REMARK 924 INTRA-LIGAND FREE ENERGY PREDICTED BY IDOCK:   -0.25 KCAL/MOL
REMARK 927      BINDING AFFINITY PREDICTED BY RF-SCORE:    0.00 PKD
ROOT
HETATM    1  O   UNL     1     -13.038  11.079  70.772  1.00  0.00    -0.236 OA 
HETATM    2  N   UNL     1     -12.894  10.094  71.491  1.00  0.00    -0.405 N  
HETATM    3  O   UNL     1     -13.694   9.535  72.243  1.00  0.00    -0.440 OA 
HETATM    4  O   UNL     1     -11.589   9.540  71.410  1.00  0.00    -0.340 OA 
ENDROOT
BRANCH   4   5
HETATM    5  C   UNL     1     -11.419   8.412  72.268  1.00  0.00    -0.384 C  
BRANCH   5   6
HETATM    6  C   UNL     1      -9.978   7.865  72.107  1.00  0.00    -0.207 C  
BRANCH   6   7
HETATM    7  O   UNL     1      -9.193   7.931  73.310  1.00  0.00    -0.232 OA 
HETATM    8  O   UNL     1      -7.568   8.915  72.079  1.00  0.00    -0.325 OA 
HETATM    9  N   UNL     1      -7.918   8.537  73.195  1.00  0.00    -0.068 N  
HETATM   10  O   UNL     1      -7.339   8.636  74.273  1.00  0.00    -0.342 OA 
ENDBRANCH   6   7
BRANCH   6  11
HETATM   11  C   UNL     1      -9.905   6.470  71.428  1.00  0.00    -0.176 C  
BRANCH  11  12
HETATM   12  O   UNL     1     -11.096   5.745  71.753  1.00  0.00    -0.265 OA 
HETATM   13  O   UNL     1      -9.727   4.130  72.529  1.00  0.00    -0.136 OA 
HETATM   14  O   UNL     1     -11.832   4.307  73.251  1.00  0.00    -0.137 OA 
HETATM   15  N   UNL     1     -10.851   4.627  72.588  1.00  0.00    -0.182 N  
ENDBRANCH  11  12
BRANCH  11  16
HETATM   16  C   UNL     1      -9.703   6.548  69.900  1.00  0.00    -0.164 C  
BRANCH  16  17
HETATM   17  O   UNL     1      -9.247   5.304  69.372  1.00  0.00    -0.108 OA 
HETATM   18  N   UNL     1      -7.998   4.914  69.944  1.00  0.00    -0.069 N  
HETATM   19  O   UNL     1      -7.637   3.800  69.572  1.00  0.00    -0.052 OA 
HETATM   20  O   UNL     1      -7.450   5.718  70.694  1.00  0.00    -0.081 OA 
ENDBRANCH  16  17
ENDBRANCH  11  16
ENDBRANCH   6  11
ENDBRANCH   5   6
ENDBRANCH   4   5
TORSDOF 7
ENDMDL
MODEL      318
REMARK 921   NORMALIZED FREE ENERGY PREDICTED BY IDOCK:   -2.59 KCAL/MOL
REMARK 922        TOTAL FREE ENERGY PREDICTED BY IDOCK:   -4.59 KCAL/MOL
REMARK 923 INTER-LIGAND FREE ENERGY PREDICTED BY IDOCK:   -3.72 KCAL/MOL
REMARK 924 INTRA-LIGAND FREE ENERGY PREDICTED BY IDOCK:   -0.87 KCAL/MOL
REMARK 927      BINDING AFFINITY PREDICTED BY RF-SCORE:    0.00 PKD
ROOT
HETATM    1  O   UNL     1      -6.103   6.017  70.947  1.00  0.00    -0.034 OA 
HETATM    2  N   UNL     1      -6.855   6.898  70.540  1.00  0.00    -0.057 N  
HETATM    3  O   UNL     1      -6.752   7.643  69.564  1.00  0.00    -0.036 OA 
HETATM    4  O   UNL     1      -8.014   7.047  71.346  1.00  0.00    -0.102 OA 
ENDROOT
BRANCH   4   5
HETATM    5  C   UNL     1      -8.871   8.092  70.885  1.00  0.00    -0.139 C  
BRANCH   5   6
HETATM    6  C   UNL     1     -10.286   7.511  70.632  1.00  0.00    -0.208 C  
BRANCH   6   7
HETATM    7  O   UNL     1     -10.280   6.190  70.067  1.00  0.00    -0.177 OA 
HETATM    8  O   UNL     1     -11.190   7.089  68.199  1.00  0.00    -0.066 OA 
HETATM    9  N   UNL     1     -10.766   6.071  68.742  1.00  0.00    -0.284 N  
HETATM   10  O   UNL     1     -10.653   4.934  68.293  1.00  0.00     0.043 OA 
ENDBRANCH   6   7
BRANCH   6  11
HETATM   11  C   UNL     1     -11.244   7.631  71.850  1.00  0.00    -0.257 C  
BRANCH  11  12
HETATM   12  O   UNL     1     -10.465   7.552  73.048  1.00  0.00    -0.274 OA 
HETATM   13  O   UNL     1     -11.331   5.485  73.301  1.00  0.00    -0.265 OA 
HETATM   14  O   UNL     1      -9.399   6.055  74.264  1.00  0.00    -0.130 OA 
HETATM   15  N   UNL     1     -10.399   6.239  73.577  1.00  0.00    -0.234 N  
ENDBRANCH  11  12
BRANCH  11  16
HETATM   16  C   UNL     1     -12.097   8.917  71.827  1.00  0.00    -0.362 C  
BRANCH  16  17
HETATM   17  O   UNL     1     -12.328   9.363  70.492  1.00  0.00    -0.115 OA 
HETATM   18  N   UNL     1     -12.528  10.775  70.433  1.00  0.00    -0.342 N  
HETATM   19  O   UNL     1     -12.633  11.190  69.281  1.00  0.00    -0.336 OA 
HETATM   20  O   UNL     1     -12.589  11.377  71.502  1.00  0.00    -0.348 OA 
ENDBRANCH  16  17
ENDBRANCH  11  16
ENDBRANCH   6  11
ENDBRANCH   5   6
ENDBRANCH   4   5
TORSDOF 7
ENDMDL
MODEL      319
REMARK 921   NORMALIZED FREE ENERGY PREDICTED BY IDOCK:   -2.58 KCAL/MOL
REMARK 922        TOTAL FREE ENERGY PREDICTED BY IDOCK:   -4.57 KCAL/MOL
REMARK 923 INTER-LIGAND FREE ENERGY PREDICTED BY IDOCK:   -4.04 KCAL/MOL
REMARK 924 INTRA-LIGAND FREE ENERGY PREDICTED BY IDOCK:   -0.53 KCAL/MOL
REMARK 927      BINDING AFFINITY PREDICTED BY RF-SCORE:    0.00 PKD
ROOT
HETATM    1  O   UNL     1      -5.337   6.370  67.696  1.00  0.00    -0.004 OA 
HETATM    2  N   UNL     1      -6.389   6.456  67.068  1.00  0.00    -0.039 N  
HETATM    3  O   UNL     1      -6.611   6.307  65.865  1.00  0.00    -0.045 OA 
HETATM    4  O   UNL     1      -7.498   6.772  67.895  1.00  0.00    -0.094 OA 
ENDROOT
BRANCH   4   5
HETATM    5  C   UNL     1      -8.713   6.898  67.155  1.00  0.00    -0.120 C  
BRANCH   5   6
HETATM    6  C   UNL     1      -9.294   8.319  67.373  1.00  0.00    -0.141 C  
BRANCH   6   7
HETATM    7  O   UNL     1      -9.979   8.848  66.225  1.00  0.00    -0.282 OA 
HETATM    8  O   UNL     1      -8.073   9.962  65.722  1.00  0.00    -0.116 OA 
HETATM    9  N   UNL     1      -9.227   9.706  65.385  1.00  0.00    -0.220 N  
HETATM   10  O   UNL     1      -9.845  10.052  64.382  1.00  0.00    -0.296 OA 
ENDBRANCH   6   7
BRANCH   6  11
HETATM   11  C   UNL     1     -10.122   8.470  68.679  1.00  0.00    -0.190 C  
BRANCH  11  12
HETATM   12  O   UNL     1      -9.589   7.572  69.658  1.00  0.00    -0.160 OA 
HETATM   13  O   UNL     1     -11.702   6.822  69.906  1.00  0.00    -0.306 OA 
HETATM   14  O   UNL     1      -9.951   5.551  70.458  1.00  0.00    -0.186 OA 
HETATM   15  N   UNL     1     -10.507   6.559  70.034  1.00  0.00    -0.200 N  
ENDBRANCH  11  12
BRANCH  11  16
HETATM   16  C   UNL     1     -10.153   9.917  69.213  1.00  0.00    -0.203 C  
BRANCH  16  17
HETATM   17  O   UNL     1     -11.105  10.061  70.267  1.00  0.00    -0.271 OA 
HETATM   18  N   UNL     1     -12.288  10.726  69.823  1.00  0.00    -0.298 N  
HETATM   19  O   UNL     1     -13.156  10.773  70.692  1.00  0.00    -0.288 OA 
HETATM   20  O   UNL     1     -12.285  11.170  68.678  1.00  0.00    -0.582 OA 
ENDBRANCH  16  17
ENDBRANCH  11  16
ENDBRANCH   6  11
ENDBRANCH   5   6
ENDBRANCH   4   5
TORSDOF 7
ENDMDL
MODEL      320
REMARK 921   NORMALIZED FREE ENERGY PREDICTED BY IDOCK:   -2.57 KCAL/MOL
REMARK 922        TOTAL FREE ENERGY PREDICTED BY IDOCK:   -4.57 KCAL/MOL
REMARK 923 INTER-LIGAND FREE ENERGY PREDICTED BY IDOCK:   -6.47 KCAL/MOL
REMARK 924 INTRA-LIGAND FREE ENERGY PREDICTED BY IDOCK:    1.90 KCAL/MOL
REMARK 927      BINDING AFFINITY PREDICTED BY RF-SCORE:    0.00 PKD
ROOT
HETATM    1  O   UNL     1      -7.176  17.406  68.691  1.00  0.00    -0.217 OA 
HETATM    2  N   UNL     1      -8.349  17.676  68.447  1.00  0.00    -0.283 N  
HETATM    3  O   UNL     1      -8.835  18.632  67.841  1.00  0.00    -0.278 OA 
HETATM    4  O   UNL     1      -9.253  16.707  68.956  1.00  0.00    -0.263 OA 
ENDROOT
BRANCH   4   5
HETATM    5  C   UNL     1     -10.616  17.040  68.693  1.00  0.00    -0.362 C  
BRANCH   5   6
HETATM    6  C   UNL     1     -11.434  15.733  68.526  1.00  0.00    -0.379 C  
BRANCH   6   7
HETATM    7  O   UNL     1     -11.302  15.128  67.229  1.00  0.00    -0.338 OA 
HETATM    8  O   UNL     1      -9.414  14.137  67.991  1.00  0.00    -0.200 OA 
HETATM    9  N   UNL     1     -10.193  14.265  67.048  1.00  0.00    -0.258 N  
HETATM   10  O   UNL     1     -10.189  13.719  65.949  1.00  0.00    -0.296 OA 
ENDBRANCH   6   7
BRANCH   6  11
HETATM   11  C   UNL     1     -11.235  14.712  69.680  1.00  0.00    -0.272 C  
BRANCH  11  12
HETATM   12  O   UNL     1     -11.172  15.432  70.915  1.00  0.00    -0.319 OA 
HETATM   13  O   UNL     1     -13.378  15.814  70.635  1.00  0.00    -0.486 OA 
HETATM   14  O   UNL     1     -12.440  15.889  72.659  1.00  0.00    -0.402 OA 
HETATM   15  N   UNL     1     -12.453  15.733  71.442  1.00  0.00    -0.438 N  
ENDBRANCH  11  12
BRANCH  11  16
HETATM   16  C   UNL     1     -12.332  13.627  69.725  1.00  0.00    -0.228 C  
BRANCH  16  17
HETATM   17  O   UNL     1     -11.815  12.387  70.205  1.00  0.00    -0.324 OA 
HETATM   18  N   UNL     1     -11.703  11.421  69.160  1.00  0.00    -0.313 N  
HETATM   19  O   UNL     1     -11.171  10.379  69.535  1.00  0.00    -0.238 OA 
HETATM   20  O   UNL     1     -12.153  11.732  68.060  1.00  0.00    -0.572 OA 
ENDBRANCH  16  17
ENDBRANCH  11  16
ENDBRANCH   6  11
ENDBRANCH   5   6
ENDBRANCH   4   5
TORSDOF 7
ENDMDL
MODEL      321
REMARK 921   NORMALIZED FREE ENERGY PREDICTED BY IDOCK:   -2.57 KCAL/MOL
REMARK 922        TOTAL FREE ENERGY PREDICTED BY IDOCK:   -4.57 KCAL/MOL
REMARK 923 INTER-LIGAND FREE ENERGY PREDICTED BY IDOCK:   -3.56 KCAL/MOL
REMARK 924 INTRA-LIGAND FREE ENERGY PREDICTED BY IDOCK:   -1.01 KCAL/MOL
REMARK 927      BINDING AFFINITY PREDICTED BY RF-SCORE:    0.00 PKD
ROOT
HETATM    1  O   UNL     1     -11.943  12.028  66.962  1.00  0.00    -0.609 OA 
HETATM    2  N   UNL     1     -10.791  11.987  67.387  1.00  0.00    -0.232 N  
HETATM    3  O   UNL     1     -10.261  12.608  68.309  1.00  0.00    -0.229 OA 
HETATM    4  O   UNL     1      -9.977  11.063  66.679  1.00  0.00    -0.198 OA 
ENDROOT
BRANCH   4   5
HETATM    5  C   UNL     1      -8.633  11.040  67.159  1.00  0.00    -0.136 C  
BRANCH   5   6
HETATM    6  C   UNL     1      -8.384   9.705  67.906  1.00  0.00    -0.117 C  
BRANCH   6   7
HETATM    7  O   UNL     1      -7.456   8.831  67.241  1.00  0.00    -0.087 OA 
HETATM    8  O   UNL     1      -9.213   7.482  66.771  1.00  0.00    -0.141 OA 
HETATM    9  N   UNL     1      -8.005   7.671  66.641  1.00  0.00    -0.105 N  
HETATM   10  O   UNL     1      -7.173   7.017  66.021  1.00  0.00    -0.071 OA 
ENDBRANCH   6   7
BRANCH   6  11
HETATM   11  C   UNL     1      -8.058   9.877  69.416  1.00  0.00    -0.139 C  
BRANCH  11  12
HETATM   12  O   UNL     1      -7.446  11.158  69.603  1.00  0.00    -0.051 OA 
HETATM   13  O   UNL     1      -5.603  10.021  70.232  1.00  0.00    -0.042 OA 
HETATM   14  O   UNL     1      -5.465  12.110  69.457  1.00  0.00    -0.066 OA 
HETATM   15  N   UNL     1      -6.043  11.077  69.779  1.00  0.00    -0.082 N  
ENDBRANCH  11  12
BRANCH  11  16
HETATM   16  C   UNL     1      -9.294   9.715  70.325  1.00  0.00    -0.242 C  
BRANCH  16  17
HETATM   17  O   UNL     1      -9.786   8.376  70.300  1.00  0.00    -0.170 OA 
HETATM   18  N   UNL     1     -11.114   8.290  70.815  1.00  0.00    -0.255 N  
HETATM   19  O   UNL     1     -11.588   7.161  70.713  1.00  0.00    -0.294 OA 
HETATM   20  O   UNL     1     -11.594   9.313  71.298  1.00  0.00    -0.293 OA 
ENDBRANCH  16  17
ENDBRANCH  11  16
ENDBRANCH   6  11
ENDBRANCH   5   6
ENDBRANCH   4   5
TORSDOF 7
ENDMDL
MODEL      322
REMARK 921   NORMALIZED FREE ENERGY PREDICTED BY IDOCK:   -2.57 KCAL/MOL
REMARK 922        TOTAL FREE ENERGY PREDICTED BY IDOCK:   -4.56 KCAL/MOL
REMARK 923 INTER-LIGAND FREE ENERGY PREDICTED BY IDOCK:   -4.43 KCAL/MOL
REMARK 924 INTRA-LIGAND FREE ENERGY PREDICTED BY IDOCK:   -0.13 KCAL/MOL
REMARK 927      BINDING AFFINITY PREDICTED BY RF-SCORE:    0.00 PKD
ROOT
HETATM    1  O   UNL     1      -9.462   3.948  68.008  1.00  0.00    -0.167 OA 
HETATM    2  N   UNL     1      -9.990   5.026  68.269  1.00  0.00    -0.148 N  
HETATM    3  O   UNL     1     -10.122   6.035  67.575  1.00  0.00    -0.132 OA 
HETATM    4  O   UNL     1     -10.523   5.073  69.584  1.00  0.00    -0.255 OA 
ENDROOT
BRANCH   4   5
HETATM    5  C   UNL     1     -11.110   6.337  69.892  1.00  0.00    -0.401 C  
BRANCH   5   6
HETATM    6  C   UNL     1     -10.266   7.035  70.989  1.00  0.00    -0.196 C  
BRANCH   6   7
HETATM    7  O   UNL     1      -9.396   8.063  70.486  1.00  0.00    -0.154 OA 
HETATM    8  O   UNL     1     -11.203   8.950  69.451  1.00  0.00    -0.034 OA 
HETATM    9  N   UNL     1     -10.001   9.063  69.686  1.00  0.00    -0.185 N  
HETATM   10  O   UNL     1      -9.220   9.952  69.363  1.00  0.00    -0.186 OA 
ENDBRANCH   6   7
BRANCH   6  11
HETATM   11  C   UNL     1     -11.092   7.506  72.217  1.00  0.00    -0.273 C  
BRANCH  11  12
HETATM   12  O   UNL     1     -12.471   7.203  71.978  1.00  0.00    -0.299 OA 
HETATM   13  O   UNL     1     -12.897   9.322  72.623  1.00  0.00    -0.334 OA 
HETATM   14  O   UNL     1     -14.320   8.202  71.318  1.00  0.00    -0.361 OA 
HETATM   15  N   UNL     1     -13.295   8.355  71.974  1.00  0.00    -0.345 N  
ENDBRANCH  11  12
BRANCH  11  16
HETATM   16  C   UNL     1     -10.611   6.886  73.546  1.00  0.00    -0.348 C  
BRANCH  16  17
HETATM   17  O   UNL     1      -9.652   5.855  73.320  1.00  0.00    -0.143 OA 
HETATM   18  N   UNL     1     -10.158   4.571  73.687  1.00  0.00    -0.149 N  
HETATM   19  O   UNL     1      -9.381   3.660  73.410  1.00  0.00    -0.103 OA 
HETATM   20  O   UNL     1     -11.258   4.539  74.232  1.00  0.00    -0.218 OA 
ENDBRANCH  16  17
ENDBRANCH  11  16
ENDBRANCH   6  11
ENDBRANCH   5   6
ENDBRANCH   4   5
TORSDOF 7
ENDMDL
MODEL      323
REMARK 921   NORMALIZED FREE ENERGY PREDICTED BY IDOCK:   -2.57 KCAL/MOL
REMARK 922        TOTAL FREE ENERGY PREDICTED BY IDOCK:   -4.56 KCAL/MOL
REMARK 923 INTER-LIGAND FREE ENERGY PREDICTED BY IDOCK:   -3.40 KCAL/MOL
REMARK 924 INTRA-LIGAND FREE ENERGY PREDICTED BY IDOCK:   -1.16 KCAL/MOL
REMARK 927      BINDING AFFINITY PREDICTED BY RF-SCORE:    0.00 PKD
ROOT
HETATM    1  O   UNL     1      -8.914   4.482  73.105  1.00  0.00    -0.115 OA 
HETATM    2  N   UNL     1      -8.841   4.363  71.885  1.00  0.00    -0.115 N  
HETATM    3  O   UNL     1      -9.363   3.537  71.135  1.00  0.00    -0.114 OA 
HETATM    4  O   UNL     1      -8.022   5.354  71.284  1.00  0.00    -0.105 OA 
ENDROOT
BRANCH   4   5
HETATM    5  C   UNL     1      -7.918   5.194  69.869  1.00  0.00    -0.078 C  
BRANCH   5   6
HETATM    6  C   UNL     1      -8.638   6.376  69.171  1.00  0.00    -0.125 C  
BRANCH   6   7
HETATM    7  O   UNL     1      -7.750   7.270  68.479  1.00  0.00    -0.115 OA 
HETATM    8  O   UNL     1      -8.314   8.851  69.998  1.00  0.00    -0.115 OA 
HETATM    9  N   UNL     1      -7.627   8.575  69.017  1.00  0.00    -0.093 N  
HETATM   10  O   UNL     1      -6.791   9.255  68.430  1.00  0.00    -0.062 OA 
ENDBRANCH   6   7
BRANCH   6  11
HETATM   11  C   UNL     1      -9.850   5.950  68.297  1.00  0.00    -0.137 C  
BRANCH  11  12
HETATM   12  O   UNL     1      -9.794   4.533  68.106  1.00  0.00    -0.147 OA 
HETATM   13  O   UNL     1     -10.130   4.962  65.918  1.00  0.00    -0.200 OA 
HETATM   14  O   UNL     1      -9.162   3.065  66.588  1.00  0.00    -0.162 OA 
HETATM   15  N   UNL     1      -9.685   4.165  66.742  1.00  0.00    -0.212 N  
ENDBRANCH  11  12
BRANCH  11  16
HETATM   16  C   UNL     1     -11.208   6.376  68.894  1.00  0.00    -0.307 C  
BRANCH  16  17
HETATM   17  O   UNL     1     -11.375   5.868  70.217  1.00  0.00    -0.322 OA 
HETATM   18  N   UNL     1     -11.621   6.913  71.157  1.00  0.00    -0.300 N  
HETATM   19  O   UNL     1     -11.862   6.487  72.285  1.00  0.00    -0.294 OA 
HETATM   20  O   UNL     1     -11.545   8.067  70.744  1.00  0.00    -0.284 OA 
ENDBRANCH  16  17
ENDBRANCH  11  16
ENDBRANCH   6  11
ENDBRANCH   5   6
ENDBRANCH   4   5
TORSDOF 7
ENDMDL
MODEL      324
REMARK 921   NORMALIZED FREE ENERGY PREDICTED BY IDOCK:   -2.57 KCAL/MOL
REMARK 922        TOTAL FREE ENERGY PREDICTED BY IDOCK:   -4.55 KCAL/MOL
REMARK 923 INTER-LIGAND FREE ENERGY PREDICTED BY IDOCK:   -4.66 KCAL/MOL
REMARK 924 INTRA-LIGAND FREE ENERGY PREDICTED BY IDOCK:    0.11 KCAL/MOL
REMARK 927      BINDING AFFINITY PREDICTED BY RF-SCORE:    0.00 PKD
ROOT
HETATM    1  O   UNL     1     -13.262  10.630  71.852  1.00  0.00    -0.461 OA 
HETATM    2  N   UNL     1     -13.437   9.442  72.114  1.00  0.00    -0.444 N  
HETATM    3  O   UNL     1     -14.409   8.874  72.613  1.00  0.00    -0.613 OA 
HETATM    4  O   UNL     1     -12.324   8.633  71.766  1.00  0.00    -0.307 OA 
ENDROOT
BRANCH   4   5
HETATM    5  C   UNL     1     -12.522   7.259  72.098  1.00  0.00    -0.168 C  
BRANCH   5   6
HETATM    6  C   UNL     1     -11.148   6.608  72.402  1.00  0.00    -0.259 C  
BRANCH   6   7
HETATM    7  O   UNL     1     -11.233   5.225  72.785  1.00  0.00    -0.270 OA 
HETATM    8  O   UNL     1      -9.811   5.708  74.479  1.00  0.00    -0.184 OA 
HETATM    9  N   UNL     1     -10.494   4.844  73.933  1.00  0.00    -0.242 N  
HETATM   10  O   UNL     1     -10.678   3.674  74.251  1.00  0.00    -0.202 OA 
ENDBRANCH   6   7
BRANCH   6  11
HETATM   11  C   UNL     1     -10.076   6.854  71.305  1.00  0.00    -0.190 C  
BRANCH  11  12
HETATM   12  O   UNL     1      -9.461   5.601  70.984  1.00  0.00    -0.160 OA 
HETATM   13  O   UNL     1      -7.631   6.398  72.035  1.00  0.00    -0.093 OA 
HETATM   14  O   UNL     1      -7.969   4.203  71.806  1.00  0.00    -0.079 OA 
HETATM   15  N   UNL     1      -8.243   5.392  71.678  1.00  0.00    -0.117 N  
ENDBRANCH  11  12
BRANCH  11  16
HETATM   16  C   UNL     1     -10.647   7.531  70.040  1.00  0.00    -0.237 C  
BRANCH  16  17
HETATM   17  O   UNL     1      -9.691   7.541  68.982  1.00  0.00    -0.159 OA 
HETATM   18  N   UNL     1      -9.681   8.791  68.291  1.00  0.00    -0.154 N  
HETATM   19  O   UNL     1      -8.798   8.852  67.438  1.00  0.00    -0.128 OA 
HETATM   20  O   UNL     1     -10.536   9.613  68.609  1.00  0.00    -0.197 OA 
ENDBRANCH  16  17
ENDBRANCH  11  16
ENDBRANCH   6  11
ENDBRANCH   5   6
ENDBRANCH   4   5
TORSDOF 7
ENDMDL
MODEL      325
REMARK 921   NORMALIZED FREE ENERGY PREDICTED BY IDOCK:   -2.56 KCAL/MOL
REMARK 922        TOTAL FREE ENERGY PREDICTED BY IDOCK:   -4.55 KCAL/MOL
REMARK 923 INTER-LIGAND FREE ENERGY PREDICTED BY IDOCK:   -3.77 KCAL/MOL
REMARK 924 INTRA-LIGAND FREE ENERGY PREDICTED BY IDOCK:   -0.78 KCAL/MOL
REMARK 927      BINDING AFFINITY PREDICTED BY RF-SCORE:    0.00 PKD
ROOT
HETATM    1  O   UNL     1     -13.694   7.583  71.323  1.00  0.00    -0.339 OA 
HETATM    2  N   UNL     1     -12.714   6.845  71.390  1.00  0.00    -0.362 N  
HETATM    3  O   UNL     1     -12.289   6.171  72.330  1.00  0.00    -0.271 OA 
HETATM    4  O   UNL     1     -11.988   6.784  70.172  1.00  0.00    -0.328 OA 
ENDROOT
BRANCH   4   5
HETATM    5  C   UNL     1     -10.835   5.948  70.263  1.00  0.00    -0.320 C  
BRANCH   5   6
HETATM    6  C   UNL     1      -9.659   6.769  70.851  1.00  0.00    -0.168 C  
BRANCH   6   7
HETATM    7  O   UNL     1      -8.793   6.010  71.712  1.00  0.00    -0.138 OA 
HETATM    8  O   UNL     1      -9.373   7.427  73.380  1.00  0.00    -0.169 OA 
HETATM    9  N   UNL     1      -8.726   6.431  73.063  1.00  0.00    -0.124 N  
HETATM   10  O   UNL     1      -8.038   5.690  73.759  1.00  0.00    -0.107 OA 
ENDBRANCH   6   7
BRANCH   6  11
HETATM   11  C   UNL     1      -8.870   7.588  69.792  1.00  0.00    -0.141 C  
BRANCH  11  12
HETATM   12  O   UNL     1      -7.595   7.932  70.344  1.00  0.00    -0.079 OA 
HETATM   13  O   UNL     1      -8.398  10.032  70.515  1.00  0.00    -0.124 OA 
HETATM   14  O   UNL     1      -6.717   9.329  71.804  1.00  0.00    -0.285 OA 
HETATM   15  N   UNL     1      -7.581   9.217  70.940  1.00  0.00    -0.127 N  
ENDBRANCH  11  12
BRANCH  11  16
HETATM   16  C   UNL     1      -8.711   6.848  68.447  1.00  0.00    -0.124 C  
BRANCH  16  17
HETATM   17  O   UNL     1      -9.495   7.458  67.423  1.00  0.00    -0.135 OA 
HETATM   18  N   UNL     1      -8.703   8.285  66.572  1.00  0.00    -0.134 N  
HETATM   19  O   UNL     1      -9.343   8.742  65.628  1.00  0.00    -0.214 OA 
HETATM   20  O   UNL     1      -7.527   8.447  66.886  1.00  0.00    -0.085 OA 
ENDBRANCH  16  17
ENDBRANCH  11  16
ENDBRANCH   6  11
ENDBRANCH   5   6
ENDBRANCH   4   5
TORSDOF 7
ENDMDL
MODEL      326
REMARK 921   NORMALIZED FREE ENERGY PREDICTED BY IDOCK:   -2.56 KCAL/MOL
REMARK 922        TOTAL FREE ENERGY PREDICTED BY IDOCK:   -4.55 KCAL/MOL
REMARK 923 INTER-LIGAND FREE ENERGY PREDICTED BY IDOCK:   -3.41 KCAL/MOL
REMARK 924 INTRA-LIGAND FREE ENERGY PREDICTED BY IDOCK:   -1.14 KCAL/MOL
REMARK 927      BINDING AFFINITY PREDICTED BY RF-SCORE:    0.00 PKD
ROOT
HETATM    1  O   UNL     1      -6.003   5.956  70.987  1.00  0.00    -0.027 OA 
HETATM    2  N   UNL     1      -6.885   6.591  70.415  1.00  0.00    -0.060 N  
HETATM    3  O   UNL     1      -6.862   7.189  69.338  1.00  0.00    -0.048 OA 
HETATM    4  O   UNL     1      -8.106   6.611  71.138  1.00  0.00    -0.110 OA 
ENDROOT
BRANCH   4   5
HETATM    5  C   UNL     1      -9.119   7.373  70.481  1.00  0.00    -0.157 C  
BRANCH   5   6
HETATM    6  C   UNL     1     -10.371   6.482  70.274  1.00  0.00    -0.201 C  
BRANCH   6   7
HETATM    7  O   UNL     1     -11.612   7.205  70.317  1.00  0.00    -0.277 OA 
HETATM    8  O   UNL     1     -12.076   6.103  72.240  1.00  0.00    -0.311 OA 
HETATM    9  N   UNL     1     -12.451   6.947  71.429  1.00  0.00    -0.372 N  
HETATM   10  O   UNL     1     -13.451   7.658  71.446  1.00  0.00    -0.341 OA 
ENDBRANCH   6   7
BRANCH   6  11
HETATM   11  C   UNL     1     -10.277   5.538  69.044  1.00  0.00    -0.228 C  
BRANCH  11  12
HETATM   12  O   UNL     1      -9.504   6.191  68.031  1.00  0.00    -0.115 OA 
HETATM   13  O   UNL     1     -11.435   6.365  66.878  1.00  0.00    -0.188 OA 
HETATM   14  O   UNL     1      -9.729   7.752  66.492  1.00  0.00    -0.213 OA 
HETATM   15  N   UNL     1     -10.307   6.825  67.049  1.00  0.00    -0.238 N  
ENDBRANCH  11  12
BRANCH  11  16
HETATM   16  C   UNL     1      -9.686   4.154  69.385  1.00  0.00    -0.163 C  
BRANCH  16  17
HETATM   17  O   UNL     1      -9.949   3.797  70.740  1.00  0.00    -0.161 OA 
HETATM   18  N   UNL     1      -8.852   3.095  71.325  1.00  0.00    -0.078 N  
HETATM   19  O   UNL     1      -9.023   2.864  72.520  1.00  0.00    -0.084 OA 
HETATM   20  O   UNL     1      -7.916   2.803  70.586  1.00  0.00    -0.042 OA 
ENDBRANCH  16  17
ENDBRANCH  11  16
ENDBRANCH   6  11
ENDBRANCH   5   6
ENDBRANCH   4   5
TORSDOF 7
ENDMDL
MODEL      327
REMARK 921   NORMALIZED FREE ENERGY PREDICTED BY IDOCK:   -2.56 KCAL/MOL
REMARK 922        TOTAL FREE ENERGY PREDICTED BY IDOCK:   -4.55 KCAL/MOL
REMARK 923 INTER-LIGAND FREE ENERGY PREDICTED BY IDOCK:   -4.10 KCAL/MOL
REMARK 924 INTRA-LIGAND FREE ENERGY PREDICTED BY IDOCK:   -0.45 KCAL/MOL
REMARK 927      BINDING AFFINITY PREDICTED BY RF-SCORE:    0.00 PKD
ROOT
HETATM    1  O   UNL     1     -10.164   4.638  69.640  1.00  0.00    -0.221 OA 
HETATM    2  N   UNL     1     -10.365   5.454  70.536  1.00  0.00    -0.263 N  
HETATM    3  O   UNL     1     -10.771   5.288  71.687  1.00  0.00    -0.219 OA 
HETATM    4  O   UNL     1     -10.065   6.786  70.143  1.00  0.00    -0.177 OA 
ENDROOT
BRANCH   4   5
HETATM    5  C   UNL     1     -10.327   7.733  71.179  1.00  0.00    -0.200 C  
BRANCH   5   6
HETATM    6  C   UNL     1     -10.326   9.160  70.572  1.00  0.00    -0.235 C  
BRANCH   6   7
HETATM    7  O   UNL     1     -10.929  10.152  71.420  1.00  0.00    -0.091 OA 
HETATM    8  O   UNL     1     -12.895   9.691  70.396  1.00  0.00     0.031 OA 
HETATM    9  N   UNL     1     -12.324  10.347  71.265  1.00  0.00    -0.377 N  
HETATM   10  O   UNL     1     -12.786  11.144  72.075  1.00  0.00    -0.375 OA 
ENDBRANCH   6   7
BRANCH   6  11
HETATM   11  C   UNL     1      -8.945   9.611  70.022  1.00  0.00    -0.237 C  
BRANCH  11  12
HETATM   12  O   UNL     1      -7.944   8.720  70.525  1.00  0.00    -0.089 OA 
HETATM   13  O   UNL     1      -6.653  10.550  70.784  1.00  0.00    -0.343 OA 
HETATM   14  O   UNL     1      -6.289   8.700  71.979  1.00  0.00    -0.067 OA 
HETATM   15  N   UNL     1      -6.869   9.397  71.152  1.00  0.00    -0.067 N  
ENDBRANCH  11  12
BRANCH  11  16
HETATM   16  C   UNL     1      -8.900   9.683  68.481  1.00  0.00    -0.124 C  
BRANCH  16  17
HETATM   17  O   UNL     1      -9.728  10.733  67.986  1.00  0.00    -0.157 OA 
HETATM   18  N   UNL     1     -10.909  10.228  67.363  1.00  0.00    -0.288 N  
HETATM   19  O   UNL     1     -11.679  11.120  67.015  1.00  0.00    -0.460 OA 
HETATM   20  O   UNL     1     -10.997   9.009  67.237  1.00  0.00    -0.137 OA 
ENDBRANCH  16  17
ENDBRANCH  11  16
ENDBRANCH   6  11
ENDBRANCH   5   6
ENDBRANCH   4   5
TORSDOF 7
ENDMDL
MODEL      328
REMARK 921   NORMALIZED FREE ENERGY PREDICTED BY IDOCK:   -2.56 KCAL/MOL
REMARK 922        TOTAL FREE ENERGY PREDICTED BY IDOCK:   -4.55 KCAL/MOL
REMARK 923 INTER-LIGAND FREE ENERGY PREDICTED BY IDOCK:   -5.12 KCAL/MOL
REMARK 924 INTRA-LIGAND FREE ENERGY PREDICTED BY IDOCK:    0.57 KCAL/MOL
REMARK 927      BINDING AFFINITY PREDICTED BY RF-SCORE:    0.00 PKD
ROOT
HETATM    1  O   UNL     1     -12.317  12.277  70.182  1.00  0.00    -0.235 OA 
HETATM    2  N   UNL     1     -11.825  11.400  69.476  1.00  0.00    -0.328 N  
HETATM    3  O   UNL     1     -11.944  11.192  68.268  1.00  0.00    -0.592 OA 
HETATM    4  O   UNL     1     -10.991  10.512  70.206  1.00  0.00    -0.292 OA 
ENDROOT
BRANCH   4   5
HETATM    5  C   UNL     1     -10.444   9.478  69.386  1.00  0.00    -0.217 C  
BRANCH   5   6
HETATM    6  C   UNL     1     -10.356   8.169  70.213  1.00  0.00    -0.209 C  
BRANCH   6   7
HETATM    7  O   UNL     1      -9.036   7.603  70.265  1.00  0.00    -0.145 OA 
HETATM    8  O   UNL     1      -8.247   9.710  70.520  1.00  0.00    -0.187 OA 
HETATM    9  N   UNL     1      -7.968   8.515  70.456  1.00  0.00    -0.088 N  
HETATM   10  O   UNL     1      -6.882   7.957  70.575  1.00  0.00    -0.041 OA 
ENDBRANCH   6   7
BRANCH   6  11
HETATM   11  C   UNL     1     -11.016   8.264  71.616  1.00  0.00    -0.264 C  
BRANCH  11  12
HETATM   12  O   UNL     1     -12.335   7.713  71.534  1.00  0.00    -0.307 OA 
HETATM   13  O   UNL     1     -13.060   9.722  72.259  1.00  0.00    -0.416 OA 
HETATM   14  O   UNL     1     -14.400   8.355  71.111  1.00  0.00    -0.285 OA 
HETATM   15  N   UNL     1     -13.350   8.696  71.645  1.00  0.00    -0.349 N  
ENDBRANCH  11  12
BRANCH  11  16
HETATM   16  C   UNL     1     -10.193   7.568  72.721  1.00  0.00    -0.255 C  
BRANCH  16  17
HETATM   17  O   UNL     1     -11.018   6.739  73.538  1.00  0.00    -0.252 OA 
HETATM   18  N   UNL     1     -10.899   5.361  73.185  1.00  0.00    -0.262 N  
HETATM   19  O   UNL     1     -11.529   4.624  73.940  1.00  0.00    -0.204 OA 
HETATM   20  O   UNL     1     -10.222   5.094  72.195  1.00  0.00    -0.189 OA 
ENDBRANCH  16  17
ENDBRANCH  11  16
ENDBRANCH   6  11
ENDBRANCH   5   6
ENDBRANCH   4   5
TORSDOF 7
ENDMDL
MODEL      329
REMARK 921   NORMALIZED FREE ENERGY PREDICTED BY IDOCK:   -2.54 KCAL/MOL
REMARK 922        TOTAL FREE ENERGY PREDICTED BY IDOCK:   -4.52 KCAL/MOL
REMARK 923 INTER-LIGAND FREE ENERGY PREDICTED BY IDOCK:   -4.87 KCAL/MOL
REMARK 924 INTRA-LIGAND FREE ENERGY PREDICTED BY IDOCK:    0.35 KCAL/MOL
REMARK 927      BINDING AFFINITY PREDICTED BY RF-SCORE:    0.00 PKD
ROOT
HETATM    1  O   UNL     1      -9.654   6.718  66.210  1.00  0.00    -0.134 OA 
HETATM    2  N   UNL     1      -9.526   7.877  66.593  1.00  0.00    -0.197 N  
HETATM    3  O   UNL     1      -9.347   8.912  65.949  1.00  0.00    -0.219 OA 
HETATM    4  O   UNL     1      -9.608   8.002  68.005  1.00  0.00    -0.148 OA 
ENDROOT
BRANCH   4   5
HETATM    5  C   UNL     1      -9.431   9.348  68.447  1.00  0.00    -0.141 C  
BRANCH   5   6
HETATM    6  C   UNL     1     -10.822   9.994  68.674  1.00  0.00    -0.229 C  
BRANCH   6   7
HETATM    7  O   UNL     1     -11.464   9.576  69.891  1.00  0.00    -0.184 OA 
HETATM    8  O   UNL     1      -9.424   9.627  70.871  1.00  0.00    -0.189 OA 
HETATM    9  N   UNL     1     -10.627   9.430  71.025  1.00  0.00    -0.308 N  
HETATM   10  O   UNL     1     -11.252   9.155  72.045  1.00  0.00    -0.364 OA 
ENDBRANCH   6   7
BRANCH   6  11
HETATM   11  C   UNL     1     -10.839  11.537  68.495  1.00  0.00    -0.215 C  
BRANCH  11  12
HETATM   12  O   UNL     1     -11.091  11.829  67.116  1.00  0.00    -0.262 OA 
HETATM   13  O   UNL     1      -9.155  12.987  67.161  1.00  0.00    -0.209 OA 
HETATM   14  O   UNL     1      -9.983  12.191  65.246  1.00  0.00    -0.254 OA 
HETATM   15  N   UNL     1      -9.966  12.386  66.457  1.00  0.00    -0.225 N  
ENDBRANCH  11  12
BRANCH  11  16
HETATM   16  C   UNL     1     -11.865  12.243  69.407  1.00  0.00    -0.310 C  
BRANCH  16  17
HETATM   17  O   UNL     1     -12.188  13.542  68.916  1.00  0.00    -0.315 OA 
HETATM   18  N   UNL     1     -12.192  14.516  69.959  1.00  0.00    -0.329 N  
HETATM   19  O   UNL     1     -12.375  15.657  69.540  1.00  0.00    -0.294 OA 
HETATM   20  O   UNL     1     -12.038  14.108  71.107  1.00  0.00    -0.343 OA 
ENDBRANCH  16  17
ENDBRANCH  11  16
ENDBRANCH   6  11
ENDBRANCH   5   6
ENDBRANCH   4   5
TORSDOF 7
ENDMDL
MODEL      330
REMARK 921   NORMALIZED FREE ENERGY PREDICTED BY IDOCK:   -2.53 KCAL/MOL
REMARK 922        TOTAL FREE ENERGY PREDICTED BY IDOCK:   -4.50 KCAL/MOL
REMARK 923 INTER-LIGAND FREE ENERGY PREDICTED BY IDOCK:   -4.01 KCAL/MOL
REMARK 924 INTRA-LIGAND FREE ENERGY PREDICTED BY IDOCK:   -0.49 KCAL/MOL
REMARK 927      BINDING AFFINITY PREDICTED BY RF-SCORE:    0.00 PKD
ROOT
HETATM    1  O   UNL     1      -6.493  13.922  69.304  1.00  0.00    -0.105 OA 
HETATM    2  N   UNL     1      -6.627  12.776  69.725  1.00  0.00    -0.001 N  
HETATM    3  O   UNL     1      -6.048  12.193  70.643  1.00  0.00    -0.269 OA 
HETATM    4  O   UNL     1      -7.617  12.043  69.018  1.00  0.00    -0.062 OA 
ENDROOT
BRANCH   4   5
HETATM    5  C   UNL     1      -7.748  10.703  69.493  1.00  0.00    -0.106 C  
BRANCH   5   6
HETATM    6  C   UNL     1      -9.141  10.156  69.087  1.00  0.00    -0.183 C  
BRANCH   6   7
HETATM    7  O   UNL     1      -9.612   9.086  69.925  1.00  0.00    -0.169 OA 
HETATM    8  O   UNL     1      -9.804   7.834  68.049  1.00  0.00    -0.153 OA 
HETATM    9  N   UNL     1      -9.920   7.867  69.272  1.00  0.00    -0.185 N  
HETATM   10  O   UNL     1     -10.233   6.975  70.054  1.00  0.00    -0.189 OA 
ENDBRANCH   6   7
BRANCH   6  11
HETATM   11  C   UNL     1     -10.215  11.259  68.876  1.00  0.00    -0.180 C  
BRANCH  11  12
HETATM   12  O   UNL     1     -10.915  10.981  67.659  1.00  0.00    -0.235 OA 
HETATM   13  O   UNL     1      -9.794  12.733  66.786  1.00  0.00    -0.230 OA 
HETATM   14  O   UNL     1     -10.618  11.120  65.480  1.00  0.00    -0.263 OA 
HETATM   15  N   UNL     1     -10.385  11.680  66.546  1.00  0.00    -0.218 N  
ENDBRANCH  11  12
BRANCH  11  16
HETATM   16  C   UNL     1     -11.195  11.387  70.062  1.00  0.00    -0.078 C  
BRANCH  16  17
HETATM   17  O   UNL     1     -12.052  10.251  70.152  1.00  0.00    -0.254 OA 
HETATM   18  N   UNL     1     -13.108  10.458  71.090  1.00  0.00    -0.392 N  
HETATM   19  O   UNL     1     -13.910   9.527  71.111  1.00  0.00    -0.266 OA 
HETATM   20  O   UNL     1     -13.074  11.493  71.751  1.00  0.00    -0.472 OA 
ENDBRANCH  16  17
ENDBRANCH  11  16
ENDBRANCH   6  11
ENDBRANCH   5   6
ENDBRANCH   4   5
TORSDOF 7
ENDMDL
MODEL      331
REMARK 921   NORMALIZED FREE ENERGY PREDICTED BY IDOCK:   -2.52 KCAL/MOL
REMARK 922        TOTAL FREE ENERGY PREDICTED BY IDOCK:   -4.49 KCAL/MOL
REMARK 923 INTER-LIGAND FREE ENERGY PREDICTED BY IDOCK:   -3.54 KCAL/MOL
REMARK 924 INTRA-LIGAND FREE ENERGY PREDICTED BY IDOCK:   -0.96 KCAL/MOL
REMARK 927      BINDING AFFINITY PREDICTED BY RF-SCORE:    0.00 PKD
ROOT
HETATM    1  O   UNL     1      -5.344   9.066  69.023  1.00  0.00    -0.036 OA 
HETATM    2  N   UNL     1      -6.085   9.386  69.948  1.00  0.00    -0.038 N  
HETATM    3  O   UNL     1      -5.854  10.052  70.959  1.00  0.00    -0.083 OA 
HETATM    4  O   UNL     1      -7.408   8.896  69.787  1.00  0.00    -0.053 OA 
ENDROOT
BRANCH   4   5
HETATM    5  C   UNL     1      -8.258   9.248  70.879  1.00  0.00    -0.132 C  
BRANCH   5   6
HETATM    6  C   UNL     1      -9.623   8.531  70.709  1.00  0.00    -0.180 C  
BRANCH   6   7
HETATM    7  O   UNL     1     -10.749   9.424  70.692  1.00  0.00    -0.242 OA 
HETATM    8  O   UNL     1     -11.496   8.362  72.546  1.00  0.00    -0.380 OA 
HETATM    9  N   UNL     1     -11.691   9.268  71.738  1.00  0.00    -0.380 N  
HETATM   10  O   UNL     1     -12.579  10.114  71.710  1.00  0.00    -0.395 OA 
ENDBRANCH   6   7
BRANCH   6  11
HETATM   11  C   UNL     1      -9.658   7.509  69.539  1.00  0.00    -0.156 C  
BRANCH  11  12
HETATM   12  O   UNL     1     -10.131   6.257  70.047  1.00  0.00    -0.167 OA 
HETATM   13  O   UNL     1      -8.512   5.306  68.798  1.00  0.00    -0.092 OA 
HETATM   14  O   UNL     1      -9.363   4.261  70.578  1.00  0.00    -0.117 OA 
HETATM   15  N   UNL     1      -9.246   5.184  69.778  1.00  0.00    -0.114 N  
ENDBRANCH  11  12
BRANCH  11  16
HETATM   16  C   UNL     1     -10.515   7.983  68.346  1.00  0.00    -0.163 C  
BRANCH  16  17
HETATM   17  O   UNL     1      -9.698   8.444  67.272  1.00  0.00    -0.160 OA 
HETATM   18  N   UNL     1     -10.003   9.793  66.918  1.00  0.00    -0.199 N  
HETATM   19  O   UNL     1      -9.245  10.239  66.059  1.00  0.00    -0.154 OA 
HETATM   20  O   UNL     1     -10.961  10.317  67.480  1.00  0.00    -0.297 OA 
ENDBRANCH  16  17
ENDBRANCH  11  16
ENDBRANCH   6  11
ENDBRANCH   5   6
ENDBRANCH   4   5
TORSDOF 7
ENDMDL
MODEL      332
REMARK 921   NORMALIZED FREE ENERGY PREDICTED BY IDOCK:   -2.52 KCAL/MOL
REMARK 922        TOTAL FREE ENERGY PREDICTED BY IDOCK:   -4.49 KCAL/MOL
REMARK 923 INTER-LIGAND FREE ENERGY PREDICTED BY IDOCK:   -3.58 KCAL/MOL
REMARK 924 INTRA-LIGAND FREE ENERGY PREDICTED BY IDOCK:   -0.91 KCAL/MOL
REMARK 927      BINDING AFFINITY PREDICTED BY RF-SCORE:    0.00 PKD
ROOT
HETATM    1  O   UNL     1     -12.844  10.933  71.303  1.00  0.00    -0.382 OA 
HETATM    2  N   UNL     1     -12.076   9.982  71.190  1.00  0.00    -0.350 N  
HETATM    3  O   UNL     1     -11.675   9.179  72.035  1.00  0.00    -0.357 OA 
HETATM    4  O   UNL     1     -11.603   9.812  69.863  1.00  0.00    -0.190 OA 
ENDROOT
BRANCH   4   5
HETATM    5  C   UNL     1     -10.689   8.721  69.743  1.00  0.00    -0.218 C  
BRANCH   5   6
HETATM    6  C   UNL     1      -9.797   8.942  68.495  1.00  0.00    -0.167 C  
BRANCH   6   7
HETATM    7  O   UNL     1      -9.927  10.250  67.912  1.00  0.00    -0.158 OA 
HETATM    8  O   UNL     1     -10.151   9.226  65.905  1.00  0.00    -0.293 OA 
HETATM    9  N   UNL     1     -10.139  10.295  66.512  1.00  0.00    -0.222 N  
HETATM   10  O   UNL     1     -10.325  11.434  66.095  1.00  0.00    -0.233 OA 
ENDBRANCH   6   7
BRANCH   6  11
HETATM   11  C   UNL     1      -8.313   8.529  68.698  1.00  0.00    -0.123 C  
BRANCH  11  12
HETATM   12  O   UNL     1      -7.509   9.713  68.692  1.00  0.00    -0.074 OA 
HETATM   13  O   UNL     1      -6.386   8.766  66.980  1.00  0.00    -0.058 OA 
HETATM   14  O   UNL     1      -6.392  10.979  67.276  1.00  0.00    -0.059 OA 
HETATM   15  N   UNL     1      -6.692   9.819  67.539  1.00  0.00    -0.070 N  
ENDBRANCH  11  12
BRANCH  11  16
HETATM   16  C   UNL     1      -8.082   7.709  69.985  1.00  0.00    -0.120 C  
BRANCH  16  17
HETATM   17  O   UNL     1      -8.197   6.309  69.735  1.00  0.00    -0.120 OA 
HETATM   18  N   UNL     1      -8.912   5.644  70.777  1.00  0.00    -0.142 N  
HETATM   19  O   UNL     1      -9.104   4.454  70.532  1.00  0.00    -0.099 OA 
HETATM   20  O   UNL     1      -9.219   6.312  71.760  1.00  0.00    -0.145 OA 
ENDBRANCH  16  17
ENDBRANCH  11  16
ENDBRANCH   6  11
ENDBRANCH   5   6
ENDBRANCH   4   5
TORSDOF 7
ENDMDL
MODEL      333
REMARK 921   NORMALIZED FREE ENERGY PREDICTED BY IDOCK:   -2.51 KCAL/MOL
REMARK 922        TOTAL FREE ENERGY PREDICTED BY IDOCK:   -4.48 KCAL/MOL
REMARK 923 INTER-LIGAND FREE ENERGY PREDICTED BY IDOCK:   -3.60 KCAL/MOL
REMARK 924 INTRA-LIGAND FREE ENERGY PREDICTED BY IDOCK:   -0.88 KCAL/MOL
REMARK 927      BINDING AFFINITY PREDICTED BY RF-SCORE:    0.00 PKD
ROOT
HETATM    1  O   UNL     1     -12.267  11.908  68.260  1.00  0.00    -0.447 OA 
HETATM    2  N   UNL     1     -11.598  11.233  67.482  1.00  0.00    -0.240 N  
HETATM    3  O   UNL     1     -11.267  11.458  66.317  1.00  0.00    -0.270 OA 
HETATM    4  O   UNL     1     -11.155  10.012  68.054  1.00  0.00    -0.266 OA 
ENDROOT
BRANCH   4   5
HETATM    5  C   UNL     1     -10.402   9.218  67.136  1.00  0.00    -0.260 C  
BRANCH   5   6
HETATM    6  C   UNL     1      -9.874   7.959  67.870  1.00  0.00    -0.165 C  
BRANCH   6   7
HETATM    7  O   UNL     1     -10.907   7.159  68.469  1.00  0.00    -0.177 OA 
HETATM    8  O   UNL     1     -10.199   7.925  70.479  1.00  0.00    -0.196 OA 
HETATM    9  N   UNL     1     -11.016   7.228  69.880  1.00  0.00    -0.257 N  
HETATM   10  O   UNL     1     -11.969   6.589  70.316  1.00  0.00    -0.394 OA 
ENDBRANCH   6   7
BRANCH   6  11
HETATM   11  C   UNL     1      -8.879   7.110  67.030  1.00  0.00    -0.124 C  
BRANCH  11  12
HETATM   12  O   UNL     1      -8.042   8.001  66.285  1.00  0.00    -0.104 OA 
HETATM   13  O   UNL     1      -8.375   6.616  64.537  1.00  0.00    -0.065 OA 
HETATM   14  O   UNL     1      -7.797   8.750  64.227  1.00  0.00    -0.118 OA 
HETATM   15  N   UNL     1      -8.084   7.757  64.890  1.00  0.00    -0.142 N  
ENDBRANCH  11  12
BRANCH  11  16
HETATM   16  C   UNL     1      -8.035   6.142  67.886  1.00  0.00    -0.110 C  
BRANCH  16  17
HETATM   17  O   UNL     1      -8.247   4.786  67.496  1.00  0.00    -0.104 OA 
HETATM   18  N   UNL     1      -7.104   4.242  66.836  1.00  0.00    -0.066 N  
HETATM   19  O   UNL     1      -7.233   3.047  66.578  1.00  0.00    -0.063 OA 
HETATM   20  O   UNL     1      -6.176   5.010  66.599  1.00  0.00    -0.030 OA 
ENDBRANCH  16  17
ENDBRANCH  11  16
ENDBRANCH   6  11
ENDBRANCH   5   6
ENDBRANCH   4   5
TORSDOF 7
ENDMDL
MODEL      334
REMARK 921   NORMALIZED FREE ENERGY PREDICTED BY IDOCK:   -2.51 KCAL/MOL
REMARK 922        TOTAL FREE ENERGY PREDICTED BY IDOCK:   -4.48 KCAL/MOL
REMARK 923 INTER-LIGAND FREE ENERGY PREDICTED BY IDOCK:   -4.78 KCAL/MOL
REMARK 924 INTRA-LIGAND FREE ENERGY PREDICTED BY IDOCK:    0.30 KCAL/MOL
REMARK 927      BINDING AFFINITY PREDICTED BY RF-SCORE:    0.00 PKD
ROOT
HETATM    1  O   UNL     1      -9.152   8.890  64.620  1.00  0.00    -0.089 OA 
HETATM    2  N   UNL     1      -9.670   9.719  65.362  1.00  0.00    -0.304 N  
HETATM    3  O   UNL     1      -9.805   9.716  66.587  1.00  0.00    -0.195 OA 
HETATM    4  O   UNL     1     -10.177  10.844  64.660  1.00  0.00    -0.302 OA 
ENDROOT
BRANCH   4   5
HETATM    5  C   UNL     1     -10.803  11.792  65.525  1.00  0.00    -0.297 C  
BRANCH   5   6
HETATM    6  C   UNL     1      -9.910  13.056  65.623  1.00  0.00    -0.170 C  
BRANCH   6   7
HETATM    7  O   UNL     1     -10.499  14.230  65.040  1.00  0.00    -0.388 OA 
HETATM    8  O   UNL     1     -12.522  13.297  65.442  1.00  0.00    -0.454 OA 
HETATM    9  N   UNL     1     -11.915  14.275  65.010  1.00  0.00    -0.391 N  
HETATM   10  O   UNL     1     -12.348  15.338  64.578  1.00  0.00    -0.310 OA 
ENDBRANCH   6   7
BRANCH   6  11
HETATM   11  C   UNL     1      -9.346  13.320  67.046  1.00  0.00    -0.242 C  
BRANCH  11  12
HETATM   12  O   UNL     1     -10.376  13.041  68.001  1.00  0.00    -0.221 OA 
HETATM   13  O   UNL     1     -10.480  15.271  68.321  1.00  0.00    -0.237 OA 
HETATM   14  O   UNL     1     -12.216  13.951  68.802  1.00  0.00    -0.348 OA 
HETATM   15  N   UNL     1     -11.082  14.201  68.404  1.00  0.00    -0.243 N  
ENDBRANCH  11  12
BRANCH  11  16
HETATM   16  C   UNL     1      -8.070  12.508  67.354  1.00  0.00    -0.180 C  
BRANCH  16  17
HETATM   17  O   UNL     1      -7.514  12.874  68.615  1.00  0.00    -0.116 OA 
HETATM   18  N   UNL     1      -6.811  11.787  69.219  1.00  0.00    -0.109 N  
HETATM   19  O   UNL     1      -6.245  12.111  70.260  1.00  0.00    -0.129 OA 
HETATM   20  O   UNL     1      -6.873  10.698  68.654  1.00  0.00    -0.056 OA 
ENDBRANCH  16  17
ENDBRANCH  11  16
ENDBRANCH   6  11
ENDBRANCH   5   6
ENDBRANCH   4   5
TORSDOF 7
ENDMDL
MODEL      335
REMARK 921   NORMALIZED FREE ENERGY PREDICTED BY IDOCK:   -2.50 KCAL/MOL
REMARK 922        TOTAL FREE ENERGY PREDICTED BY IDOCK:   -4.47 KCAL/MOL
REMARK 923 INTER-LIGAND FREE ENERGY PREDICTED BY IDOCK:   -3.49 KCAL/MOL
REMARK 924 INTRA-LIGAND FREE ENERGY PREDICTED BY IDOCK:   -0.97 KCAL/MOL
REMARK 927      BINDING AFFINITY PREDICTED BY RF-SCORE:    0.00 PKD
ROOT
HETATM    1  O   UNL     1     -13.451   7.111  71.417  1.00  0.00    -0.380 OA 
HETATM    2  N   UNL     1     -12.356   6.563  71.330  1.00  0.00    -0.277 N  
HETATM    3  O   UNL     1     -11.649   6.057  72.203  1.00  0.00    -0.300 OA 
HETATM    4  O   UNL     1     -11.866   6.523  69.998  1.00  0.00    -0.404 OA 
ENDROOT
BRANCH   4   5
HETATM    5  C   UNL     1     -10.579   5.910  69.907  1.00  0.00    -0.299 C  
BRANCH   5   6
HETATM    6  C   UNL     1      -9.567   6.938  69.339  1.00  0.00    -0.147 C  
BRANCH   6   7
HETATM    7  O   UNL     1     -10.116   8.254  69.157  1.00  0.00    -0.192 OA 
HETATM    8  O   UNL     1     -10.202   7.805  66.939  1.00  0.00    -0.260 OA 
HETATM    9  N   UNL     1     -10.447   8.618  67.828  1.00  0.00    -0.238 N  
HETATM   10  O   UNL     1     -10.988   9.717  67.756  1.00  0.00    -0.274 OA 
ENDBRANCH   6   7
BRANCH   6  11
HETATM   11  C   UNL     1      -8.206   6.962  70.087  1.00  0.00    -0.133 C  
BRANCH  11  12
HETATM   12  O   UNL     1      -7.489   8.135  69.684  1.00  0.00    -0.081 OA 
HETATM   13  O   UNL     1      -6.180   6.744  68.484  1.00  0.00    -0.028 OA 
HETATM   14  O   UNL     1      -6.365   8.904  67.952  1.00  0.00    -0.055 OA 
HETATM   15  N   UNL     1      -6.600   7.894  68.607  1.00  0.00    -0.055 N  
ENDBRANCH  11  12
BRANCH  11  16
HETATM   16  C   UNL     1      -8.355   6.904  71.622  1.00  0.00    -0.109 C  
BRANCH  16  17
HETATM   17  O   UNL     1      -7.728   5.742  72.161  1.00  0.00    -0.099 OA 
HETATM   18  N   UNL     1      -6.637   6.079  73.017  1.00  0.00    -0.064 N  
HETATM   19  O   UNL     1      -6.145   5.095  73.565  1.00  0.00    -0.039 OA 
HETATM   20  O   UNL     1      -6.322   7.264  73.083  1.00  0.00    -0.059 OA 
ENDBRANCH  16  17
ENDBRANCH  11  16
ENDBRANCH   6  11
ENDBRANCH   5   6
ENDBRANCH   4   5
TORSDOF 7
ENDMDL
MODEL      336
REMARK 921   NORMALIZED FREE ENERGY PREDICTED BY IDOCK:   -2.50 KCAL/MOL
REMARK 922        TOTAL FREE ENERGY PREDICTED BY IDOCK:   -4.46 KCAL/MOL
REMARK 923 INTER-LIGAND FREE ENERGY PREDICTED BY IDOCK:   -3.65 KCAL/MOL
REMARK 924 INTRA-LIGAND FREE ENERGY PREDICTED BY IDOCK:   -0.82 KCAL/MOL
REMARK 927      BINDING AFFINITY PREDICTED BY RF-SCORE:    0.00 PKD
ROOT
HETATM    1  O   UNL     1      -9.217   5.790  69.344  1.00  0.00    -0.124 OA 
HETATM    2  N   UNL     1      -9.762   6.754  68.812  1.00  0.00    -0.132 N  
HETATM    3  O   UNL     1     -10.715   6.799  68.034  1.00  0.00    -0.212 OA 
HETATM    4  O   UNL     1      -9.172   7.991  69.184  1.00  0.00    -0.151 OA 
ENDROOT
BRANCH   4   5
HETATM    5  C   UNL     1      -9.790   9.107  68.542  1.00  0.00    -0.164 C  
BRANCH   5   6
HETATM    6  C   UNL     1      -8.808   9.700  67.500  1.00  0.00    -0.125 C  
BRANCH   6   7
HETATM    7  O   UNL     1      -8.361   8.752  66.516  1.00  0.00    -0.108 OA 
HETATM    8  O   UNL     1      -6.416   8.620  67.667  1.00  0.00    -0.059 OA 
HETATM    9  N   UNL     1      -7.067   8.210  66.708  1.00  0.00    -0.076 N  
HETATM   10  O   UNL     1      -6.785   7.347  65.882  1.00  0.00    -0.051 OA 
ENDBRANCH   6   7
BRANCH   6  11
HETATM   11  C   UNL     1      -9.292  11.032  66.863  1.00  0.00    -0.173 C  
BRANCH  11  12
HETATM   12  O   UNL     1      -8.326  12.049  67.151  1.00  0.00    -0.167 OA 
HETATM   13  O   UNL     1      -9.851  12.884  68.588  1.00  0.00    -0.177 OA 
HETATM   14  O   UNL     1      -7.674  13.320  68.828  1.00  0.00    -0.111 OA 
HETATM   15  N   UNL     1      -8.658  12.814  68.296  1.00  0.00    -0.180 N  
ENDBRANCH  11  12
BRANCH  11  16
HETATM   16  C   UNL     1      -9.544  10.921  65.344  1.00  0.00    -0.225 C  
BRANCH  16  17
HETATM   17  O   UNL     1     -10.675  11.696  64.948  1.00  0.00    -0.277 OA 
HETATM   18  N   UNL     1     -10.936  11.573  63.550  1.00  0.00    -0.404 N  
HETATM   19  O   UNL     1     -11.962  12.157  63.209  1.00  0.00    -0.452 OA 
HETATM   20  O   UNL     1     -10.123  10.940  62.882  1.00  0.00    -0.282 OA 
ENDBRANCH  16  17
ENDBRANCH  11  16
ENDBRANCH   6  11
ENDBRANCH   5   6
ENDBRANCH   4   5
TORSDOF 7
ENDMDL
MODEL      337
REMARK 921   NORMALIZED FREE ENERGY PREDICTED BY IDOCK:   -2.48 KCAL/MOL
REMARK 922        TOTAL FREE ENERGY PREDICTED BY IDOCK:   -4.44 KCAL/MOL
REMARK 923 INTER-LIGAND FREE ENERGY PREDICTED BY IDOCK:   -4.60 KCAL/MOL
REMARK 924 INTRA-LIGAND FREE ENERGY PREDICTED BY IDOCK:    0.16 KCAL/MOL
REMARK 927      BINDING AFFINITY PREDICTED BY RF-SCORE:    0.00 PKD
ROOT
HETATM    1  O   UNL     1     -12.618   6.091  72.260  1.00  0.00    -0.150 OA 
HETATM    2  N   UNL     1     -11.498   6.534  72.015  1.00  0.00    -0.285 N  
HETATM    3  O   UNL     1     -10.541   6.733  72.765  1.00  0.00    -0.210 OA 
HETATM    4  O   UNL     1     -11.320   6.848  70.642  1.00  0.00    -0.283 OA 
ENDROOT
BRANCH   4   5
HETATM    5  C   UNL     1     -10.026   7.388  70.369  1.00  0.00    -0.188 C  
BRANCH   5   6
HETATM    6  C   UNL     1     -10.094   8.934  70.458  1.00  0.00    -0.205 C  
BRANCH   6   7
HETATM    7  O   UNL     1      -9.023   9.519  71.218  1.00  0.00    -0.234 OA 
HETATM    8  O   UNL     1      -7.586   8.424  69.853  1.00  0.00    -0.072 OA 
HETATM    9  N   UNL     1      -7.708   9.201  70.798  1.00  0.00    -0.132 N  
HETATM   10  O   UNL     1      -6.847   9.800  71.435  1.00  0.00    -0.326 OA 
ENDBRANCH   6   7
BRANCH   6  11
HETATM   11  C   UNL     1     -10.301   9.637  69.087  1.00  0.00    -0.207 C  
BRANCH  11  12
HETATM   12  O   UNL     1     -10.581   8.635  68.103  1.00  0.00    -0.204 OA 
HETATM   13  O   UNL     1      -8.847   9.497  66.946  1.00  0.00    -0.126 OA 
HETATM   14  O   UNL     1      -9.523   7.394  66.621  1.00  0.00    -0.173 OA 
HETATM   15  N   UNL     1      -9.549   8.505  67.141  1.00  0.00    -0.166 N  
ENDBRANCH  11  12
BRANCH  11  16
HETATM   16  C   UNL     1     -11.409  10.710  69.117  1.00  0.00    -0.273 C  
BRANCH  16  17
HETATM   17  O   UNL     1     -12.158  10.648  70.330  1.00  0.00    -0.287 OA 
HETATM   18  N   UNL     1     -12.556  11.946  70.772  1.00  0.00    -0.280 N  
HETATM   19  O   UNL     1     -13.282  11.905  71.763  1.00  0.00    -0.454 OA 
HETATM   20  O   UNL     1     -12.123  12.908  70.144  1.00  0.00    -0.340 OA 
ENDBRANCH  16  17
ENDBRANCH  11  16
ENDBRANCH   6  11
ENDBRANCH   5   6
ENDBRANCH   4   5
TORSDOF 7
ENDMDL
MODEL      338
REMARK 921   NORMALIZED FREE ENERGY PREDICTED BY IDOCK:   -2.46 KCAL/MOL
REMARK 922        TOTAL FREE ENERGY PREDICTED BY IDOCK:   -4.41 KCAL/MOL
REMARK 923 INTER-LIGAND FREE ENERGY PREDICTED BY IDOCK:   -3.53 KCAL/MOL
REMARK 924 INTRA-LIGAND FREE ENERGY PREDICTED BY IDOCK:   -0.88 KCAL/MOL
REMARK 927      BINDING AFFINITY PREDICTED BY RF-SCORE:    0.00 PKD
ROOT
HETATM    1  O   UNL     1     -12.115  11.177  68.308  1.00  0.00    -0.620 OA 
HETATM    2  N   UNL     1     -11.252  10.369  67.976  1.00  0.00    -0.298 N  
HETATM    3  O   UNL     1     -10.554  10.323  66.963  1.00  0.00    -0.248 OA 
HETATM    4  O   UNL     1     -11.056   9.348  68.943  1.00  0.00    -0.112 OA 
ENDROOT
BRANCH   4   5
HETATM    5  C   UNL     1     -10.071   8.395  68.540  1.00  0.00    -0.197 C  
BRANCH   5   6
HETATM    6  C   UNL     1      -9.622   7.576  69.777  1.00  0.00    -0.163 C  
BRANCH   6   7
HETATM    7  O   UNL     1     -10.685   7.289  70.701  1.00  0.00    -0.227 OA 
HETATM    8  O   UNL     1      -9.542   8.492  72.240  1.00  0.00    -0.275 OA 
HETATM    9  N   UNL     1     -10.560   7.848  71.996  1.00  0.00    -0.224 N  
HETATM   10  O   UNL     1     -11.540   7.635  72.704  1.00  0.00    -0.339 OA 
ENDBRANCH   6   7
BRANCH   6  11
HETATM   11  C   UNL     1      -8.783   6.316  69.429  1.00  0.00    -0.128 C  
BRANCH  11  12
HETATM   12  O   UNL     1      -8.005   6.599  68.261  1.00  0.00    -0.108 OA 
HETATM   13  O   UNL     1      -8.677   4.583  67.504  1.00  0.00    -0.103 OA 
HETATM   14  O   UNL     1      -8.010   6.183  66.097  1.00  0.00    -0.102 OA 
HETATM   15  N   UNL     1      -8.263   5.700  67.196  1.00  0.00    -0.102 N  
ENDBRANCH  11  12
BRANCH  11  16
HETATM   16  C   UNL     1      -7.885   5.845  70.592  1.00  0.00    -0.105 C  
BRANCH  16  17
HETATM   17  O   UNL     1      -8.281   4.559  71.066  1.00  0.00    -0.085 OA 
HETATM   18  N   UNL     1      -7.278   3.573  70.821  1.00  0.00    -0.033 N  
HETATM   19  O   UNL     1      -7.562   2.480  71.307  1.00  0.00    -0.039 OA 
HETATM   20  O   UNL     1      -6.301   3.920  70.163  1.00  0.00    -0.026 OA 
ENDBRANCH  16  17
ENDBRANCH  11  16
ENDBRANCH   6  11
ENDBRANCH   5   6
ENDBRANCH   4   5
TORSDOF 7
ENDMDL
MODEL      339
REMARK 921   NORMALIZED FREE ENERGY PREDICTED BY IDOCK:   -2.45 KCAL/MOL
REMARK 922        TOTAL FREE ENERGY PREDICTED BY IDOCK:   -4.39 KCAL/MOL
REMARK 923 INTER-LIGAND FREE ENERGY PREDICTED BY IDOCK:   -4.95 KCAL/MOL
REMARK 924 INTRA-LIGAND FREE ENERGY PREDICTED BY IDOCK:    0.56 KCAL/MOL
REMARK 927      BINDING AFFINITY PREDICTED BY RF-SCORE:    0.00 PKD
ROOT
HETATM    1  O   UNL     1     -11.386   6.453  69.027  1.00  0.00    -0.355 OA 
HETATM    2  N   UNL     1     -10.834   7.172  68.198  1.00  0.00    -0.152 N  
HETATM    3  O   UNL     1     -10.352   6.893  67.100  1.00  0.00    -0.209 OA 
HETATM    4  O   UNL     1     -10.767   8.530  68.607  1.00  0.00    -0.159 OA 
ENDROOT
BRANCH   4   5
HETATM    5  C   UNL     1     -10.101   9.356  67.652  1.00  0.00    -0.211 C  
BRANCH   5   6
HETATM    6  C   UNL     1     -11.139  10.288  66.976  1.00  0.00    -0.032 C  
BRANCH   6   7
HETATM    7  O   UNL     1     -11.782  11.198  67.885  1.00  0.00    -0.542 OA 
HETATM    8  O   UNL     1      -9.753  11.531  68.833  1.00  0.00    -0.161 OA 
HETATM    9  N   UNL     1     -10.944  11.835  68.833  1.00  0.00    -0.229 N  
HETATM   10  O   UNL     1     -11.542  12.659  69.518  1.00  0.00    -0.287 OA 
ENDBRANCH   6   7
BRANCH   6  11
HETATM   11  C   UNL     1     -10.611  11.000  65.699  1.00  0.00    -0.197 C  
BRANCH  11  12
HETATM   12  O   UNL     1     -10.762  12.413  65.874  1.00  0.00    -0.254 OA 
HETATM   13  O   UNL     1     -11.726  12.414  63.835  1.00  0.00    -0.370 OA 
HETATM   14  O   UNL     1     -12.139  14.038  65.311  1.00  0.00    -0.369 OA 
HETATM   15  N   UNL     1     -11.624  12.998  64.913  1.00  0.00    -0.314 N  
ENDBRANCH  11  12
BRANCH  11  16
HETATM   16  C   UNL     1      -9.149  10.636  65.362  1.00  0.00    -0.189 C  
BRANCH  16  17
HETATM   17  O   UNL     1      -9.084   9.529  64.465  1.00  0.00    -0.230 OA 
HETATM   18  N   UNL     1      -8.838   9.950  63.124  1.00  0.00    -0.225 N  
HETATM   19  O   UNL     1      -8.683   9.005  62.353  1.00  0.00    -0.221 OA 
HETATM   20  O   UNL     1      -8.830  11.159  62.909  1.00  0.00    -0.242 OA 
ENDBRANCH  16  17
ENDBRANCH  11  16
ENDBRANCH   6  11
ENDBRANCH   5   6
ENDBRANCH   4   5
TORSDOF 7
ENDMDL
MODEL      340
REMARK 921   NORMALIZED FREE ENERGY PREDICTED BY IDOCK:   -2.45 KCAL/MOL
REMARK 922        TOTAL FREE ENERGY PREDICTED BY IDOCK:   -4.39 KCAL/MOL
REMARK 923 INTER-LIGAND FREE ENERGY PREDICTED BY IDOCK:   -3.63 KCAL/MOL
REMARK 924 INTRA-LIGAND FREE ENERGY PREDICTED BY IDOCK:   -0.76 KCAL/MOL
REMARK 927      BINDING AFFINITY PREDICTED BY RF-SCORE:    0.00 PKD
ROOT
HETATM    1  O   UNL     1     -10.793  12.035  65.874  1.00  0.00    -0.268 OA 
HETATM    2  N   UNL     1     -10.978  11.654  67.027  1.00  0.00    -0.273 N  
HETATM    3  O   UNL     1     -11.267  12.295  68.039  1.00  0.00    -0.233 OA 
HETATM    4  O   UNL     1     -10.828  10.250  67.173  1.00  0.00    -0.262 OA 
ENDROOT
BRANCH   4   5
HETATM    5  C   UNL     1     -11.017   9.817  68.520  1.00  0.00    -0.149 C  
BRANCH   5   6
HETATM    6  C   UNL     1      -9.693   9.206  69.046  1.00  0.00    -0.166 C  
BRANCH   6   7
HETATM    7  O   UNL     1      -8.843  10.151  69.718  1.00  0.00    -0.193 OA 
HETATM    8  O   UNL     1      -7.871  10.555  67.714  1.00  0.00    -0.103 OA 
HETATM    9  N   UNL     1      -7.911  10.844  68.908  1.00  0.00    -0.134 N  
HETATM   10  O   UNL     1      -7.279  11.693  69.529  1.00  0.00    -0.029 OA 
ENDBRANCH   6   7
BRANCH   6  11
HETATM   11  C   UNL     1      -9.881   7.895  69.859  1.00  0.00    -0.182 C  
BRANCH  11  12
HETATM   12  O   UNL     1     -11.185   7.913  70.450  1.00  0.00    -0.269 OA 
HETATM   13  O   UNL     1     -10.137   8.391  72.390  1.00  0.00    -0.287 OA 
HETATM   14  O   UNL     1     -12.281   8.928  72.070  1.00  0.00    -0.338 OA 
HETATM   15  N   UNL     1     -11.189   8.464  71.756  1.00  0.00    -0.273 N  
ENDBRANCH  11  12
BRANCH  11  16
HETATM   16  C   UNL     1      -9.674   6.621  69.013  1.00  0.00    -0.140 C  
BRANCH  16  17
HETATM   17  O   UNL     1      -8.666   5.783  69.575  1.00  0.00    -0.110 OA 
HETATM   18  N   UNL     1      -9.216   4.579  70.110  1.00  0.00    -0.118 N  
HETATM   19  O   UNL     1      -8.352   3.803  70.512  1.00  0.00    -0.060 OA 
HETATM   20  O   UNL     1     -10.440   4.479  70.119  1.00  0.00    -0.040 OA 
ENDBRANCH  16  17
ENDBRANCH  11  16
ENDBRANCH   6  11
ENDBRANCH   5   6
ENDBRANCH   4   5
TORSDOF 7
ENDMDL
MODEL      341
REMARK 921   NORMALIZED FREE ENERGY PREDICTED BY IDOCK:   -2.40 KCAL/MOL
REMARK 922        TOTAL FREE ENERGY PREDICTED BY IDOCK:   -4.32 KCAL/MOL
REMARK 923 INTER-LIGAND FREE ENERGY PREDICTED BY IDOCK:   -4.56 KCAL/MOL
REMARK 924 INTRA-LIGAND FREE ENERGY PREDICTED BY IDOCK:    0.24 KCAL/MOL
REMARK 927      BINDING AFFINITY PREDICTED BY RF-SCORE:    0.00 PKD
ROOT
HETATM    1  O   UNL     1      -7.387   7.459  66.061  1.00  0.00    -0.072 OA 
HETATM    2  N   UNL     1      -7.606   8.625  65.743  1.00  0.00    -0.088 N  
HETATM    3  O   UNL     1      -7.033   9.346  64.925  1.00  0.00    -0.091 OA 
HETATM    4  O   UNL     1      -8.701   9.191  66.447  1.00  0.00    -0.124 OA 
ENDROOT
BRANCH   4   5
HETATM    5  C   UNL     1      -8.933  10.554  66.093  1.00  0.00    -0.160 C  
BRANCH   5   6
HETATM    6  C   UNL     1      -9.680  11.259  67.254  1.00  0.00    -0.174 C  
BRANCH   6   7
HETATM    7  O   UNL     1      -8.880  11.439  68.435  1.00  0.00    -0.158 OA 
HETATM    8  O   UNL     1      -7.177  12.043  67.070  1.00  0.00    -0.143 OA 
HETATM    9  N   UNL     1      -7.551  11.886  68.231  1.00  0.00    -0.108 N  
HETATM   10  O   UNL     1      -6.954  12.099  69.282  1.00  0.00    -0.088 OA 
ENDBRANCH   6   7
BRANCH   6  11
HETATM   11  C   UNL     1     -10.416  12.561  66.833  1.00  0.00    -0.228 C  
BRANCH  11  12
HETATM   12  O   UNL     1     -10.146  13.570  67.812  1.00  0.00    -0.226 OA 
HETATM   13  O   UNL     1     -12.378  13.882  67.893  1.00  0.00    -0.245 OA 
HETATM   14  O   UNL     1     -11.068  14.462  69.604  1.00  0.00    -0.250 OA 
HETATM   15  N   UNL     1     -11.312  14.003  68.493  1.00  0.00    -0.260 N  
ENDBRANCH  11  12
BRANCH  11  16
HETATM   16  C   UNL     1     -10.033  13.045  65.419  1.00  0.00    -0.188 C  
BRANCH  16  17
HETATM   17  O   UNL     1     -11.118  13.724  64.791  1.00  0.00    -0.342 OA 
HETATM   18  N   UNL     1     -11.602  13.010  63.654  1.00  0.00    -0.464 N  
HETATM   19  O   UNL     1     -12.598  13.531  63.157  1.00  0.00    -0.762 OA 
HETATM   20  O   UNL     1     -10.976  12.010  63.313  1.00  0.00    -0.388 OA 
ENDBRANCH  16  17
ENDBRANCH  11  16
ENDBRANCH   6  11
ENDBRANCH   5   6
ENDBRANCH   4   5
TORSDOF 7
ENDMDL
MODEL      342
REMARK 921   NORMALIZED FREE ENERGY PREDICTED BY IDOCK:   -2.40 KCAL/MOL
REMARK 922        TOTAL FREE ENERGY PREDICTED BY IDOCK:   -4.31 KCAL/MOL
REMARK 923 INTER-LIGAND FREE ENERGY PREDICTED BY IDOCK:   -3.80 KCAL/MOL
REMARK 924 INTRA-LIGAND FREE ENERGY PREDICTED BY IDOCK:   -0.52 KCAL/MOL
REMARK 927      BINDING AFFINITY PREDICTED BY RF-SCORE:    0.00 PKD
ROOT
HETATM    1  O   UNL     1      -6.261  12.620  69.848  1.00  0.00    -0.132 OA 
HETATM    2  N   UNL     1      -6.489  11.420  69.974  1.00  0.00    -0.132 N  
HETATM    3  O   UNL     1      -5.860  10.550  70.579  1.00  0.00    -0.084 OA 
HETATM    4  O   UNL     1      -7.674  11.013  69.306  1.00  0.00    -0.129 OA 
ENDROOT
BRANCH   4   5
HETATM    5  C   UNL     1      -7.920   9.612  69.432  1.00  0.00    -0.111 C  
BRANCH   5   6
HETATM    6  C   UNL     1      -9.126   9.227  68.537  1.00  0.00    -0.132 C  
BRANCH   6   7
HETATM    7  O   UNL     1      -8.963   7.974  67.851  1.00  0.00    -0.130 OA 
HETATM    8  O   UNL     1      -7.539   9.039  66.449  1.00  0.00    -0.091 OA 
HETATM    9  N   UNL     1      -8.067   7.972  66.753  1.00  0.00    -0.106 N  
HETATM   10  O   UNL     1      -7.912   6.855  66.268  1.00  0.00    -0.101 OA 
ENDBRANCH   6   7
BRANCH   6  11
HETATM   11  C   UNL     1     -10.502   9.337  69.250  1.00  0.00    -0.218 C  
BRANCH  11  12
HETATM   12  O   UNL     1     -11.417   9.995  68.368  1.00  0.00    -0.126 OA 
HETATM   13  O   UNL     1     -11.602  11.570  69.972  1.00  0.00    -0.301 OA 
HETATM   14  O   UNL     1     -12.069  12.032  67.839  1.00  0.00    -0.531 OA 
HETATM   15  N   UNL     1     -11.716  11.320  68.773  1.00  0.00    -0.322 N  
ENDBRANCH  11  12
BRANCH  11  16
HETATM   16  C   UNL     1     -11.059   7.972  69.708  1.00  0.00    -0.064 C  
BRANCH  16  17
HETATM   17  O   UNL     1     -10.594   7.634  71.014  1.00  0.00    -0.215 OA 
HETATM   18  N   UNL     1     -11.661   7.205  71.860  1.00  0.00    -0.268 N  
HETATM   19  O   UNL     1     -11.266   6.819  72.958  1.00  0.00    -0.239 OA 
HETATM   20  O   UNL     1     -12.800   7.289  71.410  1.00  0.00    -0.366 OA 
ENDBRANCH  16  17
ENDBRANCH  11  16
ENDBRANCH   6  11
ENDBRANCH   5   6
ENDBRANCH   4   5
TORSDOF 7
ENDMDL
MODEL      343
REMARK 921   NORMALIZED FREE ENERGY PREDICTED BY IDOCK:   -2.39 KCAL/MOL
REMARK 922        TOTAL FREE ENERGY PREDICTED BY IDOCK:   -4.30 KCAL/MOL
REMARK 923 INTER-LIGAND FREE ENERGY PREDICTED BY IDOCK:   -3.50 KCAL/MOL
REMARK 924 INTRA-LIGAND FREE ENERGY PREDICTED BY IDOCK:   -0.80 KCAL/MOL
REMARK 927      BINDING AFFINITY PREDICTED BY RF-SCORE:    0.00 PKD
ROOT
HETATM    1  O   UNL     1     -12.030  12.494  70.253  1.00  0.00    -0.347 OA 
HETATM    2  N   UNL     1     -11.676  11.926  69.223  1.00  0.00    -0.306 N  
HETATM    3  O   UNL     1     -12.346  11.383  68.344  1.00  0.00    -0.505 OA 
HETATM    4  O   UNL     1     -10.266  11.923  69.055  1.00  0.00    -0.128 OA 
ENDROOT
BRANCH   4   5
HETATM    5  C   UNL     1      -9.858  11.238  67.871  1.00  0.00    -0.176 C  
BRANCH   5   6
HETATM    6  C   UNL     1      -8.408  11.659  67.516  1.00  0.00    -0.151 C  
BRANCH   6   7
HETATM    7  O   UNL     1      -8.017  11.320  66.175  1.00  0.00    -0.134 OA 
HETATM    8  O   UNL     1      -6.627   9.776  67.075  1.00  0.00    -0.069 OA 
HETATM    9  N   UNL     1      -7.069  10.276  66.042  1.00  0.00    -0.121 N  
HETATM   10  O   UNL     1      -6.845   9.982  64.872  1.00  0.00    -0.122 OA 
ENDBRANCH   6   7
BRANCH   6  11
HETATM   11  C   UNL     1      -8.073  13.133  67.876  1.00  0.00    -0.159 C  
BRANCH  11  12
HETATM   12  O   UNL     1      -6.670  13.225  68.143  1.00  0.00    -0.087 OA 
HETATM   13  O   UNL     1      -7.233  14.580  69.856  1.00  0.00    -0.085 OA 
HETATM   14  O   UNL     1      -5.296  13.471  69.848  1.00  0.00    -0.084 OA 
HETATM   15  N   UNL     1      -6.386  13.814  69.400  1.00  0.00    -0.107 N  
ENDBRANCH  11  12
BRANCH  11  16
HETATM   16  C   UNL     1      -8.496  14.136  66.782  1.00  0.00     0.000 C  
BRANCH  16  17
HETATM   17  O   UNL     1      -9.759  14.728  67.082  1.00  0.00    -0.226 OA 
HETATM   18  N   UNL     1      -9.785  16.116  66.750  1.00  0.00    -0.233 N  
HETATM   19  O   UNL     1     -10.894  16.620  66.912  1.00  0.00    -0.209 OA 
HETATM   20  O   UNL     1      -8.730  16.621  66.376  1.00  0.00    -0.257 OA 
ENDBRANCH  16  17
ENDBRANCH  11  16
ENDBRANCH   6  11
ENDBRANCH   5   6
ENDBRANCH   4   5
TORSDOF 7
ENDMDL
MODEL      344
REMARK 921   NORMALIZED FREE ENERGY PREDICTED BY IDOCK:   -2.34 KCAL/MOL
REMARK 922        TOTAL FREE ENERGY PREDICTED BY IDOCK:   -4.24 KCAL/MOL
REMARK 923 INTER-LIGAND FREE ENERGY PREDICTED BY IDOCK:   -4.83 KCAL/MOL
REMARK 924 INTRA-LIGAND FREE ENERGY PREDICTED BY IDOCK:    0.59 KCAL/MOL
REMARK 927      BINDING AFFINITY PREDICTED BY RF-SCORE:    0.00 PKD
ROOT
HETATM    1  O   UNL     1     -12.815  10.615  71.695  1.00  0.00    -0.414 OA 
HETATM    2  N   UNL     1     -12.581   9.409  71.671  1.00  0.00    -0.349 N  
HETATM    3  O   UNL     1     -12.844   8.533  72.496  1.00  0.00    -0.345 OA 
HETATM    4  O   UNL     1     -11.907   9.003  70.490  1.00  0.00    -0.207 OA 
ENDROOT
BRANCH   4   5
HETATM    5  C   UNL     1     -11.613   7.606  70.481  1.00  0.00    -0.175 C  
BRANCH   5   6
HETATM    6  C   UNL     1     -10.385   7.352  69.570  1.00  0.00    -0.217 C  
BRANCH   6   7
HETATM    7  O   UNL     1     -10.140   8.402  68.619  1.00  0.00    -0.183 OA 
HETATM    8  O   UNL     1     -11.082   7.068  67.051  1.00  0.00    -0.373 OA 
HETATM    9  N   UNL     1     -10.574   8.162  67.292  1.00  0.00    -0.304 N  
HETATM   10  O   UNL     1     -10.411   9.129  66.555  1.00  0.00    -0.263 OA 
ENDBRANCH   6   7
BRANCH   6  11
HETATM   11  C   UNL     1      -9.101   6.940  70.342  1.00  0.00    -0.156 C  
BRANCH  11  12
HETATM   12  O   UNL     1      -8.137   7.991  70.210  1.00  0.00    -0.108 OA 
HETATM   13  O   UNL     1      -9.026   8.843  72.100  1.00  0.00    -0.381 OA 
HETATM   14  O   UNL     1      -6.942   9.342  71.475  1.00  0.00    -0.307 OA 
HETATM   15  N   UNL     1      -8.034   8.792  71.375  1.00  0.00    -0.143 N  
ENDBRANCH  11  12
BRANCH  11  16
HETATM   16  C   UNL     1      -9.364   6.614  71.827  1.00  0.00    -0.148 C  
BRANCH  16  17
HETATM   17  O   UNL     1      -9.229   5.217  72.083  1.00  0.00    -0.135 OA 
HETATM   18  N   UNL     1     -10.368   4.691  72.764  1.00  0.00    -0.183 N  
HETATM   19  O   UNL     1     -10.310   3.471  72.907  1.00  0.00    -0.156 OA 
HETATM   20  O   UNL     1     -11.224   5.494  73.126  1.00  0.00    -0.286 OA 
ENDBRANCH  16  17
ENDBRANCH  11  16
ENDBRANCH   6  11
ENDBRANCH   5   6
ENDBRANCH   4   5
TORSDOF 7
ENDMDL
MODEL      345
REMARK 921   NORMALIZED FREE ENERGY PREDICTED BY IDOCK:   -2.34 KCAL/MOL
REMARK 922        TOTAL FREE ENERGY PREDICTED BY IDOCK:   -4.23 KCAL/MOL
REMARK 923 INTER-LIGAND FREE ENERGY PREDICTED BY IDOCK:   -3.81 KCAL/MOL
REMARK 924 INTRA-LIGAND FREE ENERGY PREDICTED BY IDOCK:   -0.42 KCAL/MOL
REMARK 927      BINDING AFFINITY PREDICTED BY RF-SCORE:    0.00 PKD
ROOT
HETATM    1  O   UNL     1     -10.959   5.127  69.330  1.00  0.00     0.091 OA 
HETATM    2  N   UNL     1     -11.081   6.000  70.186  1.00  0.00    -0.361 N  
HETATM    3  O   UNL     1     -11.517   5.930  71.336  1.00  0.00    -0.242 OA 
HETATM    4  O   UNL     1     -10.635   7.272  69.740  1.00  0.00    -0.224 OA 
ENDROOT
BRANCH   4   5
HETATM    5  C   UNL     1     -10.805   8.288  70.729  1.00  0.00    -0.227 C  
BRANCH   5   6
HETATM    6  C   UNL     1     -10.524   9.671  70.087  1.00  0.00    -0.273 C  
BRANCH   6   7
HETATM    7  O   UNL     1     -11.109  10.773  70.802  1.00  0.00    -0.074 OA 
HETATM    8  O   UNL     1     -11.889  11.522  68.814  1.00  0.00    -0.314 OA 
HETATM    9  N   UNL     1     -11.845  11.704  70.029  1.00  0.00    -0.344 N  
HETATM   10  O   UNL     1     -12.386  12.568  70.712  1.00  0.00    -0.377 OA 
ENDBRANCH   6   7
BRANCH   6  11
HETATM   11  C   UNL     1      -9.029   9.916  69.743  1.00  0.00    -0.221 C  
BRANCH  11  12
HETATM   12  O   UNL     1      -8.273   8.781  70.181  1.00  0.00    -0.102 OA 
HETATM   13  O   UNL     1      -6.772  10.270  70.968  1.00  0.00    -0.339 OA 
HETATM   14  O   UNL     1      -6.897   8.204  71.803  1.00  0.00    -0.061 OA 
HETATM   15  N   UNL     1      -7.221   9.129  71.065  1.00  0.00    -0.110 N  
ENDBRANCH  11  12
BRANCH  11  16
HETATM   16  C   UNL     1      -8.789  10.196  68.245  1.00  0.00    -0.124 C  
BRANCH  16  17
HETATM   17  O   UNL     1      -7.579  10.923  68.040  1.00  0.00    -0.088 OA 
HETATM   18  N   UNL     1      -7.828  12.309  67.807  1.00  0.00    -0.139 N  
HETATM   19  O   UNL     1      -6.793  12.967  67.724  1.00  0.00    -0.110 OA 
HETATM   20  O   UNL     1      -9.001  12.657  67.703  1.00  0.00    -0.169 OA 
ENDBRANCH  16  17
ENDBRANCH  11  16
ENDBRANCH   6  11
ENDBRANCH   5   6
ENDBRANCH   4   5
TORSDOF 7
ENDMDL
MODEL      346
REMARK 921   NORMALIZED FREE ENERGY PREDICTED BY IDOCK:   -2.33 KCAL/MOL
REMARK 922        TOTAL FREE ENERGY PREDICTED BY IDOCK:   -4.23 KCAL/MOL
REMARK 923 INTER-LIGAND FREE ENERGY PREDICTED BY IDOCK:   -3.47 KCAL/MOL
REMARK 924 INTRA-LIGAND FREE ENERGY PREDICTED BY IDOCK:   -0.76 KCAL/MOL
REMARK 927      BINDING AFFINITY PREDICTED BY RF-SCORE:    0.00 PKD
ROOT
HETATM    1  O   UNL     1      -6.034  12.019  70.796  1.00  0.00    -0.324 OA 
HETATM    2  N   UNL     1      -6.025  10.796  70.904  1.00  0.00    -0.045 N  
HETATM    3  O   UNL     1      -5.538  10.078  71.779  1.00  0.00    -0.223 OA 
HETATM    4  O   UNL     1      -6.697  10.145  69.836  1.00  0.00    -0.077 OA 
ENDROOT
BRANCH   4   5
HETATM    5  C   UNL     1      -6.660   8.722  69.952  1.00  0.00    -0.041 C  
BRANCH   5   6
HETATM    6  C   UNL     1      -7.970   8.132  69.370  1.00  0.00    -0.114 C  
BRANCH   6   7
HETATM    7  O   UNL     1      -7.793   7.449  68.117  1.00  0.00    -0.117 OA 
HETATM    8  O   UNL     1      -9.509   8.686  67.312  1.00  0.00    -0.146 OA 
HETATM    9  N   UNL     1      -8.657   7.836  67.063  1.00  0.00    -0.126 N  
HETATM   10  O   UNL     1      -8.395   7.276  66.004  1.00  0.00    -0.126 OA 
ENDBRANCH   6   7
BRANCH   6  11
HETATM   11  C   UNL     1      -8.794   7.297  70.389  1.00  0.00    -0.150 C  
BRANCH  11  12
HETATM   12  O   UNL     1     -10.067   7.927  70.566  1.00  0.00    -0.191 OA 
HETATM   13  O   UNL     1      -9.180   8.867  72.415  1.00  0.00    -0.362 OA 
HETATM   14  O   UNL     1     -10.920   9.794  71.368  1.00  0.00    -0.342 OA 
HETATM   15  N   UNL     1     -10.041   8.956  71.541  1.00  0.00    -0.297 N  
ENDBRANCH  11  12
BRANCH  11  16
HETATM   16  C   UNL     1      -8.960   5.821  69.970  1.00  0.00    -0.139 C  
BRANCH  16  17
HETATM   17  O   UNL     1      -9.475   5.033  71.041  1.00  0.00    -0.148 OA 
HETATM   18  N   UNL     1      -9.669   3.673  70.651  1.00  0.00    -0.180 N  
HETATM   19  O   UNL     1     -10.022   2.959  71.588  1.00  0.00    -0.158 OA 
HETATM   20  O   UNL     1      -9.485   3.398  69.469  1.00  0.00    -0.165 OA 
ENDBRANCH  16  17
ENDBRANCH  11  16
ENDBRANCH   6  11
ENDBRANCH   5   6
ENDBRANCH   4   5
TORSDOF 7
ENDMDL
MODEL      347
REMARK 921   NORMALIZED FREE ENERGY PREDICTED BY IDOCK:   -2.30 KCAL/MOL
REMARK 922        TOTAL FREE ENERGY PREDICTED BY IDOCK:   -4.18 KCAL/MOL
REMARK 923 INTER-LIGAND FREE ENERGY PREDICTED BY IDOCK:   -3.34 KCAL/MOL
REMARK 924 INTRA-LIGAND FREE ENERGY PREDICTED BY IDOCK:   -0.83 KCAL/MOL
REMARK 927      BINDING AFFINITY PREDICTED BY RF-SCORE:    0.00 PKD
ROOT
HETATM    1  O   UNL     1     -12.315  11.501  70.806  1.00  0.00    -0.374 OA 
HETATM    2  N   UNL     1     -11.527  11.315  69.883  1.00  0.00    -0.295 N  
HETATM    3  O   UNL     1     -11.055  12.110  69.069  1.00  0.00    -0.233 OA 
HETATM    4  O   UNL     1     -11.118   9.960  69.773  1.00  0.00    -0.239 OA 
ENDROOT
BRANCH   4   5
HETATM    5  C   UNL     1     -10.225   9.744  68.681  1.00  0.00    -0.190 C  
BRANCH   5   6
HETATM    6  C   UNL     1      -9.116   8.754  69.121  1.00  0.00    -0.141 C  
BRANCH   6   7
HETATM    7  O   UNL     1      -8.374   9.187  70.273  1.00  0.00    -0.134 OA 
HETATM    8  O   UNL     1      -6.499   8.984  69.021  1.00  0.00    -0.046 OA 
HETATM    9  N   UNL     1      -6.971   9.302  70.110  1.00  0.00    -0.058 N  
HETATM   10  O   UNL     1      -6.412   9.756  71.104  1.00  0.00    -0.244 OA 
ENDBRANCH   6   7
BRANCH   6  11
HETATM   11  C   UNL     1      -9.598   7.282  69.245  1.00  0.00    -0.156 C  
BRANCH  11  12
HETATM   12  O   UNL     1      -8.993   6.518  68.196  1.00  0.00    -0.119 OA 
HETATM   13  O   UNL     1     -10.936   6.783  67.082  1.00  0.00    -0.363 OA 
HETATM   14  O   UNL     1      -9.031   6.356  65.999  1.00  0.00    -0.157 OA 
HETATM   15  N   UNL     1      -9.729   6.564  66.986  1.00  0.00    -0.144 N  
ENDBRANCH  11  12
BRANCH  11  16
HETATM   16  C   UNL     1      -9.299   6.660  70.626  1.00  0.00    -0.162 C  
BRANCH  16  17
HETATM   17  O   UNL     1     -10.502   6.385  71.342  1.00  0.00    -0.210 OA 
HETATM   18  N   UNL     1     -10.663   4.988  71.587  1.00  0.00    -0.119 N  
HETATM   19  O   UNL     1     -11.644   4.741  72.285  1.00  0.00     0.218 OA 
HETATM   20  O   UNL     1      -9.843   4.231  71.073  1.00  0.00    -0.178 OA 
ENDBRANCH  16  17
ENDBRANCH  11  16
ENDBRANCH   6  11
ENDBRANCH   5   6
ENDBRANCH   4   5
TORSDOF 7
ENDMDL
MODEL      348
REMARK 921   NORMALIZED FREE ENERGY PREDICTED BY IDOCK:   -2.29 KCAL/MOL
REMARK 922        TOTAL FREE ENERGY PREDICTED BY IDOCK:   -4.17 KCAL/MOL
REMARK 923 INTER-LIGAND FREE ENERGY PREDICTED BY IDOCK:   -3.43 KCAL/MOL
REMARK 924 INTRA-LIGAND FREE ENERGY PREDICTED BY IDOCK:   -0.73 KCAL/MOL
REMARK 927      BINDING AFFINITY PREDICTED BY RF-SCORE:    0.00 PKD
ROOT
HETATM    1  O   UNL     1     -13.342   7.296  71.343  1.00  0.00    -0.383 OA 
HETATM    2  N   UNL     1     -12.328   6.602  71.350  1.00  0.00    -0.339 N  
HETATM    3  O   UNL     1     -11.761   6.033  72.284  1.00  0.00    -0.310 OA 
HETATM    4  O   UNL     1     -11.755   6.454  70.060  1.00  0.00    -0.429 OA 
ENDROOT
BRANCH   4   5
HETATM    5  C   UNL     1     -10.562   5.670  70.078  1.00  0.00    -0.318 C  
BRANCH   5   6
HETATM    6  C   UNL     1      -9.334   6.616  70.092  1.00  0.00    -0.158 C  
BRANCH   6   7
HETATM    7  O   UNL     1      -9.671   8.008  69.964  1.00  0.00    -0.172 OA 
HETATM    8  O   UNL     1      -8.163   8.118  68.280  1.00  0.00    -0.126 OA 
HETATM    9  N   UNL     1      -9.002   8.725  68.942  1.00  0.00    -0.134 N  
HETATM   10  O   UNL     1      -9.399   9.881  68.834  1.00  0.00    -0.156 OA 
ENDBRANCH   6   7
BRANCH   6  11
HETATM   11  C   UNL     1      -8.346   6.351  71.262  1.00  0.00    -0.123 C  
BRANCH  11  12
HETATM   12  O   UNL     1      -8.234   7.548  72.039  1.00  0.00    -0.099 OA 
HETATM   13  O   UNL     1      -6.014   7.409  71.664  1.00  0.00    -0.036 OA 
HETATM   14  O   UNL     1      -6.982   9.357  72.168  1.00  0.00    -0.270 OA 
HETATM   15  N   UNL     1      -6.956   8.151  71.940  1.00  0.00    -0.072 N  
ENDBRANCH  11  12
BRANCH  11  16
HETATM   16  C   UNL     1      -8.759   5.154  72.145  1.00  0.00    -0.129 C  
BRANCH  16  17
HETATM   17  O   UNL     1      -8.119   3.952  71.720  1.00  0.00    -0.075 OA 
HETATM   18  N   UNL     1      -7.016   3.614  72.561  1.00  0.00    -0.041 N  
HETATM   19  O   UNL     1      -6.513   2.531  72.268  1.00  0.00    -0.014 OA 
HETATM   20  O   UNL     1      -6.706   4.424  73.430  1.00  0.00    -0.053 OA 
ENDBRANCH  16  17
ENDBRANCH  11  16
ENDBRANCH   6  11
ENDBRANCH   5   6
ENDBRANCH   4   5
TORSDOF 7
ENDMDL
MODEL      349
REMARK 921   NORMALIZED FREE ENERGY PREDICTED BY IDOCK:   -2.28 KCAL/MOL
REMARK 922        TOTAL FREE ENERGY PREDICTED BY IDOCK:   -4.16 KCAL/MOL
REMARK 923 INTER-LIGAND FREE ENERGY PREDICTED BY IDOCK:   -4.50 KCAL/MOL
REMARK 924 INTRA-LIGAND FREE ENERGY PREDICTED BY IDOCK:    0.34 KCAL/MOL
REMARK 927      BINDING AFFINITY PREDICTED BY RF-SCORE:    0.00 PKD
ROOT
HETATM    1  O   UNL     1     -10.544  13.153  67.703  1.00  0.00    -0.224 OA 
HETATM    2  N   UNL     1     -11.123  12.080  67.853  1.00  0.00    -0.221 N  
HETATM    3  O   UNL     1     -11.680  11.355  67.027  1.00  0.00    -0.535 OA 
HETATM    4  O   UNL     1     -11.124  11.640  69.203  1.00  0.00    -0.229 OA 
ENDROOT
BRANCH   4   5
HETATM    5  C   UNL     1     -11.822  10.407  69.376  1.00  0.00    -0.118 C  
BRANCH   5   6
HETATM    6  C   UNL     1     -11.475   9.819  70.768  1.00  0.00    -0.342 C  
BRANCH   6   7
HETATM    7  O   UNL     1     -12.365  10.241  71.815  1.00  0.00    -0.377 OA 
HETATM    8  O   UNL     1     -13.891   8.802  70.964  1.00  0.00    -0.122 OA 
HETATM    9  N   UNL     1     -13.636   9.616  71.849  1.00  0.00    -0.385 N  
HETATM   10  O   UNL     1     -14.310   9.961  72.815  1.00  0.00     0.065 OA 
ENDBRANCH   6   7
BRANCH   6  11
HETATM   11  C   UNL     1     -11.249   8.282  70.766  1.00  0.00    -0.264 C  
BRANCH  11  12
HETATM   12  O   UNL     1     -10.498   7.937  69.597  1.00  0.00    -0.219 OA 
HETATM   13  O   UNL     1     -11.347   5.862  69.843  1.00  0.00    -0.364 OA 
HETATM   14  O   UNL     1     -10.618   6.585  67.861  1.00  0.00    -0.194 OA 
HETATM   15  N   UNL     1     -10.863   6.677  69.059  1.00  0.00    -0.263 N  
ENDBRANCH  11  12
BRANCH  11  16
HETATM   16  C   UNL     1     -10.553   7.769  72.044  1.00  0.00    -0.228 C  
BRANCH  16  17
HETATM   17  O   UNL     1      -9.133   7.789  71.905  1.00  0.00    -0.126 OA 
HETATM   18  N   UNL     1      -8.574   6.479  72.001  1.00  0.00    -0.125 N  
HETATM   19  O   UNL     1      -7.364   6.465  71.789  1.00  0.00    -0.085 OA 
HETATM   20  O   UNL     1      -9.339   5.564  72.294  1.00  0.00    -0.145 OA 
ENDBRANCH  16  17
ENDBRANCH  11  16
ENDBRANCH   6  11
ENDBRANCH   5   6
ENDBRANCH   4   5
TORSDOF 7
ENDMDL
MODEL      350
REMARK 921   NORMALIZED FREE ENERGY PREDICTED BY IDOCK:   -2.28 KCAL/MOL
REMARK 922        TOTAL FREE ENERGY PREDICTED BY IDOCK:   -4.15 KCAL/MOL
REMARK 923 INTER-LIGAND FREE ENERGY PREDICTED BY IDOCK:   -3.35 KCAL/MOL
REMARK 924 INTRA-LIGAND FREE ENERGY PREDICTED BY IDOCK:   -0.80 KCAL/MOL
REMARK 927      BINDING AFFINITY PREDICTED BY RF-SCORE:    0.00 PKD
ROOT
HETATM    1  O   UNL     1      -9.009   3.945  71.703  1.00  0.00    -0.104 OA 
HETATM    2  N   UNL     1      -9.123   5.123  72.031  1.00  0.00    -0.136 N  
HETATM    3  O   UNL     1      -9.908   5.657  72.816  1.00  0.00    -0.162 OA 
HETATM    4  O   UNL     1      -8.181   5.967  71.385  1.00  0.00    -0.120 OA 
ENDROOT
BRANCH   4   5
HETATM    5  C   UNL     1      -8.337   7.339  71.749  1.00  0.00    -0.104 C  
BRANCH   5   6
HETATM    6  C   UNL     1      -9.304   8.022  70.748  1.00  0.00    -0.157 C  
BRANCH   6   7
HETATM    7  O   UNL     1     -10.297   8.852  71.375  1.00  0.00    -0.251 OA 
HETATM    8  O   UNL     1     -11.851   7.380  70.638  1.00  0.00    -0.286 OA 
HETATM    9  N   UNL     1     -11.639   8.407  71.279  1.00  0.00    -0.276 N  
HETATM   10  O   UNL     1     -12.421   9.115  71.905  1.00  0.00    -0.339 OA 
ENDBRANCH   6   7
BRANCH   6  11
HETATM   11  C   UNL     1      -8.589   8.740  69.570  1.00  0.00    -0.130 C  
BRANCH  11  12
HETATM   12  O   UNL     1      -9.558   9.011  68.552  1.00  0.00    -0.149 OA 
HETATM   13  O   UNL     1      -8.441   7.508  67.294  1.00  0.00    -0.117 OA 
HETATM   14  O   UNL     1     -10.585   7.985  66.894  1.00  0.00    -0.338 OA 
HETATM   15  N   UNL     1      -9.515   8.076  67.488  1.00  0.00    -0.142 N  
ENDBRANCH  11  12
BRANCH  11  16
HETATM   16  C   UNL     1      -7.860  10.031  69.999  1.00  0.00    -0.158 C  
BRANCH  16  17
HETATM   17  O   UNL     1      -8.118  11.099  69.089  1.00  0.00    -0.121 OA 
HETATM   18  N   UNL     1      -6.962  11.911  68.886  1.00  0.00    -0.105 N  
HETATM   19  O   UNL     1      -7.138  12.778  68.033  1.00  0.00    -0.087 OA 
HETATM   20  O   UNL     1      -5.976  11.665  69.577  1.00  0.00    -0.069 OA 
ENDBRANCH  16  17
ENDBRANCH  11  16
ENDBRANCH   6  11
ENDBRANCH   5   6
ENDBRANCH   4   5
TORSDOF 7
ENDMDL
MODEL      351
REMARK 921   NORMALIZED FREE ENERGY PREDICTED BY IDOCK:   -2.26 KCAL/MOL
REMARK 922        TOTAL FREE ENERGY PREDICTED BY IDOCK:   -4.13 KCAL/MOL
REMARK 923 INTER-LIGAND FREE ENERGY PREDICTED BY IDOCK:   -3.25 KCAL/MOL
REMARK 924 INTRA-LIGAND FREE ENERGY PREDICTED BY IDOCK:   -0.87 KCAL/MOL
REMARK 927      BINDING AFFINITY PREDICTED BY RF-SCORE:    0.00 PKD
ROOT
HETATM    1  O   UNL     1      -7.644  11.130  68.940  1.00  0.00    -0.120 OA 
HETATM    2  N   UNL     1      -7.446  10.259  69.783  1.00  0.00    -0.157 N  
HETATM    3  O   UNL     1      -6.970  10.343  70.916  1.00  0.00    -0.273 OA 
HETATM    4  O   UNL     1      -7.846   8.970  69.344  1.00  0.00    -0.089 OA 
ENDROOT
BRANCH   4   5
HETATM    5  C   UNL     1      -7.588   7.957  70.317  1.00  0.00    -0.086 C  
BRANCH   5   6
HETATM    6  C   UNL     1      -8.937   7.420  70.859  1.00  0.00    -0.149 C  
BRANCH   6   7
HETATM    7  O   UNL     1      -9.644   6.581  69.930  1.00  0.00    -0.154 OA 
HETATM    8  O   UNL     1     -11.033   8.330  69.559  1.00  0.00    -0.171 OA 
HETATM    9  N   UNL     1     -10.745   7.173  69.262  1.00  0.00    -0.227 N  
HETATM   10  O   UNL     1     -11.248   6.430  68.425  1.00  0.00    -0.320 OA 
ENDBRANCH   6   7
BRANCH   6  11
HETATM   11  C   UNL     1      -8.841   6.786  72.275  1.00  0.00    -0.131 C  
BRANCH  11  12
HETATM   12  O   UNL     1      -8.574   7.828  73.220  1.00  0.00    -0.146 OA 
HETATM   13  O   UNL     1      -6.671   6.713  73.690  1.00  0.00    -0.072 OA 
HETATM   14  O   UNL     1      -6.862   8.899  74.101  1.00  0.00    -0.351 OA 
HETATM   15  N   UNL     1      -7.244   7.801  73.707  1.00  0.00    -0.112 N  
ENDBRANCH  11  12
BRANCH  11  16
HETATM   16  C   UNL     1     -10.103   5.989  72.670  1.00  0.00    -0.178 C  
BRANCH  16  17
HETATM   17  O   UNL     1      -9.866   5.180  73.820  1.00  0.00    -0.147 OA 
HETATM   18  N   UNL     1      -9.934   3.788  73.511  1.00  0.00    -0.115 N  
HETATM   19  O   UNL     1      -9.639   3.077  74.469  1.00  0.00    -0.090 OA 
HETATM   20  O   UNL     1     -10.285   3.484  72.374  1.00  0.00    -0.164 OA 
ENDBRANCH  16  17
ENDBRANCH  11  16
ENDBRANCH   6  11
ENDBRANCH   5   6
ENDBRANCH   4   5
TORSDOF 7
ENDMDL
MODEL      352
REMARK 921   NORMALIZED FREE ENERGY PREDICTED BY IDOCK:   -2.25 KCAL/MOL
REMARK 922        TOTAL FREE ENERGY PREDICTED BY IDOCK:   -4.11 KCAL/MOL
REMARK 923 INTER-LIGAND FREE ENERGY PREDICTED BY IDOCK:   -3.18 KCAL/MOL
REMARK 924 INTRA-LIGAND FREE ENERGY PREDICTED BY IDOCK:   -0.93 KCAL/MOL
REMARK 927      BINDING AFFINITY PREDICTED BY RF-SCORE:    0.00 PKD
ROOT
HETATM    1  O   UNL     1      -8.954  14.531  67.747  1.00  0.00    -0.178 OA 
HETATM    2  N   UNL     1      -9.525  13.543  67.293  1.00  0.00    -0.222 N  
HETATM    3  O   UNL     1     -10.006  13.346  66.176  1.00  0.00    -0.284 OA 
HETATM    4  O   UNL     1      -9.620  12.483  68.233  1.00  0.00    -0.213 OA 
ENDROOT
BRANCH   4   5
HETATM    5  C   UNL     1     -10.308  11.347  67.709  1.00  0.00    -0.182 C  
BRANCH   5   6
HETATM    6  C   UNL     1      -9.611  10.056  68.210  1.00  0.00    -0.140 C  
BRANCH   6   7
HETATM    7  O   UNL     1     -10.515   9.085  68.763  1.00  0.00    -0.216 OA 
HETATM    8  O   UNL     1      -9.841   9.766  70.813  1.00  0.00    -0.218 OA 
HETATM    9  N   UNL     1     -10.584   9.022  70.176  1.00  0.00    -0.216 N  
HETATM   10  O   UNL     1     -11.434   8.234  70.578  1.00  0.00    -0.257 OA 
ENDBRANCH   6   7
BRANCH   6  11
HETATM   11  C   UNL     1      -8.625   9.432  67.184  1.00  0.00    -0.128 C  
BRANCH  11  12
HETATM   12  O   UNL     1      -8.432  10.367  66.117  1.00  0.00    -0.137 OA 
HETATM   13  O   UNL     1      -8.656   8.603  64.729  1.00  0.00    -0.172 OA 
HETATM   14  O   UNL     1      -9.057  10.685  64.028  1.00  0.00    -0.201 OA 
HETATM   15  N   UNL     1      -8.748   9.824  64.846  1.00  0.00    -0.169 N  
ENDBRANCH  11  12
BRANCH  11  16
HETATM   16  C   UNL     1      -7.277   9.021  67.812  1.00  0.00    -0.083 C  
BRANCH  16  17
HETATM   17  O   UNL     1      -6.890   9.922  68.848  1.00  0.00    -0.056 OA 
HETATM   18  N   UNL     1      -5.779   9.425  69.594  1.00  0.00    -0.033 N  
HETATM   19  O   UNL     1      -5.373  10.230  70.429  1.00  0.00    -0.043 OA 
HETATM   20  O   UNL     1      -5.393   8.289  69.333  1.00  0.00    -0.029 OA 
ENDBRANCH  16  17
ENDBRANCH  11  16
ENDBRANCH   6  11
ENDBRANCH   5   6
ENDBRANCH   4   5
TORSDOF 7
ENDMDL
MODEL      353
REMARK 921   NORMALIZED FREE ENERGY PREDICTED BY IDOCK:   -2.24 KCAL/MOL
REMARK 922        TOTAL FREE ENERGY PREDICTED BY IDOCK:   -4.10 KCAL/MOL
REMARK 923 INTER-LIGAND FREE ENERGY PREDICTED BY IDOCK:   -3.22 KCAL/MOL
REMARK 924 INTRA-LIGAND FREE ENERGY PREDICTED BY IDOCK:   -0.88 KCAL/MOL
REMARK 927      BINDING AFFINITY PREDICTED BY RF-SCORE:    0.00 PKD
ROOT
HETATM    1  O   UNL     1      -5.185   6.250  67.798  1.00  0.00    -0.004 OA 
HETATM    2  N   UNL     1      -5.776   5.600  66.940  1.00  0.00    -0.016 N  
HETATM    3  O   UNL     1      -5.424   5.277  65.804  1.00  0.00    -0.012 OA 
HETATM    4  O   UNL     1      -7.060   5.168  67.365  1.00  0.00    -0.064 OA 
ENDROOT
BRANCH   4   5
HETATM    5  C   UNL     1      -7.753   4.436  66.354  1.00  0.00    -0.094 C  
BRANCH   5   6
HETATM    6  C   UNL     1      -8.945   5.285  65.842  1.00  0.00    -0.148 C  
BRANCH   6   7
HETATM    7  O   UNL     1     -10.099   4.507  65.479  1.00  0.00    -0.208 OA 
HETATM    8  O   UNL     1      -9.207   4.331  63.405  1.00  0.00    -0.135 OA 
HETATM    9  N   UNL     1     -10.134   4.019  64.149  1.00  0.00    -0.184 N  
HETATM   10  O   UNL     1     -11.102   3.295  63.934  1.00  0.00    -0.275 OA 
ENDBRANCH   6   7
BRANCH   6  11
HETATM   11  C   UNL     1      -9.305   6.487  66.758  1.00  0.00    -0.156 C  
BRANCH  11  12
HETATM   12  O   UNL     1      -8.927   7.695  66.089  1.00  0.00    -0.166 OA 
HETATM   13  O   UNL     1      -7.766   8.192  67.958  1.00  0.00    -0.109 OA 
HETATM   14  O   UNL     1      -7.232   9.100  65.989  1.00  0.00    -0.091 OA 
HETATM   15  N   UNL     1      -7.878   8.383  66.748  1.00  0.00    -0.094 N  
ENDBRANCH  11  12
BRANCH  11  16
HETATM   16  C   UNL     1     -10.794   6.519  67.160  1.00  0.00    -0.401 C  
BRANCH  16  17
HETATM   17  O   UNL     1     -11.010   5.859  68.406  1.00  0.00    -0.274 OA 
HETATM   18  N   UNL     1     -11.101   6.787  69.487  1.00  0.00    -0.277 N  
HETATM   19  O   UNL     1     -11.382   6.244  70.553  1.00  0.00    -0.337 OA 
HETATM   20  O   UNL     1     -10.878   7.967  69.232  1.00  0.00    -0.177 OA 
ENDBRANCH  16  17
ENDBRANCH  11  16
ENDBRANCH   6  11
ENDBRANCH   5   6
ENDBRANCH   4   5
TORSDOF 7
ENDMDL
MODEL      354
REMARK 921   NORMALIZED FREE ENERGY PREDICTED BY IDOCK:   -2.24 KCAL/MOL
REMARK 922        TOTAL FREE ENERGY PREDICTED BY IDOCK:   -4.09 KCAL/MOL
REMARK 923 INTER-LIGAND FREE ENERGY PREDICTED BY IDOCK:   -3.11 KCAL/MOL
REMARK 924 INTRA-LIGAND FREE ENERGY PREDICTED BY IDOCK:   -0.98 KCAL/MOL
REMARK 927      BINDING AFFINITY PREDICTED BY RF-SCORE:    0.00 PKD
ROOT
HETATM    1  O   UNL     1     -12.773  11.108  70.940  1.00  0.00    -0.357 OA 
HETATM    2  N   UNL     1     -12.044  11.038  69.954  1.00  0.00    -0.341 N  
HETATM    3  O   UNL     1     -11.689  11.915  69.165  1.00  0.00    -0.273 OA 
HETATM    4  O   UNL     1     -11.551   9.726  69.727  1.00  0.00    -0.160 OA 
ENDROOT
BRANCH   4   5
HETATM    5  C   UNL     1     -10.727   9.646  68.564  1.00  0.00    -0.200 C  
BRANCH   5   6
HETATM    6  C   UNL     1      -9.300   9.209  68.984  1.00  0.00    -0.151 C  
BRANCH   6   7
HETATM    7  O   UNL     1      -8.501  10.275  69.523  1.00  0.00    -0.165 OA 
HETATM    8  O   UNL     1      -7.323  10.240  67.590  1.00  0.00    -0.087 OA 
HETATM    9  N   UNL     1      -7.476  10.778  68.684  1.00  0.00    -0.094 N  
HETATM   10  O   UNL     1      -6.890  11.740  69.172  1.00  0.00    -0.100 OA 
ENDBRANCH   6   7
BRANCH   6  11
HETATM   11  C   UNL     1      -9.265   7.935  69.873  1.00  0.00    -0.153 C  
BRANCH  11  12
HETATM   12  O   UNL     1      -8.811   6.838  69.073  1.00  0.00    -0.130 OA 
HETATM   13  O   UNL     1     -10.727   5.805  69.663  1.00  0.00    -0.293 OA 
HETATM   14  O   UNL     1      -9.627   5.229  67.807  1.00  0.00    -0.123 OA 
HETATM   15  N   UNL     1      -9.823   5.876  68.832  1.00  0.00    -0.137 N  
ENDBRANCH  11  12
BRANCH  11  16
HETATM   16  C   UNL     1      -8.393   8.100  71.135  1.00  0.00    -0.120 C  
BRANCH  16  17
HETATM   17  O   UNL     1      -7.986   6.834  71.653  1.00  0.00    -0.101 OA 
HETATM   18  N   UNL     1      -6.565   6.697  71.658  1.00  0.00    -0.053 N  
HETATM   19  O   UNL     1      -6.193   5.653  72.188  1.00  0.00    -0.040 OA 
HETATM   20  O   UNL     1      -5.915   7.597  71.133  1.00  0.00    -0.035 OA 
ENDBRANCH  16  17
ENDBRANCH  11  16
ENDBRANCH   6  11
ENDBRANCH   5   6
ENDBRANCH   4   5
TORSDOF 7
ENDMDL
MODEL      355
REMARK 921   NORMALIZED FREE ENERGY PREDICTED BY IDOCK:   -2.22 KCAL/MOL
REMARK 922        TOTAL FREE ENERGY PREDICTED BY IDOCK:   -4.06 KCAL/MOL
REMARK 923 INTER-LIGAND FREE ENERGY PREDICTED BY IDOCK:   -4.00 KCAL/MOL
REMARK 924 INTRA-LIGAND FREE ENERGY PREDICTED BY IDOCK:   -0.07 KCAL/MOL
REMARK 927      BINDING AFFINITY PREDICTED BY RF-SCORE:    0.00 PKD
ROOT
HETATM    1  O   UNL     1     -10.435  12.616  67.650  1.00  0.00    -0.214 OA 
HETATM    2  N   UNL     1     -10.790  11.466  67.895  1.00  0.00    -0.210 N  
HETATM    3  O   UNL     1     -11.122  10.557  67.133  1.00  0.00    -0.265 OA 
HETATM    4  O   UNL     1     -10.801  11.179  69.286  1.00  0.00    -0.224 OA 
ENDROOT
BRANCH   4   5
HETATM    5  C   UNL     1     -11.241   9.850  69.567  1.00  0.00    -0.177 C  
BRANCH   5   6
HETATM    6  C   UNL     1     -10.170   9.134  70.428  1.00  0.00    -0.222 C  
BRANCH   6   7
HETATM    7  O   UNL     1     -10.533   8.999  71.813  1.00  0.00    -0.332 OA 
HETATM    8  O   UNL     1     -12.035   7.434  71.166  1.00  0.00    -0.301 OA 
HETATM    9  N   UNL     1     -11.532   8.040  72.110  1.00  0.00    -0.310 N  
HETATM   10  O   UNL     1     -11.731   7.918  73.315  1.00  0.00    -0.201 OA 
ENDBRANCH   6   7
BRANCH   6  11
HETATM   11  C   UNL     1      -9.657   7.800  69.818  1.00  0.00    -0.167 C  
BRANCH  11  12
HETATM   12  O   UNL     1      -9.977   7.789  68.422  1.00  0.00    -0.167 OA 
HETATM   13  O   UNL     1     -10.539   5.625  68.718  1.00  0.00    -0.229 OA 
HETATM   14  O   UNL     1     -11.378   6.817  67.027  1.00  0.00    -0.337 OA 
HETATM   15  N   UNL     1     -10.698   6.633  68.031  1.00  0.00    -0.243 N  
ENDBRANCH  11  12
BRANCH  11  16
HETATM   16  C   UNL     1      -8.148   7.570  70.043  1.00  0.00    -0.127 C  
BRANCH  16  17
HETATM   17  O   UNL     1      -7.374   8.144  68.991  1.00  0.00    -0.079 OA 
HETATM   18  N   UNL     1      -6.797   7.144  68.152  1.00  0.00    -0.071 N  
HETATM   19  O   UNL     1      -6.206   7.621  67.186  1.00  0.00    -0.049 OA 
HETATM   20  O   UNL     1      -6.940   5.974  68.497  1.00  0.00    -0.070 OA 
ENDBRANCH  16  17
ENDBRANCH  11  16
ENDBRANCH   6  11
ENDBRANCH   5   6
ENDBRANCH   4   5
TORSDOF 7
ENDMDL
MODEL      356
REMARK 921   NORMALIZED FREE ENERGY PREDICTED BY IDOCK:   -2.21 KCAL/MOL
REMARK 922        TOTAL FREE ENERGY PREDICTED BY IDOCK:   -4.05 KCAL/MOL
REMARK 923 INTER-LIGAND FREE ENERGY PREDICTED BY IDOCK:   -4.10 KCAL/MOL
REMARK 924 INTRA-LIGAND FREE ENERGY PREDICTED BY IDOCK:    0.04 KCAL/MOL
REMARK 927      BINDING AFFINITY PREDICTED BY RF-SCORE:    0.00 PKD
ROOT
HETATM    1  O   UNL     1     -12.688  12.863  66.369  1.00  0.00    -0.195 OA 
HETATM    2  N   UNL     1     -11.606  12.411  66.735  1.00  0.00    -0.371 N  
HETATM    3  O   UNL     1     -10.593  12.993  67.127  1.00  0.00    -0.244 OA 
HETATM    4  O   UNL     1     -11.558  10.993  66.688  1.00  0.00    -0.263 OA 
ENDROOT
BRANCH   4   5
HETATM    5  C   UNL     1     -10.289  10.475  67.088  1.00  0.00    -0.235 C  
BRANCH   5   6
HETATM    6  C   UNL     1     -10.489   9.519  68.292  1.00  0.00    -0.223 C  
BRANCH   6   7
HETATM    7  O   UNL     1      -9.803   8.263  68.157  1.00  0.00    -0.161 OA 
HETATM    8  O   UNL     1     -11.217   7.434  69.719  1.00  0.00    -0.202 OA 
HETATM    9  N   UNL     1     -10.286   7.195  68.952  1.00  0.00    -0.191 N  
HETATM   10  O   UNL     1      -9.711   6.134  68.725  1.00  0.00    -0.126 OA 
ENDBRANCH   6   7
BRANCH   6  11
HETATM   11  C   UNL     1     -10.241  10.184  69.674  1.00  0.00    -0.242 C  
BRANCH  11  12
HETATM   12  O   UNL     1      -8.845  10.087  69.978  1.00  0.00    -0.192 OA 
HETATM   13  O   UNL     1      -9.485   9.150  71.928  1.00  0.00    -0.332 OA 
HETATM   14  O   UNL     1      -7.452   8.783  71.080  1.00  0.00    -0.082 OA 
HETATM   15  N   UNL     1      -8.582   9.262  71.100  1.00  0.00    -0.119 N  
ENDBRANCH  11  12
BRANCH  11  16
HETATM   16  C   UNL     1     -10.721  11.650  69.738  1.00  0.00     0.298 C  
BRANCH  16  17
HETATM   17  O   UNL     1     -11.821  11.797  70.634  1.00  0.00    -0.298 OA 
HETATM   18  N   UNL     1     -12.243  13.157  70.735  1.00  0.00    -0.348 N  
HETATM   19  O   UNL     1     -13.249  13.289  71.428  1.00  0.00    -0.310 OA 
HETATM   20  O   UNL     1     -11.563  13.998  70.154  1.00  0.00    -0.262 OA 
ENDBRANCH  16  17
ENDBRANCH  11  16
ENDBRANCH   6  11
ENDBRANCH   5   6
ENDBRANCH   4   5
TORSDOF 7
ENDMDL
MODEL      357
REMARK 921   NORMALIZED FREE ENERGY PREDICTED BY IDOCK:   -2.18 KCAL/MOL
REMARK 922        TOTAL FREE ENERGY PREDICTED BY IDOCK:   -4.01 KCAL/MOL
REMARK 923 INTER-LIGAND FREE ENERGY PREDICTED BY IDOCK:   -4.20 KCAL/MOL
REMARK 924 INTRA-LIGAND FREE ENERGY PREDICTED BY IDOCK:    0.19 KCAL/MOL
REMARK 927      BINDING AFFINITY PREDICTED BY RF-SCORE:    0.00 PKD
ROOT
HETATM    1  O   UNL     1     -11.486  10.387  70.789  1.00  0.00    -0.328 OA 
HETATM    2  N   UNL     1     -11.518  10.606  69.580  1.00  0.00    -0.268 N  
HETATM    3  O   UNL     1     -12.414  11.083  68.882  1.00  0.00    -0.460 OA 
HETATM    4  O   UNL     1     -10.312  10.242  68.924  1.00  0.00    -0.182 OA 
ENDROOT
BRANCH   4   5
HETATM    5  C   UNL     1     -10.365  10.472  67.516  1.00  0.00    -0.223 C  
BRANCH   5   6
HETATM    6  C   UNL     1     -10.232   9.117  66.776  1.00  0.00    -0.261 C  
BRANCH   6   7
HETATM    7  O   UNL     1      -9.638   9.223  65.471  1.00  0.00    -0.269 OA 
HETATM    8  O   UNL     1      -8.202  10.733  66.355  1.00  0.00    -0.143 OA 
HETATM    9  N   UNL     1      -8.534  10.103  65.353  1.00  0.00    -0.149 N  
HETATM   10  O   UNL     1      -8.025  10.082  64.237  1.00  0.00    -0.143 OA 
ENDBRANCH   6   7
BRANCH   6  11
HETATM   11  C   UNL     1      -9.587   7.991  67.630  1.00  0.00    -0.151 C  
BRANCH  11  12
HETATM   12  O   UNL     1     -10.629   7.135  68.111  1.00  0.00    -0.201 OA 
HETATM   13  O   UNL     1      -9.547   7.173  70.090  1.00  0.00    -0.168 OA 
HETATM   14  O   UNL     1     -11.727   6.706  69.973  1.00  0.00    -0.383 OA 
HETATM   15  N   UNL     1     -10.624   7.000  69.522  1.00  0.00    -0.227 N  
ENDBRANCH  11  12
BRANCH  11  16
HETATM   16  C   UNL     1      -8.517   7.185  66.864  1.00  0.00    -0.123 C  
BRANCH  16  17
HETATM   17  O   UNL     1      -8.972   5.865  66.572  1.00  0.00    -0.123 OA 
HETATM   18  N   UNL     1      -8.608   5.460  65.253  1.00  0.00    -0.149 N  
HETATM   19  O   UNL     1      -8.908   4.292  65.018  1.00  0.00    -0.125 OA 
HETATM   20  O   UNL     1      -8.077   6.303  64.535  1.00  0.00    -0.124 OA 
ENDBRANCH  16  17
ENDBRANCH  11  16
ENDBRANCH   6  11
ENDBRANCH   5   6
ENDBRANCH   4   5
TORSDOF 7
ENDMDL
MODEL      358
REMARK 921   NORMALIZED FREE ENERGY PREDICTED BY IDOCK:   -2.18 KCAL/MOL
REMARK 922        TOTAL FREE ENERGY PREDICTED BY IDOCK:   -4.00 KCAL/MOL
REMARK 923 INTER-LIGAND FREE ENERGY PREDICTED BY IDOCK:   -4.79 KCAL/MOL
REMARK 924 INTRA-LIGAND FREE ENERGY PREDICTED BY IDOCK:    0.79 KCAL/MOL
REMARK 927      BINDING AFFINITY PREDICTED BY RF-SCORE:    0.00 PKD
ROOT
HETATM    1  O   UNL     1      -7.622   7.353  65.888  1.00  0.00    -0.083 OA 
HETATM    2  N   UNL     1      -7.928   8.452  65.433  1.00  0.00    -0.114 N  
HETATM    3  O   UNL     1      -7.458   9.077  64.481  1.00  0.00    -0.100 OA 
HETATM    4  O   UNL     1      -8.999   9.059  66.139  1.00  0.00    -0.154 OA 
ENDROOT
BRANCH   4   5
HETATM    5  C   UNL     1      -9.333  10.348  65.623  1.00  0.00    -0.198 C  
BRANCH   5   6
HETATM    6  C   UNL     1     -10.041  11.170  66.731  1.00  0.00    -0.218 C  
BRANCH   6   7
HETATM    7  O   UNL     1      -9.211  11.443  67.872  1.00  0.00    -0.155 OA 
HETATM    8  O   UNL     1      -7.459  11.572  66.444  1.00  0.00    -0.077 OA 
HETATM    9  N   UNL     1      -7.837  11.669  67.610  1.00  0.00    -0.127 N  
HETATM   10  O   UNL     1      -7.206  11.978  68.615  1.00  0.00    -0.099 OA 
ENDBRANCH   6   7
BRANCH   6  11
HETATM   11  C   UNL     1     -10.767  12.441  66.208  1.00  0.00    -0.256 C  
BRANCH  11  12
HETATM   12  O   UNL     1     -12.116  12.090  65.883  1.00  0.00    -0.546 OA 
HETATM   13  O   UNL     1     -11.906  13.500  64.135  1.00  0.00    -0.409 OA 
HETATM   14  O   UNL     1     -13.410  11.851  64.116  1.00  0.00    -0.652 OA 
HETATM   15  N   UNL     1     -12.502  12.525  64.590  1.00  0.00    -0.485 N  
ENDBRANCH  11  12
BRANCH  11  16
HETATM   16  C   UNL     1     -10.725  13.617  67.207  1.00  0.00    -0.279 C  
BRANCH  16  17
HETATM   17  O   UNL     1     -10.004  14.725  66.673  1.00  0.00    -0.250 OA 
HETATM   18  N   UNL     1      -9.484  15.564  67.705  1.00  0.00    -0.208 N  
HETATM   19  O   UNL     1      -8.779  16.470  67.266  1.00  0.00    -0.182 OA 
HETATM   20  O   UNL     1      -9.809  15.298  68.859  1.00  0.00    -0.202 OA 
ENDBRANCH  16  17
ENDBRANCH  11  16
ENDBRANCH   6  11
ENDBRANCH   5   6
ENDBRANCH   4   5
TORSDOF 7
ENDMDL
MODEL      359
REMARK 921   NORMALIZED FREE ENERGY PREDICTED BY IDOCK:   -2.17 KCAL/MOL
REMARK 922        TOTAL FREE ENERGY PREDICTED BY IDOCK:   -4.00 KCAL/MOL
REMARK 923 INTER-LIGAND FREE ENERGY PREDICTED BY IDOCK:   -4.93 KCAL/MOL
REMARK 924 INTRA-LIGAND FREE ENERGY PREDICTED BY IDOCK:    0.94 KCAL/MOL
REMARK 927      BINDING AFFINITY PREDICTED BY RF-SCORE:    0.00 PKD
ROOT
HETATM    1  O   UNL     1      -7.747   8.595  65.770  1.00  0.00    -0.087 OA 
HETATM    2  N   UNL     1      -8.469   8.450  66.753  1.00  0.00    -0.112 N  
HETATM    3  O   UNL     1      -8.214   7.981  67.864  1.00  0.00    -0.126 OA 
HETATM    4  O   UNL     1      -9.794   8.910  66.535  1.00  0.00    -0.230 OA 
ENDROOT
BRANCH   4   5
HETATM    5  C   UNL     1     -10.635   8.714  67.671  1.00  0.00    -0.203 C  
BRANCH   5   6
HETATM    6  C   UNL     1     -10.722  10.038  68.473  1.00  0.00    -0.231 C  
BRANCH   6   7
HETATM    7  O   UNL     1     -11.787  10.905  68.049  1.00  0.00    -0.585 OA 
HETATM    8  O   UNL     1     -10.198  12.391  67.423  1.00  0.00    -0.206 OA 
HETATM    9  N   UNL     1     -11.400  12.141  67.474  1.00  0.00    -0.303 N  
HETATM   10  O   UNL     1     -12.353  12.792  67.058  1.00  0.00    -0.387 OA 
ENDBRANCH   6   7
BRANCH   6  11
HETATM   11  C   UNL     1     -10.693   9.845  70.015  1.00  0.00    -0.292 C  
BRANCH  11  12
HETATM   12  O   UNL     1     -11.758  10.613  70.586  1.00  0.00    -0.320 OA 
HETATM   13  O   UNL     1     -12.740   8.635  71.045  1.00  0.00    -0.179 OA 
HETATM   14  O   UNL     1     -13.248  10.474  72.203  1.00  0.00    -0.458 OA 
HETATM   15  N   UNL     1     -12.658   9.824  71.346  1.00  0.00    -0.357 N  
ENDBRANCH  11  12
BRANCH  11  16
HETATM   16  C   UNL     1     -10.784   8.366  70.443  1.00  0.00    -0.231 C  
BRANCH  16  17
HETATM   17  O   UNL     1      -9.558   7.915  71.016  1.00  0.00    -0.159 OA 
HETATM   18  N   UNL     1      -9.321   6.535  70.740  1.00  0.00    -0.158 N  
HETATM   19  O   UNL     1      -8.225   6.154  71.144  1.00  0.00    -0.119 OA 
HETATM   20  O   UNL     1     -10.217   5.916  70.171  1.00  0.00    -0.190 OA 
ENDBRANCH  16  17
ENDBRANCH  11  16
ENDBRANCH   6  11
ENDBRANCH   5   6
ENDBRANCH   4   5
TORSDOF 7
ENDMDL
MODEL      360
REMARK 921   NORMALIZED FREE ENERGY PREDICTED BY IDOCK:   -2.15 KCAL/MOL
REMARK 922        TOTAL FREE ENERGY PREDICTED BY IDOCK:   -3.97 KCAL/MOL
REMARK 923 INTER-LIGAND FREE ENERGY PREDICTED BY IDOCK:   -3.34 KCAL/MOL
REMARK 924 INTRA-LIGAND FREE ENERGY PREDICTED BY IDOCK:   -0.64 KCAL/MOL
REMARK 927      BINDING AFFINITY PREDICTED BY RF-SCORE:    0.00 PKD
ROOT
HETATM    1  O   UNL     1     -12.283  12.068  70.832  1.00  0.00    -0.352 OA 
HETATM    2  N   UNL     1     -11.860  11.172  70.107  1.00  0.00    -0.336 N  
HETATM    3  O   UNL     1     -12.066  10.952  68.912  1.00  0.00    -0.463 OA 
HETATM    4  O   UNL     1     -10.999  10.273  70.790  1.00  0.00    -0.306 OA 
ENDROOT
BRANCH   4   5
HETATM    5  C   UNL     1     -10.532   9.217  69.950  1.00  0.00    -0.227 C  
BRANCH   5   6
HETATM    6  C   UNL     1      -9.141   8.749  70.449  1.00  0.00    -0.176 C  
BRANCH   6   7
HETATM    7  O   UNL     1      -8.256   9.827  70.796  1.00  0.00    -0.251 OA 
HETATM    8  O   UNL     1      -7.352   9.620  68.730  1.00  0.00    -0.072 OA 
HETATM    9  N   UNL     1      -7.344  10.239  69.792  1.00  0.00    -0.151 N  
HETATM   10  O   UNL     1      -6.679  11.216  70.125  1.00  0.00    -0.165 OA 
ENDBRANCH   6   7
BRANCH   6  11
HETATM   11  C   UNL     1      -9.201   7.654  71.549  1.00  0.00    -0.135 C  
BRANCH  11  12
HETATM   12  O   UNL     1      -8.646   8.193  72.754  1.00  0.00    -0.170 OA 
HETATM   13  O   UNL     1      -6.911   6.794  72.408  1.00  0.00    -0.066 OA 
HETATM   14  O   UNL     1      -6.682   8.636  73.648  1.00  0.00    -0.252 OA 
HETATM   15  N   UNL     1      -7.288   7.836  72.943  1.00  0.00    -0.082 N  
ENDBRANCH  11  12
BRANCH  11  16
HETATM   16  C   UNL     1     -10.626   7.112  71.789  1.00  0.00    -0.206 C  
BRANCH  16  17
HETATM   17  O   UNL     1     -10.767   5.785  71.287  1.00  0.00    -0.246 OA 
HETATM   18  N   UNL     1     -10.885   4.830  72.341  1.00  0.00    -0.151 N  
HETATM   19  O   UNL     1     -11.104   3.693  71.927  1.00  0.00     0.713 OA 
HETATM   20  O   UNL     1     -10.740   5.242  73.489  1.00  0.00    -0.243 OA 
ENDBRANCH  16  17
ENDBRANCH  11  16
ENDBRANCH   6  11
ENDBRANCH   5   6
ENDBRANCH   4   5
TORSDOF 7
ENDMDL
MODEL      361
REMARK 921   NORMALIZED FREE ENERGY PREDICTED BY IDOCK:   -2.12 KCAL/MOL
REMARK 922        TOTAL FREE ENERGY PREDICTED BY IDOCK:   -3.93 KCAL/MOL
REMARK 923 INTER-LIGAND FREE ENERGY PREDICTED BY IDOCK:   -4.82 KCAL/MOL
REMARK 924 INTRA-LIGAND FREE ENERGY PREDICTED BY IDOCK:    0.89 KCAL/MOL
REMARK 927      BINDING AFFINITY PREDICTED BY RF-SCORE:    0.00 PKD
ROOT
HETATM    1  O   UNL     1      -9.681  10.684  62.815  1.00  0.00    -0.304 OA 
HETATM    2  N   UNL     1      -9.532  10.037  63.849  1.00  0.00    -0.267 N  
HETATM    3  O   UNL     1      -8.828   9.052  64.077  1.00  0.00    -0.152 OA 
HETATM    4  O   UNL     1     -10.307  10.540  64.927  1.00  0.00    -0.328 OA 
ENDROOT
BRANCH   4   5
HETATM    5  C   UNL     1     -10.152   9.769  66.119  1.00  0.00    -0.245 C  
BRANCH   5   6
HETATM    6  C   UNL     1     -10.833  10.512  67.296  1.00  0.00    -0.279 C  
BRANCH   6   7
HETATM    7  O   UNL     1     -11.022   9.698  68.466  1.00  0.00    -0.193 OA 
HETATM    8  O   UNL     1      -9.361   8.369  67.690  1.00  0.00    -0.136 OA 
HETATM    9  N   UNL     1     -10.163   8.579  68.598  1.00  0.00    -0.195 N  
HETATM   10  O   UNL     1     -10.321   7.980  69.657  1.00  0.00    -0.211 OA 
ENDBRANCH   6   7
BRANCH   6  11
HETATM   11  C   UNL     1     -10.192  11.888  67.629  1.00  0.00    -0.201 C  
BRANCH  11  12
HETATM   12  O   UNL     1      -9.006  12.037  66.841  1.00  0.00    -0.187 OA 
HETATM   13  O   UNL     1      -7.991  12.665  68.754  1.00  0.00    -0.059 OA 
HETATM   14  O   UNL     1      -6.820  11.841  67.042  1.00  0.00    -0.137 OA 
HETATM   15  N   UNL     1      -7.838  12.194  67.629  1.00  0.00    -0.141 N  
ENDBRANCH  11  12
BRANCH  11  16
HETATM   16  C   UNL     1     -11.155  13.074  67.410  1.00  0.00    -0.272 C  
BRANCH  16  17
HETATM   17  O   UNL     1     -10.829  13.795  66.223  1.00  0.00    -0.282 OA 
HETATM   18  N   UNL     1     -11.785  13.568  65.188  1.00  0.00    -0.311 N  
HETATM   19  O   UNL     1     -11.573  14.254  64.190  1.00  0.00    -0.311 OA 
HETATM   20  O   UNL     1     -12.658  12.732  65.405  1.00  0.00    -0.607 OA 
ENDBRANCH  16  17
ENDBRANCH  11  16
ENDBRANCH   6  11
ENDBRANCH   5   6
ENDBRANCH   4   5
TORSDOF 7
ENDMDL
MODEL      362
REMARK 921   NORMALIZED FREE ENERGY PREDICTED BY IDOCK:   -2.11 KCAL/MOL
REMARK 922        TOTAL FREE ENERGY PREDICTED BY IDOCK:   -3.91 KCAL/MOL
REMARK 923 INTER-LIGAND FREE ENERGY PREDICTED BY IDOCK:   -4.85 KCAL/MOL
REMARK 924 INTRA-LIGAND FREE ENERGY PREDICTED BY IDOCK:    0.94 KCAL/MOL
REMARK 927      BINDING AFFINITY PREDICTED BY RF-SCORE:    0.00 PKD
ROOT
HETATM    1  O   UNL     1      -6.143  19.725  69.588  1.00  0.00    -0.279 OA 
HETATM    2  N   UNL     1      -7.213  19.571  69.007  1.00  0.00    -0.359 N  
HETATM    3  O   UNL     1      -7.809  20.315  68.226  1.00  0.00    -0.194 OA 
HETATM    4  O   UNL     1      -7.825  18.325  69.305  1.00  0.00    -0.067 OA 
ENDROOT
BRANCH   4   5
HETATM    5  C   UNL     1      -9.083  18.162  68.648  1.00  0.00    -0.277 C  
BRANCH   5   6
HETATM    6  C   UNL     1      -8.988  16.971  67.660  1.00  0.00    -0.221 C  
BRANCH   6   7
HETATM    7  O   UNL     1      -7.769  16.944  66.898  1.00  0.00    -0.175 OA 
HETATM    8  O   UNL     1      -8.600  18.671  65.692  1.00  0.00    -0.324 OA 
HETATM    9  N   UNL     1      -7.647  17.917  65.875  1.00  0.00    -0.203 N  
HETATM   10  O   UNL     1      -6.551  17.891  65.323  1.00  0.00    -0.291 OA 
ENDBRANCH   6   7
BRANCH   6  11
HETATM   11  C   UNL     1      -9.318  15.593  68.298  1.00  0.00    -0.192 C  
BRANCH  11  12
HETATM   12  O   UNL     1     -10.009  15.820  69.531  1.00  0.00    -0.253 OA 
HETATM   13  O   UNL     1     -11.845  16.173  68.268  1.00  0.00    -0.209 OA 
HETATM   14  O   UNL     1     -12.014  15.556  70.407  1.00  0.00    -0.313 OA 
HETATM   15  N   UNL     1     -11.418  15.850  69.376  1.00  0.00    -0.340 N  
ENDBRANCH  11  12
BRANCH  11  16
HETATM   16  C   UNL     1     -10.136  14.674  67.366  1.00  0.00    -0.232 C  
BRANCH  16  17
HETATM   17  O   UNL     1      -9.284  13.824  66.599  1.00  0.00    -0.256 OA 
HETATM   18  N   UNL     1      -9.889  12.555  66.352  1.00  0.00    -0.248 N  
HETATM   19  O   UNL     1      -9.211  11.845  65.613  1.00  0.00    -0.173 OA 
HETATM   20  O   UNL     1     -10.963  12.329  66.903  1.00  0.00    -0.245 OA 
ENDBRANCH  16  17
ENDBRANCH  11  16
ENDBRANCH   6  11
ENDBRANCH   5   6
ENDBRANCH   4   5
TORSDOF 7
ENDMDL
MODEL      363
REMARK 921   NORMALIZED FREE ENERGY PREDICTED BY IDOCK:   -2.06 KCAL/MOL
REMARK 922        TOTAL FREE ENERGY PREDICTED BY IDOCK:   -3.84 KCAL/MOL
REMARK 923 INTER-LIGAND FREE ENERGY PREDICTED BY IDOCK:   -4.17 KCAL/MOL
REMARK 924 INTRA-LIGAND FREE ENERGY PREDICTED BY IDOCK:    0.33 KCAL/MOL
REMARK 927      BINDING AFFINITY PREDICTED BY RF-SCORE:    0.00 PKD
ROOT
HETATM    1  O   UNL     1     -13.230   6.658  71.929  1.00  0.00    -0.258 OA 
HETATM    2  N   UNL     1     -12.249   6.792  71.201  1.00  0.00    -0.375 N  
HETATM    3  O   UNL     1     -12.087   6.481  70.020  1.00  0.00    -0.282 OA 
HETATM    4  O   UNL     1     -11.155   7.411  71.862  1.00  0.00    -0.233 OA 
ENDROOT
BRANCH   4   5
HETATM    5  C   UNL     1     -10.009   7.538  71.020  1.00  0.00    -0.186 C  
BRANCH   5   6
HETATM    6  C   UNL     1      -9.947   8.984  70.465  1.00  0.00    -0.215 C  
BRANCH   6   7
HETATM    7  O   UNL     1      -8.829   9.746  70.953  1.00  0.00    -0.134 OA 
HETATM    8  O   UNL     1      -7.566   7.888  70.675  1.00  0.00    -0.074 OA 
HETATM    9  N   UNL     1      -7.585   9.072  71.006  1.00  0.00    -0.118 N  
HETATM   10  O   UNL     1      -6.661   9.803  71.350  1.00  0.00    -0.322 OA 
ENDBRANCH   6   7
BRANCH   6  11
HETATM   11  C   UNL     1     -10.097   9.075  68.921  1.00  0.00    -0.196 C  
BRANCH  11  12
HETATM   12  O   UNL     1      -9.533  10.317  68.485  1.00  0.00    -0.148 OA 
HETATM   13  O   UNL     1     -11.577  10.783  67.652  1.00  0.00    -0.523 OA 
HETATM   14  O   UNL     1     -10.133  12.411  68.154  1.00  0.00    -0.211 OA 
HETATM   15  N   UNL     1     -10.513  11.248  68.061  1.00  0.00    -0.181 N  
ENDBRANCH  11  12
BRANCH  11  16
HETATM   16  C   UNL     1      -9.457   7.884  68.179  1.00  0.00    -0.147 C  
BRANCH  16  17
HETATM   17  O   UNL     1     -10.284   7.435  67.107  1.00  0.00    -0.219 OA 
HETATM   18  N   UNL     1     -10.395   6.012  67.084  1.00  0.00    -0.199 N  
HETATM   19  O   UNL     1     -11.180   5.613  66.226  1.00  0.00    -0.024 OA 
HETATM   20  O   UNL     1      -9.703   5.384  67.881  1.00  0.00    -0.124 OA 
ENDBRANCH  16  17
ENDBRANCH  11  16
ENDBRANCH   6  11
ENDBRANCH   5   6
ENDBRANCH   4   5
TORSDOF 7
ENDMDL
MODEL      364
REMARK 921   NORMALIZED FREE ENERGY PREDICTED BY IDOCK:   -2.04 KCAL/MOL
REMARK 922        TOTAL FREE ENERGY PREDICTED BY IDOCK:   -3.81 KCAL/MOL
REMARK 923 INTER-LIGAND FREE ENERGY PREDICTED BY IDOCK:   -4.05 KCAL/MOL
REMARK 924 INTRA-LIGAND FREE ENERGY PREDICTED BY IDOCK:    0.24 KCAL/MOL
REMARK 927      BINDING AFFINITY PREDICTED BY RF-SCORE:    0.00 PKD
ROOT
HETATM    1  O   UNL     1     -11.949  12.075  70.194  1.00  0.00    -0.333 OA 
HETATM    2  N   UNL     1     -11.612  11.515  69.155  1.00  0.00    -0.286 N  
HETATM    3  O   UNL     1     -12.187  11.442  68.068  1.00  0.00    -0.607 OA 
HETATM    4  O   UNL     1     -10.354  10.865  69.264  1.00  0.00    -0.220 OA 
ENDROOT
BRANCH   4   5
HETATM    5  C   UNL     1      -9.980  10.192  68.062  1.00  0.00    -0.148 C  
BRANCH   5   6
HETATM    6  C   UNL     1      -9.480   8.767  68.414  1.00  0.00    -0.141 C  
BRANCH   6   7
HETATM    7  O   UNL     1      -8.161   8.476  67.920  1.00  0.00    -0.117 OA 
HETATM    8  O   UNL     1      -7.445  10.318  69.024  1.00  0.00    -0.081 OA 
HETATM    9  N   UNL     1      -7.129   9.358  68.324  1.00  0.00    -0.075 N  
HETATM   10  O   UNL     1      -6.020   9.002  67.937  1.00  0.00    -0.048 OA 
ENDBRANCH   6   7
BRANCH   6  11
HETATM   11  C   UNL     1      -9.647   8.392  69.912  1.00  0.00    -0.171 C  
BRANCH  11  12
HETATM   12  O   UNL     1     -11.008   8.006  70.132  1.00  0.00    -0.249 OA 
HETATM   13  O   UNL     1     -10.878   9.184  72.051  1.00  0.00    -0.352 OA 
HETATM   14  O   UNL     1     -12.843   8.783  71.072  1.00  0.00    -0.167 OA 
HETATM   15  N   UNL     1     -11.623   8.731  71.184  1.00  0.00    -0.279 N  
ENDBRANCH  11  12
BRANCH  11  16
HETATM   16  C   UNL     1      -8.676   7.284  70.372  1.00  0.00    -0.146 C  
BRANCH  16  17
HETATM   17  O   UNL     1      -9.306   6.004  70.362  1.00  0.00    -0.157 OA 
HETATM   18  N   UNL     1      -9.536   5.517  71.684  1.00  0.00    -0.150 N  
HETATM   19  O   UNL     1     -10.164   4.461  71.695  1.00  0.00    -0.181 OA 
HETATM   20  O   UNL     1      -9.079   6.179  72.611  1.00  0.00    -0.141 OA 
ENDBRANCH  16  17
ENDBRANCH  11  16
ENDBRANCH   6  11
ENDBRANCH   5   6
ENDBRANCH   4   5
TORSDOF 7
ENDMDL
MODEL      365
REMARK 921   NORMALIZED FREE ENERGY PREDICTED BY IDOCK:   -2.01 KCAL/MOL
REMARK 922        TOTAL FREE ENERGY PREDICTED BY IDOCK:   -3.77 KCAL/MOL
REMARK 923 INTER-LIGAND FREE ENERGY PREDICTED BY IDOCK:   -4.25 KCAL/MOL
REMARK 924 INTRA-LIGAND FREE ENERGY PREDICTED BY IDOCK:    0.48 KCAL/MOL
REMARK 927      BINDING AFFINITY PREDICTED BY RF-SCORE:    0.00 PKD
ROOT
HETATM    1  O   UNL     1      -7.372   8.557  65.333  1.00  0.00    -0.081 OA 
HETATM    2  N   UNL     1      -8.408   8.672  65.982  1.00  0.00    -0.125 N  
HETATM    3  O   UNL     1      -8.834   8.004  66.925  1.00  0.00    -0.125 OA 
HETATM    4  O   UNL     1      -9.210   9.761  65.547  1.00  0.00    -0.181 OA 
ENDROOT
BRANCH   4   5
HETATM    5  C   UNL     1     -10.427   9.873  66.286  1.00  0.00    -0.101 C  
BRANCH   5   6
HETATM    6  C   UNL     1     -10.518  11.294  66.899  1.00  0.00    -0.245 C  
BRANCH   6   7
HETATM    7  O   UNL     1     -10.815  12.322  65.939  1.00  0.00    -0.255 OA 
HETATM    8  O   UNL     1      -8.835  13.273  66.489  1.00  0.00    -0.130 OA 
HETATM    9  N   UNL     1      -9.834  13.331  65.774  1.00  0.00    -0.239 N  
HETATM   10  O   UNL     1     -10.113  14.126  64.882  1.00  0.00    -0.385 OA 
ENDBRANCH   6   7
BRANCH   6  11
HETATM   11  C   UNL     1     -11.422  11.382  68.159  1.00  0.00    -0.305 C  
BRANCH  11  12
HETATM   12  O   UNL     1     -11.523  10.074  68.735  1.00  0.00    -0.122 OA 
HETATM   13  O   UNL     1      -9.437  10.420  69.522  1.00  0.00    -0.205 OA 
HETATM   14  O   UNL     1     -10.812   8.954  70.494  1.00  0.00    -0.220 OA 
HETATM   15  N   UNL     1     -10.491   9.802  69.668  1.00  0.00    -0.225 N  
ENDBRANCH  11  12
BRANCH  11  16
HETATM   16  C   UNL     1     -10.918  12.406  69.197  1.00  0.00    -0.152 C  
BRANCH  16  17
HETATM   17  O   UNL     1     -11.867  13.452  69.398  1.00  0.00    -0.300 OA 
HETATM   18  N   UNL     1     -12.571  13.298  70.630  1.00  0.00    -0.273 N  
HETATM   19  O   UNL     1     -13.324  14.240  70.865  1.00  0.00    -0.330 OA 
HETATM   20  O   UNL     1     -12.359  12.272  71.271  1.00  0.00    -0.247 OA 
ENDBRANCH  16  17
ENDBRANCH  11  16
ENDBRANCH   6  11
ENDBRANCH   5   6
ENDBRANCH   4   5
TORSDOF 7
ENDMDL
MODEL      366
REMARK 921   NORMALIZED FREE ENERGY PREDICTED BY IDOCK:   -1.98 KCAL/MOL
REMARK 922        TOTAL FREE ENERGY PREDICTED BY IDOCK:   -3.72 KCAL/MOL
REMARK 923 INTER-LIGAND FREE ENERGY PREDICTED BY IDOCK:   -4.43 KCAL/MOL
REMARK 924 INTRA-LIGAND FREE ENERGY PREDICTED BY IDOCK:    0.71 KCAL/MOL
REMARK 927      BINDING AFFINITY PREDICTED BY RF-SCORE:    0.00 PKD
ROOT
HETATM    1  O   UNL     1     -10.524  19.926  68.778  1.00  0.00    -0.367 OA 
HETATM    2  N   UNL     1     -10.150  19.156  67.897  1.00  0.00    -0.363 N  
HETATM    3  O   UNL     1      -9.982  19.348  66.692  1.00  0.00    -0.332 OA 
HETATM    4  O   UNL     1      -9.874  17.853  68.388  1.00  0.00    -0.316 OA 
ENDROOT
BRANCH   4   5
HETATM    5  C   UNL     1      -9.466  16.955  67.355  1.00  0.00    -0.238 C  
BRANCH   5   6
HETATM    6  C   UNL     1      -8.006  16.507  67.620  1.00  0.00    -0.163 C  
BRANCH   6   7
HETATM    7  O   UNL     1      -7.078  17.598  67.745  1.00  0.00    -0.180 OA 
HETATM    8  O   UNL     1      -7.152  17.791  65.490  1.00  0.00    -0.446 OA 
HETATM    9  N   UNL     1      -6.697  18.240  66.540  1.00  0.00    -0.194 N  
HETATM   10  O   UNL     1      -5.973  19.212  66.727  1.00  0.00    -0.163 OA 
ENDBRANCH   6   7
BRANCH   6  11
HETATM   11  C   UNL     1      -7.861  15.472  68.770  1.00  0.00    -0.160 C  
BRANCH  11  12
HETATM   12  O   UNL     1      -9.056  14.685  68.822  1.00  0.00    -0.190 OA 
HETATM   13  O   UNL     1      -8.376  13.791  66.866  1.00  0.00    -0.139 OA 
HETATM   14  O   UNL     1      -9.786  12.699  68.209  1.00  0.00    -0.223 OA 
HETATM   15  N   UNL     1      -9.062  13.631  67.875  1.00  0.00    -0.189 N  
ENDBRANCH  11  12
BRANCH  11  16
HETATM   16  C   UNL     1      -6.613  14.577  68.626  1.00  0.00    -0.087 C  
BRANCH  16  17
HETATM   17  O   UNL     1      -6.157  14.114  69.897  1.00  0.00    -0.121 OA 
HETATM   18  N   UNL     1      -6.153  12.689  69.970  1.00  0.00    -0.139 N  
HETATM   19  O   UNL     1      -5.674  12.271  71.022  1.00  0.00    -0.344 OA 
HETATM   20  O   UNL     1      -6.629  12.078  69.017  1.00  0.00    -0.079 OA 
ENDBRANCH  16  17
ENDBRANCH  11  16
ENDBRANCH   6  11
ENDBRANCH   5   6
ENDBRANCH   4   5
TORSDOF 7
ENDMDL
MODEL      367
REMARK 921   NORMALIZED FREE ENERGY PREDICTED BY IDOCK:   -1.87 KCAL/MOL
REMARK 922        TOTAL FREE ENERGY PREDICTED BY IDOCK:   -3.58 KCAL/MOL
REMARK 923 INTER-LIGAND FREE ENERGY PREDICTED BY IDOCK:   -6.73 KCAL/MOL
REMARK 924 INTRA-LIGAND FREE ENERGY PREDICTED BY IDOCK:    3.15 KCAL/MOL
REMARK 927      BINDING AFFINITY PREDICTED BY RF-SCORE:    0.00 PKD
ROOT
HETATM    1  O   UNL     1     -10.770  15.941  70.039  1.00  0.00    -0.298 OA 
HETATM    2  N   UNL     1     -11.161  15.822  68.881  1.00  0.00    -0.309 N  
HETATM    3  O   UNL     1     -11.253  16.660  67.982  1.00  0.00    -0.306 OA 
HETATM    4  O   UNL     1     -11.554  14.494  68.568  1.00  0.00    -0.282 OA 
ENDROOT
BRANCH   4   5
HETATM    5  C   UNL     1     -12.033  14.366  67.229  1.00  0.00    -0.377 C  
BRANCH   5   6
HETATM    6  C   UNL     1     -11.900  12.888  66.782  1.00  0.00    -0.385 C  
BRANCH   6   7
HETATM    7  O   UNL     1     -12.488  12.614  65.499  1.00  0.00    -0.622 OA 
HETATM    8  O   UNL     1     -11.325  14.382  64.696  1.00  0.00    -0.376 OA 
HETATM    9  N   UNL     1     -12.096  13.462  64.434  1.00  0.00    -0.406 N  
HETATM   10  O   UNL     1     -12.569  13.119  63.355  1.00  0.00    -0.722 OA 
ENDBRANCH   6   7
BRANCH   6  11
HETATM   11  C   UNL     1     -10.459  12.318  66.907  1.00  0.00    -0.217 C  
BRANCH  11  12
HETATM   12  O   UNL     1     -10.208  12.024  68.285  1.00  0.00    -0.195 OA 
HETATM   13  O   UNL     1     -12.275  11.121  68.317  1.00  0.00    -0.613 OA 
HETATM   14  O   UNL     1     -10.722  10.509  69.801  1.00  0.00    -0.258 OA 
HETATM   15  N   UNL     1     -11.162  11.135  68.841  1.00  0.00    -0.231 N  
ENDBRANCH  11  12
BRANCH  11  16
HETATM   16  C   UNL     1     -10.219  11.077  66.022  1.00  0.00    -0.252 C  
BRANCH  16  17
HETATM   17  O   UNL     1     -10.866   9.924  66.559  1.00  0.00    -0.061 OA 
HETATM   18  N   UNL     1     -10.074   8.748  66.393  1.00  0.00    -0.283 N  
HETATM   19  O   UNL     1     -10.572   7.763  66.933  1.00  0.00    -0.343 OA 
HETATM   20  O   UNL     1      -9.041   8.857  65.737  1.00  0.00    -0.197 OA 
ENDBRANCH  16  17
ENDBRANCH  11  16
ENDBRANCH   6  11
ENDBRANCH   5   6
ENDBRANCH   4   5
TORSDOF 7
ENDMDL
MODEL      368
REMARK 921   NORMALIZED FREE ENERGY PREDICTED BY IDOCK:   -1.83 KCAL/MOL
REMARK 922        TOTAL FREE ENERGY PREDICTED BY IDOCK:   -3.51 KCAL/MOL
REMARK 923 INTER-LIGAND FREE ENERGY PREDICTED BY IDOCK:   -4.23 KCAL/MOL
REMARK 924 INTRA-LIGAND FREE ENERGY PREDICTED BY IDOCK:    0.72 KCAL/MOL
REMARK 927      BINDING AFFINITY PREDICTED BY RF-SCORE:    0.00 PKD
ROOT
HETATM    1  O   UNL     1     -13.242   7.316  71.427  1.00  0.00    -0.380 OA 
HETATM    2  N   UNL     1     -12.149   7.199  70.878  1.00  0.00    -0.340 N  
HETATM    3  O   UNL     1     -11.725   6.315  70.132  1.00  0.00    -0.398 OA 
HETATM    4  O   UNL     1     -11.269   8.274  71.172  1.00  0.00    -0.247 OA 
ENDROOT
BRANCH   4   5
HETATM    5  C   UNL     1      -9.991   8.119  70.554  1.00  0.00    -0.187 C  
BRANCH   5   6
HETATM    6  C   UNL     1      -9.318   9.510  70.427  1.00  0.00    -0.257 C  
BRANCH   6   7
HETATM    7  O   UNL     1      -7.964   9.545  70.908  1.00  0.00    -0.297 OA 
HETATM    8  O   UNL     1      -7.763   7.401  70.209  1.00  0.00    -0.090 OA 
HETATM    9  N   UNL     1      -7.200   8.366  70.722  1.00  0.00    -0.050 N  
HETATM   10  O   UNL     1      -6.032   8.495  71.077  1.00  0.00    -0.033 OA 
ENDBRANCH   6   7
BRANCH   6  11
HETATM   11  C   UNL     1      -9.466  10.157  69.023  1.00  0.00    -0.190 C  
BRANCH  11  12
HETATM   12  O   UNL     1     -10.127  11.418  69.173  1.00  0.00    -0.146 OA 
HETATM   13  O   UNL     1     -11.450  10.761  67.468  1.00  0.00    -0.475 OA 
HETATM   14  O   UNL     1     -12.130  12.304  68.932  1.00  0.00    -0.265 OA 
HETATM   15  N   UNL     1     -11.346  11.489  68.454  1.00  0.00    -0.252 N  
ENDBRANCH  11  12
BRANCH  11  16
HETATM   16  C   UNL     1      -8.119  10.322  68.286  1.00  0.00    -0.107 C  
BRANCH  16  17
HETATM   17  O   UNL     1      -8.219   9.907  66.925  1.00  0.00    -0.119 OA 
HETATM   18  N   UNL     1      -7.221  10.522  66.111  1.00  0.00    -0.130 N  
HETATM   19  O   UNL     1      -7.230  10.104  64.955  1.00  0.00    -0.135 OA 
HETATM   20  O   UNL     1      -6.514  11.376  66.640  1.00  0.00    -0.132 OA 
ENDBRANCH  16  17
ENDBRANCH  11  16
ENDBRANCH   6  11
ENDBRANCH   5   6
ENDBRANCH   4   5
TORSDOF 7
ENDMDL
MODEL      369
REMARK 921   NORMALIZED FREE ENERGY PREDICTED BY IDOCK:   -1.80 KCAL/MOL
REMARK 922        TOTAL FREE ENERGY PREDICTED BY IDOCK:   -3.48 KCAL/MOL
REMARK 923 INTER-LIGAND FREE ENERGY PREDICTED BY IDOCK:   -3.94 KCAL/MOL
REMARK 924 INTRA-LIGAND FREE ENERGY PREDICTED BY IDOCK:    0.46 KCAL/MOL
REMARK 927      BINDING AFFINITY PREDICTED BY RF-SCORE:    0.00 PKD
ROOT
HETATM    1  O   UNL     1      -5.280   8.636  66.908  1.00  0.00    -0.034 OA 
HETATM    2  N   UNL     1      -6.438   8.523  66.517  1.00  0.00    -0.058 N  
HETATM    3  O   UNL     1      -6.947   8.831  65.438  1.00  0.00    -0.074 OA 
HETATM    4  O   UNL     1      -7.291   7.936  67.489  1.00  0.00    -0.088 OA 
ENDROOT
BRANCH   4   5
HETATM    5  C   UNL     1      -8.642   7.832  67.039  1.00  0.00    -0.129 C  
BRANCH   5   6
HETATM    6  C   UNL     1      -9.566   8.582  68.033  1.00  0.00    -0.149 C  
BRANCH   6   7
HETATM    7  O   UNL     1      -9.039   8.661  69.369  1.00  0.00    -0.147 OA 
HETATM    8  O   UNL     1      -7.942  10.533  68.719  1.00  0.00    -0.110 OA 
HETATM    9  N   UNL     1      -8.192   9.763  69.645  1.00  0.00    -0.140 N  
HETATM   10  O   UNL     1      -7.848   9.816  70.822  1.00  0.00    -0.304 OA 
ENDBRANCH   6   7
BRANCH   6  11
HETATM   11  C   UNL     1     -10.071   9.956  67.513  1.00  0.00    -0.197 C  
BRANCH  11  12
HETATM   12  O   UNL     1     -10.423   9.814  66.132  1.00  0.00    -0.179 OA 
HETATM   13  O   UNL     1      -9.202  11.678  65.782  1.00  0.00    -0.225 OA 
HETATM   14  O   UNL     1      -9.585  10.221  64.135  1.00  0.00    -0.289 OA 
HETATM   15  N   UNL     1      -9.660  10.652  65.281  1.00  0.00    -0.221 N  
ENDBRANCH  11  12
BRANCH  11  16
HETATM   16  C   UNL     1     -11.253  10.517  68.331  1.00  0.00    -0.279 C  
BRANCH  16  17
HETATM   17  O   UNL     1     -10.988  11.844  68.782  1.00  0.00    -0.213 OA 
HETATM   18  N   UNL     1     -11.632  12.820  67.964  1.00  0.00    -0.320 N  
HETATM   19  O   UNL     1     -11.493  13.963  68.393  1.00  0.00    -0.273 OA 
HETATM   20  O   UNL     1     -12.209  12.414  66.958  1.00  0.00    -0.508 OA 
ENDBRANCH  16  17
ENDBRANCH  11  16
ENDBRANCH   6  11
ENDBRANCH   5   6
ENDBRANCH   4   5
TORSDOF 7
ENDMDL
MODEL      370
REMARK 921   NORMALIZED FREE ENERGY PREDICTED BY IDOCK:   -1.70 KCAL/MOL
REMARK 922        TOTAL FREE ENERGY PREDICTED BY IDOCK:   -3.34 KCAL/MOL
REMARK 923 INTER-LIGAND FREE ENERGY PREDICTED BY IDOCK:   -3.29 KCAL/MOL
REMARK 924 INTRA-LIGAND FREE ENERGY PREDICTED BY IDOCK:   -0.05 KCAL/MOL
REMARK 927      BINDING AFFINITY PREDICTED BY RF-SCORE:    0.00 PKD
ROOT
HETATM    1  O   UNL     1     -11.677  10.814  67.509  1.00  0.00    -0.510 OA 
HETATM    2  N   UNL     1     -10.628  10.242  67.794  1.00  0.00    -0.230 N  
HETATM    3  O   UNL     1      -9.865  10.408  68.747  1.00  0.00    -0.168 OA 
HETATM    4  O   UNL     1     -10.278   9.236  66.855  1.00  0.00    -0.230 OA 
ENDROOT
BRANCH   4   5
HETATM    5  C   UNL     1      -9.044   8.594  67.176  1.00  0.00    -0.133 C  
BRANCH   5   6
HETATM    6  C   UNL     1      -9.338   7.165  67.701  1.00  0.00    -0.127 C  
BRANCH   6   7
HETATM    7  O   UNL     1      -9.090   6.129  66.735  1.00  0.00    -0.125 OA 
HETATM    8  O   UNL     1     -11.229   5.458  67.050  1.00  0.00     0.197 OA 
HETATM    9  N   UNL     1     -10.180   5.275  66.436  1.00  0.00    -0.230 N  
HETATM   10  O   UNL     1      -9.924   4.471  65.545  1.00  0.00    -0.195 OA 
ENDBRANCH   6   7
BRANCH   6  11
HETATM   11  C   UNL     1      -8.696   6.855  69.081  1.00  0.00    -0.135 C  
BRANCH  11  12
HETATM   12  O   UNL     1      -7.329   7.279  69.049  1.00  0.00    -0.086 OA 
HETATM   13  O   UNL     1      -7.127   6.287  71.065  1.00  0.00    -0.066 OA 
HETATM   14  O   UNL     1      -5.349   6.621  69.758  1.00  0.00    -0.014 OA 
HETATM   15  N   UNL     1      -6.538   6.666  70.053  1.00  0.00    -0.047 N  
ENDBRANCH  11  12
BRANCH  11  16
HETATM   16  C   UNL     1      -9.450   7.505  70.261  1.00  0.00    -0.165 C  
BRANCH  16  17
HETATM   17  O   UNL     1     -10.244   6.547  70.958  1.00  0.00    -0.187 OA 
HETATM   18  N   UNL     1     -11.405   7.144  71.536  1.00  0.00    -0.248 N  
HETATM   19  O   UNL     1     -12.150   6.318  72.059  1.00  0.00    -0.337 OA 
HETATM   20  O   UNL     1     -11.504   8.366  71.459  1.00  0.00    -0.255 OA 
ENDBRANCH  16  17
ENDBRANCH  11  16
ENDBRANCH   6  11
ENDBRANCH   5   6
ENDBRANCH   4   5
TORSDOF 7
ENDMDL
MODEL      371
REMARK 921   NORMALIZED FREE ENERGY PREDICTED BY IDOCK:   -1.20 KCAL/MOL
REMARK 922        TOTAL FREE ENERGY PREDICTED BY IDOCK:   -2.64 KCAL/MOL
REMARK 923 INTER-LIGAND FREE ENERGY PREDICTED BY IDOCK:   -3.29 KCAL/MOL
REMARK 924 INTRA-LIGAND FREE ENERGY PREDICTED BY IDOCK:    0.66 KCAL/MOL
REMARK 927      BINDING AFFINITY PREDICTED BY RF-SCORE:    0.00 PKD
ROOT
HETATM    1  O   UNL     1      -6.183  14.223  68.932  1.00  0.00    -0.083 OA 
HETATM    2  N   UNL     1      -6.356  13.043  69.225  1.00  0.00    -0.102 N  
HETATM    3  O   UNL     1      -5.888  12.377  70.150  1.00  0.00    -0.140 OA 
HETATM    4  O   UNL     1      -7.243  12.380  68.337  1.00  0.00    -0.095 OA 
ENDROOT
BRANCH   4   5
HETATM    5  C   UNL     1      -7.418  11.002  68.666  1.00  0.00    -0.112 C  
BRANCH   5   6
HETATM    6  C   UNL     1      -8.911  10.624  68.488  1.00  0.00    -0.156 C  
BRANCH   6   7
HETATM    7  O   UNL     1      -9.140   9.614  67.491  1.00  0.00    -0.130 OA 
HETATM    8  O   UNL     1     -10.618  11.035  66.531  1.00  0.00    -0.249 OA 
HETATM    9  N   UNL     1     -10.061   9.941  66.465  1.00  0.00    -0.227 N  
HETATM   10  O   UNL     1     -10.144   9.070  65.605  1.00  0.00    -0.082 OA 
ENDBRANCH   6   7
BRANCH   6  11
HETATM   11  C   UNL     1      -9.648  10.319  69.822  1.00  0.00    -0.108 C  
BRANCH  11  12
HETATM   12  O   UNL     1     -11.057  10.437  69.597  1.00  0.00    -0.239 OA 
HETATM   13  O   UNL     1     -11.312   9.480  71.623  1.00  0.00    -0.383 OA 
HETATM   14  O   UNL     1     -12.919  10.749  70.733  1.00  0.00    -0.336 OA 
HETATM   15  N   UNL     1     -11.823  10.198  70.765  1.00  0.00    -0.324 N  
ENDBRANCH  11  12
BRANCH  11  16
HETATM   16  C   UNL     1      -9.295   8.935  70.406  1.00  0.00    -0.193 C  
BRANCH  16  17
HETATM   17  O   UNL     1      -7.952   8.902  70.887  1.00  0.00    -0.118 OA 
HETATM   18  N   UNL     1      -7.351   7.622  70.689  1.00  0.00    -0.066 N  
HETATM   19  O   UNL     1      -6.165   7.603  71.009  1.00  0.00    -0.035 OA 
HETATM   20  O   UNL     1      -8.072   6.726  70.257  1.00  0.00    -0.116 OA 
ENDBRANCH  16  17
ENDBRANCH  11  16
ENDBRANCH   6  11
ENDBRANCH   5   6
ENDBRANCH   4   5
TORSDOF 7
ENDMDL
MODEL      372
REMARK 921   NORMALIZED FREE ENERGY PREDICTED BY IDOCK:   -1.16 KCAL/MOL
REMARK 922        TOTAL FREE ENERGY PREDICTED BY IDOCK:   -2.58 KCAL/MOL
REMARK 923 INTER-LIGAND FREE ENERGY PREDICTED BY IDOCK:   -2.76 KCAL/MOL
REMARK 924 INTRA-LIGAND FREE ENERGY PREDICTED BY IDOCK:    0.19 KCAL/MOL
REMARK 927      BINDING AFFINITY PREDICTED BY RF-SCORE:    0.00 PKD
ROOT
HETATM    1  O   UNL     1      -5.174   8.784  67.300  1.00  0.00    -0.033 OA 
HETATM    2  N   UNL     1      -6.078   8.304  66.622  1.00  0.00    -0.052 N  
HETATM    3  O   UNL     1      -6.364   8.482  65.437  1.00  0.00    -0.054 OA 
HETATM    4  O   UNL     1      -6.897   7.405  67.355  1.00  0.00    -0.072 OA 
ENDROOT
BRANCH   4   5
HETATM    5  C   UNL     1      -7.963   6.872  66.569  1.00  0.00    -0.109 C  
BRANCH   5   6
HETATM    6  C   UNL     1      -9.281   6.954  67.382  1.00  0.00    -0.125 C  
BRANCH   6   7
HETATM    7  O   UNL     1      -9.815   5.672  67.754  1.00  0.00    -0.119 OA 
HETATM    8  O   UNL     1      -7.883   5.302  68.875  1.00  0.00    -0.081 OA 
HETATM    9  N   UNL     1      -8.994   4.866  68.580  1.00  0.00    -0.102 N  
HETATM   10  O   UNL     1      -9.544   3.826  68.928  1.00  0.00    -0.171 OA 
ENDBRANCH   6   7
BRANCH   6  11
HETATM   11  C   UNL     1      -9.225   7.943  68.579  1.00  0.00    -0.138 C  
BRANCH  11  12
HETATM   12  O   UNL     1      -9.296   9.278  68.066  1.00  0.00    -0.134 OA 
HETATM   13  O   UNL     1      -7.736   9.797  69.609  1.00  0.00    -0.103 OA 
HETATM   14  O   UNL     1      -8.001  11.036  67.771  1.00  0.00    -0.111 OA 
HETATM   15  N   UNL     1      -8.242  10.104  68.531  1.00  0.00    -0.107 N  
ENDBRANCH  11  12
BRANCH  11  16
HETATM   16  C   UNL     1     -10.330   7.692  69.626  1.00  0.00    -0.213 C  
BRANCH  16  17
HETATM   17  O   UNL     1      -9.776   7.475  70.923  1.00  0.00    -0.173 OA 
HETATM   18  N   UNL     1     -10.127   8.521  71.829  1.00  0.00    -0.252 N  
HETATM   19  O   UNL     1      -9.738   8.303  72.974  1.00  0.00    -0.269 OA 
HETATM   20  O   UNL     1     -10.734   9.482  71.366  1.00  0.00    -0.346 OA 
ENDBRANCH  16  17
ENDBRANCH  11  16
ENDBRANCH   6  11
ENDBRANCH   5   6
ENDBRANCH   4   5
TORSDOF 7
ENDMDL
MODEL      373
REMARK 921   NORMALIZED FREE ENERGY PREDICTED BY IDOCK:    2.00 KCAL/MOL
REMARK 922        TOTAL FREE ENERGY PREDICTED BY IDOCK:    1.88 KCAL/MOL
REMARK 923 INTER-LIGAND FREE ENERGY PREDICTED BY IDOCK:    0.41 KCAL/MOL
REMARK 924 INTRA-LIGAND FREE ENERGY PREDICTED BY IDOCK:    1.47 KCAL/MOL
REMARK 927      BINDING AFFINITY PREDICTED BY RF-SCORE:    0.00 PKD
ROOT
HETATM    1  O   UNL     1     -13.985   5.357  72.885  1.00  0.00     0.503 OA 
HETATM    2  N   UNL     1     -12.974   5.648  72.252  1.00  0.00     0.646 N  
HETATM    3  O   UNL     1     -12.633   6.718  71.746  1.00  0.00    -0.357 OA 
HETATM    4  O   UNL     1     -12.082   4.552  72.109  1.00  0.00     1.238 OA 
ENDROOT
BRANCH   4   5
HETATM    5  C   UNL     1     -10.921   4.888  71.349  1.00  0.00     0.261 C  
BRANCH   5   6
HETATM    6  C   UNL     1     -10.062   5.896  72.154  1.00  0.00    -0.180 C  
BRANCH   6   7
HETATM    7  O   UNL     1      -9.495   5.347  73.356  1.00  0.00    -0.134 OA 
HETATM    8  O   UNL     1      -9.441   3.346  72.299  1.00  0.00    -0.109 OA 
HETATM    9  N   UNL     1      -9.173   3.968  73.325  1.00  0.00    -0.105 N  
HETATM   10  O   UNL     1      -8.617   3.586  74.350  1.00  0.00    -0.086 OA 
ENDBRANCH   6   7
BRANCH   6  11
HETATM   11  C   UNL     1      -9.012   6.657  71.297  1.00  0.00    -0.144 C  
BRANCH  11  12
HETATM   12  O   UNL     1      -7.805   6.771  72.058  1.00  0.00    -0.095 OA 
HETATM   13  O   UNL     1      -7.613   8.835  71.169  1.00  0.00    -0.095 OA 
HETATM   14  O   UNL     1      -6.609   8.306  73.092  1.00  0.00    -0.096 OA 
HETATM   15  N   UNL     1      -7.306   8.097  72.104  1.00  0.00    -0.093 N  
ENDBRANCH  11  12
BRANCH  11  16
HETATM   16  C   UNL     1      -8.746   5.990  69.931  1.00  0.00    -0.131 C  
BRANCH  16  17
HETATM   17  O   UNL     1      -8.598   6.963  68.899  1.00  0.00    -0.130 OA 
HETATM   18  N   UNL     1      -9.764   7.044  68.079  1.00  0.00    -0.128 N  
HETATM   19  O   UNL     1      -9.692   7.943  67.244  1.00  0.00    -0.153 OA 
HETATM   20  O   UNL     1     -10.654   6.224  68.288  1.00  0.00    -0.201 OA 
ENDBRANCH  16  17
ENDBRANCH  11  16
ENDBRANCH   6  11
ENDBRANCH   5   6
ENDBRANCH   4   5
TORSDOF 7
ENDMDL
