MODEL        1
REMARK 921   NORMALIZED FREE ENERGY PREDICTED BY IDOCK:   -6.72 KCAL/MOL
REMARK 922        TOTAL FREE ENERGY PREDICTED BY IDOCK:   -9.55 KCAL/MOL
REMARK 923 INTER-LIGAND FREE ENERGY PREDICTED BY IDOCK:   -8.68 KCAL/MOL
REMARK 924 INTRA-LIGAND FREE ENERGY PREDICTED BY IDOCK:   -0.87 KCAL/MOL
REMARK 927      BINDING AFFINITY PREDICTED BY RF-SCORE:    0.00 PKD
ROOT
HETATM    1  C   UNL     1     -12.368  15.605  74.227  1.00  0.00    -0.669 C  
HETATM    2  N   UNL     1     -12.663  15.171  72.858  1.00  0.00    -0.383 NA 
HETATM    3  C   UNL     1     -14.057  15.483  72.537  1.00  0.00    -0.506 C  
ENDROOT
BRANCH   2   4
HETATM    4  C   UNL     1     -11.713  15.789  71.916  1.00  0.00    -0.483 C  
BRANCH   4   5
HETATM    5  C   UNL     1     -11.404  14.906  70.695  1.00  0.00    -0.275 C  
BRANCH   5   6
HETATM    6  C   UNL     1     -11.820  15.588  69.382  1.00  0.00    -0.392 C  
BRANCH   6   7
HETATM    7  C   UNL     1     -10.695  15.655  68.317  1.00  0.00    -0.283 C  
HETATM    8  O   UNL     1      -9.480  15.188  68.981  1.00  0.00    -0.202 OA 
HETATM    9  N   UNL     1     -10.369  11.062  63.207  1.00  0.00    -0.319 NA 
HETATM   10  C   UNL     1      -9.585  12.922  66.083  1.00  0.00    -0.215 A  
HETATM   11  C   UNL     1      -8.804  14.192  68.191  1.00  0.00    -0.183 C  
HETATM   12  C   UNL     1      -9.734  13.876  67.084  1.00  0.00    -0.244 A  
HETATM   13  C   UNL     1     -10.470  11.837  64.065  1.00  0.00    -0.368 C  
HETATM   14  C   UNL     1     -10.849  14.702  67.155  1.00  0.00    -0.303 A  
HETATM   15  C   UNL     1     -10.596  12.797  65.125  1.00  0.00    -0.324 A  
HETATM   16  C   UNL     1     -11.734  13.617  65.197  1.00  0.00    -0.346 A  
HETATM   17  C   UNL     1     -11.869  14.566  66.221  1.00  0.00    -0.354 A  
BRANCH   7  18
HETATM   18  C   UNL     1     -10.499  17.118  67.874  1.00  0.00    -0.369 A  
HETATM   19  C   UNL     1     -10.266  18.137  68.820  1.00  0.00    -0.353 A  
HETATM   20  F   UNL     1      -9.859  21.046  66.691  1.00  0.00    -0.413 F  
HETATM   21  C   UNL     1     -10.069  19.779  67.073  1.00  0.00    -0.425 A  
HETATM   22  C   UNL     1     -10.284  18.800  66.115  1.00  0.00    -0.462 A  
HETATM   23  C   UNL     1     -10.499  17.477  66.512  1.00  0.00    -0.270 A  
HETATM   24  C   UNL     1     -10.061  19.461  68.423  1.00  0.00    -0.538 A  
ENDBRANCH   7  18
ENDBRANCH   6   7
ENDBRANCH   5   6
ENDBRANCH   4   5
ENDBRANCH   2   4
TORSDOF 5
ENDMDL
MODEL        2
REMARK 921   NORMALIZED FREE ENERGY PREDICTED BY IDOCK:   -6.71 KCAL/MOL
REMARK 922        TOTAL FREE ENERGY PREDICTED BY IDOCK:   -9.55 KCAL/MOL
REMARK 923 INTER-LIGAND FREE ENERGY PREDICTED BY IDOCK:   -8.60 KCAL/MOL
REMARK 924 INTRA-LIGAND FREE ENERGY PREDICTED BY IDOCK:   -0.94 KCAL/MOL
REMARK 927      BINDING AFFINITY PREDICTED BY RF-SCORE:    0.00 PKD
ROOT
HETATM    1  C   UNL     1     -12.269  14.517  64.102  1.00  0.00    -0.342 C  
HETATM    2  N   UNL     1     -12.641  13.159  64.510  1.00  0.00    -0.647 NA 
HETATM    3  C   UNL     1     -12.254  12.212  63.462  1.00  0.00    -0.567 C  
ENDROOT
BRANCH   2   4
HETATM    4  C   UNL     1     -12.034  12.839  65.815  1.00  0.00    -0.449 C  
BRANCH   4   5
HETATM    5  C   UNL     1     -11.236  14.007  66.418  1.00  0.00    -0.321 C  
BRANCH   5   6
HETATM    6  C   UNL     1     -11.932  14.588  67.660  1.00  0.00    -0.355 C  
BRANCH   6   7
HETATM    7  C   UNL     1     -10.959  15.169  68.718  1.00  0.00    -0.255 C  
HETATM    8  O   UNL     1      -9.823  14.251  68.773  1.00  0.00    -0.227 OA 
HETATM    9  N   UNL     1      -7.149  20.733  67.361  1.00  0.00    -0.345 NA 
HETATM   10  C   UNL     1      -8.097  17.431  68.101  1.00  0.00    -0.232 A  
HETATM   11  C   UNL     1      -8.574  14.962  68.685  1.00  0.00    -0.168 C  
HETATM   12  C   UNL     1      -8.942  16.359  68.363  1.00  0.00    -0.214 A  
HETATM   13  C   UNL     1      -7.827  19.814  67.566  1.00  0.00    -0.282 C  
HETATM   14  C   UNL     1     -10.325  16.491  68.356  1.00  0.00    -0.294 A  
HETATM   15  C   UNL     1      -8.666  18.678  67.822  1.00  0.00    -0.298 A  
HETATM   16  C   UNL     1     -10.064  18.818  67.798  1.00  0.00    -0.417 A  
HETATM   17  C   UNL     1     -10.899  17.721  68.054  1.00  0.00    -0.217 A  
BRANCH   7  18
HETATM   18  C   UNL     1     -11.656  15.193  70.092  1.00  0.00    -0.326 A  
HETATM   19  C   UNL     1     -12.632  14.232  70.428  1.00  0.00    -0.405 A  
HETATM   20  F   UNL     1     -13.467  15.175  73.829  1.00  0.00    -0.396 F  
HETATM   21  C   UNL     1     -12.885  15.183  72.622  1.00  0.00    -0.386 A  
HETATM   22  C   UNL     1     -11.921  16.137  72.331  1.00  0.00    -0.649 A  
HETATM   23  C   UNL     1     -11.311  16.143  71.073  1.00  0.00    -0.381 A  
HETATM   24  C   UNL     1     -13.249  14.232  71.681  1.00  0.00    -0.429 A  
ENDBRANCH   7  18
ENDBRANCH   6   7
ENDBRANCH   5   6
ENDBRANCH   4   5
ENDBRANCH   2   4
TORSDOF 5
ENDMDL
MODEL        3
REMARK 921   NORMALIZED FREE ENERGY PREDICTED BY IDOCK:   -6.68 KCAL/MOL
REMARK 922        TOTAL FREE ENERGY PREDICTED BY IDOCK:   -9.50 KCAL/MOL
REMARK 923 INTER-LIGAND FREE ENERGY PREDICTED BY IDOCK:   -8.60 KCAL/MOL
REMARK 924 INTRA-LIGAND FREE ENERGY PREDICTED BY IDOCK:   -0.90 KCAL/MOL
REMARK 927      BINDING AFFINITY PREDICTED BY RF-SCORE:    0.00 PKD
ROOT
HETATM    1  C   UNL     1     -10.046  19.854  68.142  1.00  0.00    -0.441 C  
HETATM    2  N   UNL     1     -10.785  18.758  67.509  1.00  0.00    -0.440 NA 
HETATM    3  C   UNL     1     -10.475  18.722  66.078  1.00  0.00    -0.432 C  
ENDROOT
BRANCH   2   4
HETATM    4  C   UNL     1     -10.481  17.485  68.187  1.00  0.00    -0.386 C  
BRANCH   4   5
HETATM    5  C   UNL     1     -10.701  16.252  67.296  1.00  0.00    -0.265 C  
BRANCH   5   6
HETATM    6  C   UNL     1     -10.397  14.946  68.048  1.00  0.00    -0.244 C  
BRANCH   6   7
HETATM    7  C   UNL     1     -11.256  13.738  67.597  1.00  0.00    -0.293 C  
HETATM    8  O   UNL     1     -12.393  14.298  66.869  1.00  0.00    -0.408 OA 
HETATM    9  N   UNL     1      -9.218   9.663  62.443  1.00  0.00    -0.275 NA 
HETATM   10  C   UNL     1     -11.063  11.961  64.356  1.00  0.00    -0.395 A  
HETATM   11  C   UNL     1     -12.582  13.635  65.605  1.00  0.00    -0.484 C  
HETATM   12  C   UNL     1     -11.398  12.760  65.443  1.00  0.00    -0.339 A  
HETATM   13  C   UNL     1      -9.517  10.353  63.326  1.00  0.00    -0.323 C  
HETATM   14  C   UNL     1     -10.606  12.826  66.583  1.00  0.00    -0.272 A  
HETATM   15  C   UNL     1      -9.888  11.205  64.420  1.00  0.00    -0.334 A  
HETATM   16  C   UNL     1      -9.073  11.276  65.562  1.00  0.00    -0.184 A  
HETATM   17  C   UNL     1      -9.424  12.097  66.644  1.00  0.00    -0.226 A  
BRANCH   7  18
HETATM   18  C   UNL     1     -11.772  12.985  68.839  1.00  0.00    -0.371 A  
HETATM   19  C   UNL     1     -11.880  11.579  68.841  1.00  0.00    -0.406 A  
HETATM   20  F   UNL     1     -13.054  10.932  72.212  1.00  0.00    -0.560 F  
HETATM   21  C   UNL     1     -12.644  11.594  71.122  1.00  0.00    -0.335 A  
HETATM   22  C   UNL     1     -12.537  12.977  71.159  1.00  0.00    -0.388 A  
HETATM   23  C   UNL     1     -12.106  13.669  70.024  1.00  0.00    -0.417 A  
HETATM   24  C   UNL     1     -12.322  10.889  69.973  1.00  0.00    -0.385 A  
ENDBRANCH   7  18
ENDBRANCH   6   7
ENDBRANCH   5   6
ENDBRANCH   4   5
ENDBRANCH   2   4
TORSDOF 5
ENDMDL
MODEL        4
REMARK 921   NORMALIZED FREE ENERGY PREDICTED BY IDOCK:   -6.63 KCAL/MOL
REMARK 922        TOTAL FREE ENERGY PREDICTED BY IDOCK:   -9.44 KCAL/MOL
REMARK 923 INTER-LIGAND FREE ENERGY PREDICTED BY IDOCK:   -8.47 KCAL/MOL
REMARK 924 INTRA-LIGAND FREE ENERGY PREDICTED BY IDOCK:   -0.97 KCAL/MOL
REMARK 927      BINDING AFFINITY PREDICTED BY RF-SCORE:    0.00 PKD
ROOT
HETATM    1  C   UNL     1     -10.248  11.874  63.827  1.00  0.00    -0.413 C  
HETATM    2  N   UNL     1     -11.093  13.061  63.985  1.00  0.00    -0.396 NA 
HETATM    3  C   UNL     1     -12.479  12.647  64.214  1.00  0.00    -0.411 C  
ENDROOT
BRANCH   2   4
HETATM    4  C   UNL     1     -10.570  13.913  65.069  1.00  0.00    -0.404 C  
BRANCH   4   5
HETATM    5  C   UNL     1     -10.953  13.416  66.473  1.00  0.00    -0.299 C  
BRANCH   5   6
HETATM    6  C   UNL     1     -11.632  14.521  67.299  1.00  0.00    -0.405 C  
BRANCH   6   7
HETATM    7  C   UNL     1     -10.728  15.142  68.394  1.00  0.00    -0.248 C  
HETATM    8  O   UNL     1      -9.512  14.331  68.424  1.00  0.00    -0.204 OA 
HETATM    9  N   UNL     1      -7.437  21.088  67.329  1.00  0.00    -0.378 NA 
HETATM   10  C   UNL     1      -8.081  17.683  67.914  1.00  0.00    -0.233 A  
HETATM   11  C   UNL     1      -8.333  15.157  68.384  1.00  0.00    -0.154 C  
HETATM   12  C   UNL     1      -8.826  16.527  68.117  1.00  0.00    -0.203 A  
HETATM   13  C   UNL     1      -8.028  20.102  67.486  1.00  0.00    -0.317 C  
HETATM   14  C   UNL     1     -10.216  16.532  68.098  1.00  0.00    -0.271 A  
HETATM   15  C   UNL     1      -8.761  18.883  67.681  1.00  0.00    -0.312 A  
HETATM   16  C   UNL     1     -10.166  18.895  67.645  1.00  0.00    -0.459 A  
HETATM   17  C   UNL     1     -10.898  17.715  67.842  1.00  0.00    -0.245 A  
BRANCH   7  18
HETATM   18  C   UNL     1     -11.436  15.041  69.759  1.00  0.00    -0.324 A  
HETATM   19  C   UNL     1     -12.140  13.875  70.126  1.00  0.00    -0.418 A  
HETATM   20  F   UNL     1     -13.260  14.707  73.474  1.00  0.00    -0.567 F  
HETATM   21  C   UNL     1     -12.675  14.815  72.274  1.00  0.00    -0.332 A  
HETATM   22  C   UNL     1     -11.981  15.973  71.951  1.00  0.00    -0.606 A  
HETATM   23  C   UNL     1     -11.367  16.085  70.700  1.00  0.00    -0.424 A  
HETATM   24  C   UNL     1     -12.763  13.766  71.372  1.00  0.00    -0.450 A  
ENDBRANCH   7  18
ENDBRANCH   6   7
ENDBRANCH   5   6
ENDBRANCH   4   5
ENDBRANCH   2   4
TORSDOF 5
ENDMDL
MODEL        5
REMARK 921   NORMALIZED FREE ENERGY PREDICTED BY IDOCK:   -6.63 KCAL/MOL
REMARK 922        TOTAL FREE ENERGY PREDICTED BY IDOCK:   -9.43 KCAL/MOL
REMARK 923 INTER-LIGAND FREE ENERGY PREDICTED BY IDOCK:   -8.40 KCAL/MOL
REMARK 924 INTRA-LIGAND FREE ENERGY PREDICTED BY IDOCK:   -1.03 KCAL/MOL
REMARK 927      BINDING AFFINITY PREDICTED BY RF-SCORE:    0.00 PKD
ROOT
HETATM    1  C   UNL     1     -10.282  18.771  66.632  1.00  0.00    -0.408 C  
HETATM    2  N   UNL     1      -9.429  17.802  65.936  1.00  0.00    -0.526 NA 
HETATM    3  C   UNL     1      -8.085  17.829  66.516  1.00  0.00    -0.272 C  
ENDROOT
BRANCH   2   4
HETATM    4  C   UNL     1     -10.042  16.462  65.988  1.00  0.00    -0.353 C  
BRANCH   4   5
HETATM    5  C   UNL     1     -10.831  16.202  67.283  1.00  0.00    -0.235 C  
BRANCH   5   6
HETATM    6  C   UNL     1     -10.380  14.903  67.970  1.00  0.00    -0.244 C  
BRANCH   6   7
HETATM    7  C   UNL     1     -11.200  13.652  67.563  1.00  0.00    -0.294 C  
HETATM    8  O   UNL     1     -12.360  14.149  66.826  1.00  0.00    -0.438 OA 
HETATM    9  N   UNL     1      -9.052   9.490  62.524  1.00  0.00    -0.262 NA 
HETATM   10  C   UNL     1     -10.964  11.782  64.378  1.00  0.00    -0.397 A  
HETATM   11  C   UNL     1     -12.533  13.441  65.585  1.00  0.00    -0.464 C  
HETATM   12  C   UNL     1     -11.321  12.603  65.442  1.00  0.00    -0.348 A  
HETATM   13  C   UNL     1      -9.370  10.197  63.387  1.00  0.00    -0.294 C  
HETATM   14  C   UNL     1     -10.524  12.731  66.573  1.00  0.00    -0.276 A  
HETATM   15  C   UNL     1      -9.764  11.070  64.457  1.00  0.00    -0.323 A  
HETATM   16  C   UNL     1      -8.944  11.205  65.591  1.00  0.00    -0.195 A  
HETATM   17  C   UNL     1      -9.317  12.047  66.649  1.00  0.00    -0.221 A  
BRANCH   7  18
HETATM   18  C   UNL     1     -11.681  12.922  68.831  1.00  0.00    -0.370 A  
HETATM   19  C   UNL     1     -12.037  13.641  69.991  1.00  0.00    -0.417 A  
HETATM   20  F   UNL     1     -13.084  10.981  72.223  1.00  0.00    -0.575 F  
HETATM   21  C   UNL     1     -12.628  11.607  71.130  1.00  0.00    -0.335 A  
HETATM   22  C   UNL     1     -12.298  10.868  70.003  1.00  0.00    -0.385 A  
HETATM   23  C   UNL     1     -11.826  11.521  68.861  1.00  0.00    -0.406 A  
HETATM   24  C   UNL     1     -12.498  12.987  71.136  1.00  0.00    -0.364 A  
ENDBRANCH   7  18
ENDBRANCH   6   7
ENDBRANCH   5   6
ENDBRANCH   4   5
ENDBRANCH   2   4
TORSDOF 5
ENDMDL
MODEL        6
REMARK 921   NORMALIZED FREE ENERGY PREDICTED BY IDOCK:   -6.50 KCAL/MOL
REMARK 922        TOTAL FREE ENERGY PREDICTED BY IDOCK:   -9.27 KCAL/MOL
REMARK 923 INTER-LIGAND FREE ENERGY PREDICTED BY IDOCK:   -8.66 KCAL/MOL
REMARK 924 INTRA-LIGAND FREE ENERGY PREDICTED BY IDOCK:   -0.61 KCAL/MOL
REMARK 927      BINDING AFFINITY PREDICTED BY RF-SCORE:    0.00 PKD
ROOT
HETATM    1  C   UNL     1     -13.333  15.650  72.996  1.00  0.00    -0.570 C  
HETATM    2  N   UNL     1     -12.820  14.596  72.116  1.00  0.00    -0.319 NA 
HETATM    3  C   UNL     1     -13.595  13.370  72.319  1.00  0.00    -0.605 C  
ENDROOT
BRANCH   2   4
HETATM    4  C   UNL     1     -12.839  15.053  70.715  1.00  0.00    -0.392 C  
BRANCH   4   5
HETATM    5  C   UNL     1     -11.723  14.434  69.857  1.00  0.00    -0.363 C  
BRANCH   5   6
HETATM    6  C   UNL     1     -10.548  15.407  69.667  1.00  0.00    -0.285 C  
BRANCH   6   7
HETATM    7  C   UNL     1     -10.126  15.612  68.190  1.00  0.00    -0.222 C  
HETATM    8  O   UNL     1      -8.779  15.059  68.071  1.00  0.00    -0.154 OA 
HETATM    9  N   UNL     1     -12.788  11.738  63.167  1.00  0.00    -0.440 NA 
HETATM   10  C   UNL     1     -10.513  13.198  65.411  1.00  0.00    -0.307 A  
HETATM   11  C   UNL     1      -8.674  14.175  66.940  1.00  0.00    -0.166 C  
HETATM   12  C   UNL     1     -10.060  14.011  66.445  1.00  0.00    -0.299 A  
HETATM   13  C   UNL     1     -12.380  12.392  64.034  1.00  0.00    -0.488 C  
HETATM   14  C   UNL     1     -10.920  14.823  67.175  1.00  0.00    -0.320 A  
HETATM   15  C   UNL     1     -11.877  13.203  65.107  1.00  0.00    -0.392 A  
HETATM   16  C   UNL     1     -12.757  14.009  65.850  1.00  0.00    -0.436 A  
HETATM   17  C   UNL     1     -12.281  14.813  66.896  1.00  0.00     0.010 A  
BRANCH   7  18
HETATM   18  C   UNL     1     -10.083  17.120  67.877  1.00  0.00    -0.308 A  
HETATM   19  C   UNL     1     -10.373  17.601  66.583  1.00  0.00    -0.333 A  
HETATM   20  F   UNL     1     -10.079  21.187  67.040  1.00  0.00    -0.473 F  
HETATM   21  C   UNL     1     -10.077  19.875  67.308  1.00  0.00    -0.432 A  
HETATM   22  C   UNL     1      -9.799  19.438  68.596  1.00  0.00    -0.522 A  
HETATM   23  C   UNL     1      -9.800  18.070  68.878  1.00  0.00    -0.321 A  
HETATM   24  C   UNL     1     -10.361  18.969  66.298  1.00  0.00    -0.530 A  
ENDBRANCH   7  18
ENDBRANCH   6   7
ENDBRANCH   5   6
ENDBRANCH   4   5
ENDBRANCH   2   4
TORSDOF 5
ENDMDL
MODEL        7
REMARK 921   NORMALIZED FREE ENERGY PREDICTED BY IDOCK:   -6.48 KCAL/MOL
REMARK 922        TOTAL FREE ENERGY PREDICTED BY IDOCK:   -9.24 KCAL/MOL
REMARK 923 INTER-LIGAND FREE ENERGY PREDICTED BY IDOCK:   -8.30 KCAL/MOL
REMARK 924 INTRA-LIGAND FREE ENERGY PREDICTED BY IDOCK:   -0.94 KCAL/MOL
REMARK 927      BINDING AFFINITY PREDICTED BY RF-SCORE:    0.00 PKD
ROOT
HETATM    1  C   UNL     1      -9.904  18.204  67.161  1.00  0.00    -0.317 C  
HETATM    2  N   UNL     1      -9.275  17.361  66.139  1.00  0.00    -0.472 NA 
HETATM    3  C   UNL     1      -7.837  17.269  66.398  1.00  0.00    -0.310 C  
ENDROOT
BRANCH   2   4
HETATM    4  C   UNL     1      -9.930  16.041  66.101  1.00  0.00    -0.325 C  
BRANCH   4   5
HETATM    5  C   UNL     1      -9.050  14.909  66.656  1.00  0.00    -0.309 C  
BRANCH   5   6
HETATM    6  C   UNL     1      -9.747  14.160  67.803  1.00  0.00    -0.223 C  
BRANCH   6   7
HETATM    7  C   UNL     1      -9.980  12.652  67.528  1.00  0.00    -0.205 C  
HETATM    8  O   UNL     1      -8.655  12.062  67.347  1.00  0.00    -0.156 OA 
HETATM    9  N   UNL     1     -11.840   8.367  72.578  1.00  0.00    -0.388 NA 
HETATM   10  C   UNL     1      -9.996   9.914  70.017  1.00  0.00    -0.302 A  
HETATM   11  C   UNL     1      -8.499  10.874  68.145  1.00  0.00    -0.131 C  
HETATM   12  C   UNL     1      -9.699  10.827  69.012  1.00  0.00    -0.201 A  
HETATM   13  C   UNL     1     -11.554   9.122  71.745  1.00  0.00    -0.387 C  
HETATM   14  C   UNL     1     -10.560  11.866  68.681  1.00  0.00    -0.259 A  
HETATM   15  C   UNL     1     -11.201  10.056  70.713  1.00  0.00    -0.428 A  
HETATM   16  C   UNL     1     -12.071  11.113  70.396  1.00  0.00    -0.475 A  
HETATM   17  C   UNL     1     -11.747  12.030  69.385  1.00  0.00    -0.402 A  
BRANCH   7  18
HETATM   18  C   UNL     1     -10.787  12.491  66.225  1.00  0.00    -0.299 A  
HETATM   19  C   UNL     1     -10.330  11.651  65.188  1.00  0.00    -0.326 A  
HETATM   20  F   UNL     1     -13.000  11.957  62.753  1.00  0.00    -0.495 F  
HETATM   21  C   UNL     1     -12.285  12.132  63.871  1.00  0.00    -0.489 A  
HETATM   22  C   UNL     1     -12.771  12.956  64.876  1.00  0.00    -0.474 A  
HETATM   23  C   UNL     1     -12.026  13.135  66.045  1.00  0.00    -0.488 A  
HETATM   24  C   UNL     1     -11.069  11.480  64.015  1.00  0.00    -0.441 A  
ENDBRANCH   7  18
ENDBRANCH   6   7
ENDBRANCH   5   6
ENDBRANCH   4   5
ENDBRANCH   2   4
TORSDOF 5
ENDMDL
MODEL        8
REMARK 921   NORMALIZED FREE ENERGY PREDICTED BY IDOCK:   -6.45 KCAL/MOL
REMARK 922        TOTAL FREE ENERGY PREDICTED BY IDOCK:   -9.21 KCAL/MOL
REMARK 923 INTER-LIGAND FREE ENERGY PREDICTED BY IDOCK:   -8.05 KCAL/MOL
REMARK 924 INTRA-LIGAND FREE ENERGY PREDICTED BY IDOCK:   -1.16 KCAL/MOL
REMARK 927      BINDING AFFINITY PREDICTED BY RF-SCORE:    0.00 PKD
ROOT
HETATM    1  C   UNL     1     -10.175  10.582  67.762  1.00  0.00    -0.190 C  
HETATM    2  N   UNL     1     -11.568  11.038  67.741  1.00  0.00    -0.564 NA 
HETATM    3  C   UNL     1     -12.010  11.320  69.109  1.00  0.00    -0.336 C  
ENDROOT
BRANCH   2   4
HETATM    4  C   UNL     1     -11.706  12.203  66.849  1.00  0.00    -0.301 C  
BRANCH   4   5
HETATM    5  C   UNL     1     -10.657  13.297  67.109  1.00  0.00    -0.259 C  
BRANCH   5   6
HETATM    6  C   UNL     1     -11.315  14.637  67.475  1.00  0.00    -0.361 C  
BRANCH   6   7
HETATM    7  C   UNL     1     -10.593  15.409  68.610  1.00  0.00    -0.239 C  
HETATM    8  O   UNL     1      -9.390  14.640  68.922  1.00  0.00    -0.199 OA 
HETATM    9  N   UNL     1      -7.226  21.270  67.332  1.00  0.00    -0.498 NA 
HETATM   10  C   UNL     1      -7.925  17.944  68.226  1.00  0.00    -0.292 A  
HETATM   11  C   UNL     1      -8.225  15.486  68.959  1.00  0.00    -0.227 C  
HETATM   12  C   UNL     1      -8.683  16.801  68.455  1.00  0.00    -0.236 A  
HETATM   13  C   UNL     1      -7.827  20.295  67.518  1.00  0.00    -0.305 C  
HETATM   14  C   UNL     1     -10.053  16.766  68.226  1.00  0.00    -0.274 A  
HETATM   15  C   UNL     1      -8.571  19.089  67.748  1.00  0.00    -0.328 A  
HETATM   16  C   UNL     1      -9.954  19.059  67.499  1.00  0.00    -0.418 A  
HETATM   17  C   UNL     1     -10.698  17.892  67.727  1.00  0.00    -0.339 A  
BRANCH   7  18
HETATM   18  C   UNL     1     -11.501  15.453  69.854  1.00  0.00    -0.329 A  
HETATM   19  C   UNL     1     -11.095  16.127  71.025  1.00  0.00    -0.178 A  
HETATM   20  F   UNL     1     -13.979  15.678  73.178  1.00  0.00    -0.562 F  
HETATM   21  C   UNL     1     -13.178  15.603  72.107  1.00  0.00    -0.461 A  
HETATM   22  C   UNL     1     -13.615  14.942  70.969  1.00  0.00    -0.402 A  
HETATM   23  C   UNL     1     -12.782  14.866  69.849  1.00  0.00    -0.126 A  
HETATM   24  C   UNL     1     -11.924  16.193  72.148  1.00  0.00    -0.623 A  
ENDBRANCH   7  18
ENDBRANCH   6   7
ENDBRANCH   5   6
ENDBRANCH   4   5
ENDBRANCH   2   4
TORSDOF 5
ENDMDL
MODEL        9
REMARK 921   NORMALIZED FREE ENERGY PREDICTED BY IDOCK:   -6.36 KCAL/MOL
REMARK 922        TOTAL FREE ENERGY PREDICTED BY IDOCK:   -9.09 KCAL/MOL
REMARK 923 INTER-LIGAND FREE ENERGY PREDICTED BY IDOCK:   -7.81 KCAL/MOL
REMARK 924 INTRA-LIGAND FREE ENERGY PREDICTED BY IDOCK:   -1.27 KCAL/MOL
REMARK 927      BINDING AFFINITY PREDICTED BY RF-SCORE:    0.00 PKD
ROOT
HETATM    1  C   UNL     1     -12.359  12.367  63.353  1.00  0.00    -0.499 C  
HETATM    2  N   UNL     1     -11.562  12.359  64.583  1.00  0.00    -0.330 NA 
HETATM    3  C   UNL     1     -10.642  11.220  64.562  1.00  0.00    -0.336 C  
ENDROOT
BRANCH   2   4
HETATM    4  C   UNL     1     -10.864  13.648  64.741  1.00  0.00    -0.394 C  
BRANCH   4   5
HETATM    5  C   UNL     1     -11.580  14.615  65.698  1.00  0.00    -0.328 C  
BRANCH   5   6
HETATM    6  C   UNL     1     -12.130  13.886  66.935  1.00  0.00    -0.467 C  
BRANCH   6   7
HETATM    7  C   UNL     1     -11.130  13.797  68.116  1.00  0.00    -0.259 C  
HETATM    8  O   UNL     1     -10.095  14.793  67.847  1.00  0.00    -0.219 OA 
HETATM    9  N   UNL     1     -12.737  16.287  74.324  1.00  0.00    -0.738 NA 
HETATM   10  C   UNL     1     -11.166  15.817  71.216  1.00  0.00    -0.376 A  
HETATM   11  C   UNL     1      -9.851  15.617  69.002  1.00  0.00    -0.236 C  
HETATM   12  C   UNL     1     -10.912  15.256  69.969  1.00  0.00    -0.306 A  
HETATM   13  C   UNL     1     -12.510  15.852  73.272  1.00  0.00    -0.523 C  
HETATM   14  C   UNL     1     -11.679  14.214  69.460  1.00  0.00    -0.364 A  
HETATM   15  C   UNL     1     -12.228  15.312  71.972  1.00  0.00    -0.441 A  
HETATM   16  C   UNL     1     -13.018  14.270  71.459  1.00  0.00    -0.411 A  
HETATM   17  C   UNL     1     -12.752  13.725  70.194  1.00  0.00    -0.151 A  
BRANCH   7  18
HETATM   18  C   UNL     1     -10.490  12.395  68.137  1.00  0.00    -0.228 A  
HETATM   19  C   UNL     1      -9.089  12.237  68.100  1.00  0.00    -0.196 A  
HETATM   20  F   UNL     1      -8.742   8.633  68.304  1.00  0.00    -0.135 F  
HETATM   21  C   UNL     1      -9.306   9.846  68.247  1.00  0.00    -0.132 A  
HETATM   22  C   UNL     1     -10.687   9.965  68.298  1.00  0.00    -0.276 A  
HETATM   23  C   UNL     1     -11.276  11.231  68.242  1.00  0.00    -0.331 A  
HETATM   24  C   UNL     1      -8.501  10.971  68.145  1.00  0.00    -0.135 A  
ENDBRANCH   7  18
ENDBRANCH   6   7
ENDBRANCH   5   6
ENDBRANCH   4   5
ENDBRANCH   2   4
TORSDOF 5
ENDMDL
MODEL       10
REMARK 921   NORMALIZED FREE ENERGY PREDICTED BY IDOCK:   -6.35 KCAL/MOL
REMARK 922        TOTAL FREE ENERGY PREDICTED BY IDOCK:   -9.07 KCAL/MOL
REMARK 923 INTER-LIGAND FREE ENERGY PREDICTED BY IDOCK:   -7.97 KCAL/MOL
REMARK 924 INTRA-LIGAND FREE ENERGY PREDICTED BY IDOCK:   -1.10 KCAL/MOL
REMARK 927      BINDING AFFINITY PREDICTED BY RF-SCORE:    0.00 PKD
ROOT
HETATM    1  C   UNL     1      -8.598  19.683  67.240  1.00  0.00    -0.308 C  
HETATM    2  N   UNL     1     -10.061  19.575  67.225  1.00  0.00    -0.377 NA 
HETATM    3  C   UNL     1     -10.532  19.513  65.840  1.00  0.00    -0.491 C  
ENDROOT
BRANCH   2   4
HETATM    4  C   UNL     1     -10.490  18.411  68.022  1.00  0.00    -0.363 C  
BRANCH   4   5
HETATM    5  C   UNL     1     -10.289  17.070  67.298  1.00  0.00    -0.311 C  
BRANCH   5   6
HETATM    6  C   UNL     1      -9.891  15.952  68.275  1.00  0.00    -0.217 C  
BRANCH   6   7
HETATM    7  C   UNL     1     -10.923  14.800  68.377  1.00  0.00    -0.252 C  
HETATM    8  O   UNL     1     -11.955  15.091  67.385  1.00  0.00    -0.265 OA 
HETATM    9  N   UNL     1      -9.502   8.535  65.916  1.00  0.00    -0.182 NA 
HETATM   10  C   UNL     1     -10.984  11.688  66.375  1.00  0.00    -0.345 A  
HETATM   11  C   UNL     1     -12.236  13.938  66.569  1.00  0.00    -0.442 C  
HETATM   12  C   UNL     1     -11.200  12.944  66.930  1.00  0.00    -0.331 A  
HETATM   13  C   UNL     1      -9.698   9.595  66.346  1.00  0.00    -0.224 C  
HETATM   14  C   UNL     1     -10.414  13.438  67.965  1.00  0.00    -0.243 A  
HETATM   15  C   UNL     1      -9.940  10.906  66.879  1.00  0.00    -0.232 A  
HETATM   16  C   UNL     1      -9.131  11.403  67.915  1.00  0.00    -0.164 A  
HETATM   17  C   UNL     1      -9.358  12.677  68.453  1.00  0.00    -0.148 A  
BRANCH   7  18
HETATM   18  C   UNL     1     -11.556  14.804  69.782  1.00  0.00    -0.338 A  
HETATM   19  C   UNL     1     -12.363  13.733  70.217  1.00  0.00    -0.407 A  
HETATM   20  F   UNL     1     -13.180  14.746  73.602  1.00  0.00    -0.542 F  
HETATM   21  C   UNL     1     -12.659  14.767  72.369  1.00  0.00    -0.339 A  
HETATM   22  C   UNL     1     -11.860  15.831  71.978  1.00  0.00    -0.582 A  
HETATM   23  C   UNL     1     -11.313  15.851  70.693  1.00  0.00    -0.421 A  
HETATM   24  C   UNL     1     -12.919  13.718  71.499  1.00  0.00    -0.444 A  
ENDBRANCH   7  18
ENDBRANCH   6   7
ENDBRANCH   5   6
ENDBRANCH   4   5
ENDBRANCH   2   4
TORSDOF 5
ENDMDL
MODEL       11
REMARK 921   NORMALIZED FREE ENERGY PREDICTED BY IDOCK:   -6.34 KCAL/MOL
REMARK 922        TOTAL FREE ENERGY PREDICTED BY IDOCK:   -9.07 KCAL/MOL
REMARK 923 INTER-LIGAND FREE ENERGY PREDICTED BY IDOCK:   -8.24 KCAL/MOL
REMARK 924 INTRA-LIGAND FREE ENERGY PREDICTED BY IDOCK:   -0.83 KCAL/MOL
REMARK 927      BINDING AFFINITY PREDICTED BY RF-SCORE:    0.00 PKD
ROOT
HETATM    1  C   UNL     1     -10.179  11.673  63.639  1.00  0.00    -0.412 C  
HETATM    2  N   UNL     1     -11.209  12.707  63.500  1.00  0.00    -0.464 NA 
HETATM    3  C   UNL     1     -12.531  12.078  63.470  1.00  0.00    -0.540 C  
ENDROOT
BRANCH   2   4
HETATM    4  C   UNL     1     -11.078  13.700  64.581  1.00  0.00    -0.381 C  
BRANCH   4   5
HETATM    5  C   UNL     1     -11.509  13.163  65.956  1.00  0.00    -0.370 C  
BRANCH   5   6
HETATM    6  C   UNL     1     -11.937  14.300  66.899  1.00  0.00    -0.467 C  
BRANCH   6   7
HETATM    7  C   UNL     1     -11.035  14.461  68.150  1.00  0.00    -0.254 C  
HETATM    8  O   UNL     1     -10.001  13.433  68.039  1.00  0.00    -0.225 OA 
HETATM    9  N   UNL     1      -6.600  19.693  68.675  1.00  0.00    -0.274 NA 
HETATM   10  C   UNL     1      -7.925  16.450  68.404  1.00  0.00    -0.178 A  
HETATM   11  C   UNL     1      -8.689  13.988  68.248  1.00  0.00    -0.182 C  
HETATM   12  C   UNL     1      -8.889  15.455  68.294  1.00  0.00    -0.176 A  
HETATM   13  C   UNL     1      -7.379  18.840  68.567  1.00  0.00    -0.297 C  
HETATM   14  C   UNL     1     -10.246  15.747  68.215  1.00  0.00    -0.225 A  
HETATM   15  C   UNL     1      -8.343  17.784  68.434  1.00  0.00    -0.295 A  
HETATM   16  C   UNL     1      -9.711  18.091  68.340  1.00  0.00    -0.348 A  
HETATM   17  C   UNL     1     -10.667  17.072  68.218  1.00  0.00    -0.372 A  
BRANCH   7  18
HETATM   18  C   UNL     1     -11.871  14.203  69.418  1.00  0.00    -0.378 A  
HETATM   19  C   UNL     1     -12.616  15.239  70.019  1.00  0.00    -0.277 A  
HETATM   20  F   UNL     1     -14.215  13.504  72.773  1.00  0.00    -0.553 F  
HETATM   21  C   UNL     1     -13.456  13.731  71.693  1.00  0.00    -0.333 A  
HETATM   22  C   UNL     1     -12.745  12.685  71.122  1.00  0.00    -0.347 A  
HETATM   23  C   UNL     1     -11.956  12.920  69.992  1.00  0.00    -0.380 A  
HETATM   24  C   UNL     1     -13.396  15.007  71.154  1.00  0.00    -0.510 A  
ENDBRANCH   7  18
ENDBRANCH   6   7
ENDBRANCH   5   6
ENDBRANCH   4   5
ENDBRANCH   2   4
TORSDOF 5
ENDMDL
MODEL       12
REMARK 921   NORMALIZED FREE ENERGY PREDICTED BY IDOCK:   -6.31 KCAL/MOL
REMARK 922        TOTAL FREE ENERGY PREDICTED BY IDOCK:   -9.02 KCAL/MOL
REMARK 923 INTER-LIGAND FREE ENERGY PREDICTED BY IDOCK:   -7.99 KCAL/MOL
REMARK 924 INTRA-LIGAND FREE ENERGY PREDICTED BY IDOCK:   -1.04 KCAL/MOL
REMARK 927      BINDING AFFINITY PREDICTED BY RF-SCORE:    0.00 PKD
ROOT
HETATM    1  C   UNL     1     -14.387  15.202  71.535  1.00  0.00    -0.559 C  
HETATM    2  N   UNL     1     -13.000  14.852  71.858  1.00  0.00    -0.314 NA 
HETATM    3  C   UNL     1     -12.839  14.784  73.311  1.00  0.00    -0.507 C  
ENDROOT
BRANCH   2   4
HETATM    4  C   UNL     1     -12.628  13.593  71.187  1.00  0.00    -0.371 C  
BRANCH   4   5
HETATM    5  C   UNL     1     -12.178  13.789  69.730  1.00  0.00    -0.368 C  
BRANCH   5   6
HETATM    6  C   UNL     1     -11.715  12.466  69.097  1.00  0.00    -0.376 C  
BRANCH   6   7
HETATM    7  C   UNL     1     -11.191  12.607  67.644  1.00  0.00    -0.283 C  
HETATM    8  O   UNL     1     -12.350  12.965  66.828  1.00  0.00    -0.405 OA 
HETATM    9  N   UNL     1      -7.436  18.046  65.736  1.00  0.00    -0.547 NA 
HETATM   10  C   UNL     1     -10.051  15.711  65.984  1.00  0.00    -0.355 A  
HETATM   11  C   UNL     1     -12.065  14.095  65.984  1.00  0.00    -0.432 C  
HETATM   12  C   UNL     1     -10.744  14.592  66.430  1.00  0.00    -0.309 A  
HETATM   13  C   UNL     1      -8.047  17.128  66.099  1.00  0.00    -0.248 C  
HETATM   14  C   UNL     1     -10.232  13.750  67.411  1.00  0.00    -0.252 A  
HETATM   15  C   UNL     1      -8.802  15.992  66.547  1.00  0.00    -0.340 A  
HETATM   16  C   UNL     1      -8.283  15.156  67.550  1.00  0.00    -0.196 A  
HETATM   17  C   UNL     1      -9.003  14.038  67.994  1.00  0.00    -0.182 A  
BRANCH   7  18
HETATM   18  C   UNL     1     -10.637  11.251  67.168  1.00  0.00    -0.274 A  
HETATM   19  C   UNL     1     -10.954  10.058  67.851  1.00  0.00    -0.311 A  
HETATM   20  F   UNL     1      -9.242   7.573  65.838  1.00  0.00    -0.191 F  
HETATM   21  C   UNL     1      -9.689   8.760  66.269  1.00  0.00    -0.272 A  
HETATM   22  C   UNL     1      -9.368   9.912  65.566  1.00  0.00    -0.280 A  
HETATM   23  C   UNL     1      -9.837  11.150  66.013  1.00  0.00    -0.270 A  
HETATM   24  C   UNL     1     -10.476   8.821  67.410  1.00  0.00    -0.349 A  
ENDBRANCH   7  18
ENDBRANCH   6   7
ENDBRANCH   5   6
ENDBRANCH   4   5
ENDBRANCH   2   4
TORSDOF 5
ENDMDL
MODEL       13
REMARK 921   NORMALIZED FREE ENERGY PREDICTED BY IDOCK:   -6.28 KCAL/MOL
REMARK 922        TOTAL FREE ENERGY PREDICTED BY IDOCK:   -8.99 KCAL/MOL
REMARK 923 INTER-LIGAND FREE ENERGY PREDICTED BY IDOCK:   -7.97 KCAL/MOL
REMARK 924 INTRA-LIGAND FREE ENERGY PREDICTED BY IDOCK:   -1.02 KCAL/MOL
REMARK 927      BINDING AFFINITY PREDICTED BY RF-SCORE:    0.00 PKD
ROOT
HETATM    1  C   UNL     1     -12.965  10.318  71.671  1.00  0.00    -0.465 C  
HETATM    2  N   UNL     1     -12.905  11.534  70.855  1.00  0.00    -0.255 NA 
HETATM    3  C   UNL     1     -12.968  12.710  71.725  1.00  0.00    -0.313 C  
ENDROOT
BRANCH   2   4
HETATM    4  C   UNL     1     -11.695  11.518  70.012  1.00  0.00    -0.332 C  
BRANCH   4   5
HETATM    5  C   UNL     1     -11.906  12.161  68.631  1.00  0.00    -0.358 C  
BRANCH   5   6
HETATM    6  C   UNL     1     -11.207  11.361  67.520  1.00  0.00    -0.356 C  
BRANCH   6   7
HETATM    7  C   UNL     1     -11.002  12.150  66.202  1.00  0.00    -0.298 C  
HETATM    8  O   UNL     1     -12.340  12.470  65.708  1.00  0.00    -0.627 OA 
HETATM    9  N   UNL     1      -8.835  18.679  66.276  1.00  0.00    -0.442 NA 
HETATM   10  C   UNL     1     -10.836  15.827  65.817  1.00  0.00    -0.286 A  
HETATM   11  C   UNL     1     -12.450  13.863  65.361  1.00  0.00    -0.501 C  
HETATM   12  C   UNL     1     -11.195  14.484  65.843  1.00  0.00    -0.331 A  
HETATM   13  C   UNL     1      -9.172  17.569  66.299  1.00  0.00    -0.203 C  
HETATM   14  C   UNL     1     -10.352  13.505  66.355  1.00  0.00    -0.289 A  
HETATM   15  C   UNL     1      -9.587  16.195  66.326  1.00  0.00    -0.334 A  
HETATM   16  C   UNL     1      -8.733  15.214  66.860  1.00  0.00    -0.289 A  
HETATM   17  C   UNL     1      -9.119  13.866  66.887  1.00  0.00    -0.257 A  
BRANCH   7  18
HETATM   18  C   UNL     1     -10.285  11.252  65.176  1.00  0.00    -0.344 A  
HETATM   19  C   UNL     1     -10.326  11.550  63.798  1.00  0.00    -0.450 A  
HETATM   20  F   UNL     1      -8.270   8.907  62.405  1.00  0.00    -0.136 F  
HETATM   21  C   UNL     1      -8.923   9.662  63.298  1.00  0.00    -0.227 A  
HETATM   22  C   UNL     1      -8.851   9.346  64.647  1.00  0.00    -0.238 A  
HETATM   23  C   UNL     1      -9.529  10.135  65.580  1.00  0.00    -0.275 A  
HETATM   24  C   UNL     1      -9.657  10.755  62.864  1.00  0.00    -0.366 A  
ENDBRANCH   7  18
ENDBRANCH   6   7
ENDBRANCH   5   6
ENDBRANCH   4   5
ENDBRANCH   2   4
TORSDOF 5
ENDMDL
MODEL       14
REMARK 921   NORMALIZED FREE ENERGY PREDICTED BY IDOCK:   -6.23 KCAL/MOL
REMARK 922        TOTAL FREE ENERGY PREDICTED BY IDOCK:   -8.93 KCAL/MOL
REMARK 923 INTER-LIGAND FREE ENERGY PREDICTED BY IDOCK:   -7.92 KCAL/MOL
REMARK 924 INTRA-LIGAND FREE ENERGY PREDICTED BY IDOCK:   -1.00 KCAL/MOL
REMARK 927      BINDING AFFINITY PREDICTED BY RF-SCORE:    0.00 PKD
ROOT
HETATM    1  C   UNL     1     -10.566  19.399  66.389  1.00  0.00    -0.463 C  
HETATM    2  N   UNL     1      -9.277  18.900  65.899  1.00  0.00    -0.411 NA 
HETATM    3  C   UNL     1      -8.226  19.871  66.213  1.00  0.00    -0.329 C  
ENDROOT
BRANCH   2   4
HETATM    4  C   UNL     1      -9.003  17.566  66.463  1.00  0.00    -0.261 C  
BRANCH   4   5
HETATM    5  C   UNL     1     -10.270  16.832  66.934  1.00  0.00    -0.290 C  
BRANCH   5   6
HETATM    6  C   UNL     1      -9.977  15.900  68.120  1.00  0.00    -0.222 C  
BRANCH   6   7
HETATM    7  C   UNL     1     -10.960  14.708  68.248  1.00  0.00    -0.252 C  
HETATM    8  O   UNL     1     -12.026  14.955  67.280  1.00  0.00    -0.316 OA 
HETATM    9  N   UNL     1      -9.349   8.497  65.766  1.00  0.00    -0.165 NA 
HETATM   10  C   UNL     1     -10.944  11.590  66.255  1.00  0.00    -0.328 A  
HETATM   11  C   UNL     1     -12.279  13.790  66.473  1.00  0.00    -0.430 C  
HETATM   12  C   UNL     1     -11.196  12.839  66.812  1.00  0.00    -0.338 A  
HETATM   13  C   UNL     1      -9.577   9.550  66.199  1.00  0.00    -0.239 C  
HETATM   14  C   UNL     1     -10.407  13.366  67.827  1.00  0.00    -0.241 A  
HETATM   15  C   UNL     1      -9.858  10.852  66.735  1.00  0.00    -0.231 A  
HETATM   16  C   UNL     1      -9.045  11.383  67.751  1.00  0.00    -0.158 A  
HETATM   17  C   UNL     1      -9.311  12.649  68.292  1.00  0.00    -0.195 A  
BRANCH   7  18
HETATM   18  C   UNL     1     -11.560  14.691  69.668  1.00  0.00    -0.349 A  
HETATM   19  C   UNL     1     -11.527  15.842  70.482  1.00  0.00    -0.412 A  
HETATM   20  F   UNL     1     -13.267  14.700  73.452  1.00  0.00    -0.566 F  
HETATM   21  C   UNL     1     -12.713  14.696  72.233  1.00  0.00    -0.335 A  
HETATM   22  C   UNL     1     -12.774  13.549  71.455  1.00  0.00    -0.423 A  
HETATM   23  C   UNL     1     -12.199  13.546  70.180  1.00  0.00    -0.400 A  
HETATM   24  C   UNL     1     -12.092  15.843  71.760  1.00  0.00    -0.567 A  
ENDBRANCH   7  18
ENDBRANCH   6   7
ENDBRANCH   5   6
ENDBRANCH   4   5
ENDBRANCH   2   4
TORSDOF 5
ENDMDL
MODEL       15
REMARK 921   NORMALIZED FREE ENERGY PREDICTED BY IDOCK:   -6.19 KCAL/MOL
REMARK 922        TOTAL FREE ENERGY PREDICTED BY IDOCK:   -8.87 KCAL/MOL
REMARK 923 INTER-LIGAND FREE ENERGY PREDICTED BY IDOCK:   -7.71 KCAL/MOL
REMARK 924 INTRA-LIGAND FREE ENERGY PREDICTED BY IDOCK:   -1.17 KCAL/MOL
REMARK 927      BINDING AFFINITY PREDICTED BY RF-SCORE:    0.00 PKD
ROOT
HETATM    1  C   UNL     1      -9.984   5.778  66.428  1.00  0.00    -0.131 C  
HETATM    2  N   UNL     1     -10.340   6.870  67.339  1.00  0.00    -0.202 NA 
HETATM    3  C   UNL     1     -11.051   6.328  68.499  1.00  0.00    -0.308 C  
ENDROOT
BRANCH   2   4
HETATM    4  C   UNL     1      -9.132   7.626  67.718  1.00  0.00    -0.130 C  
BRANCH   4   5
HETATM    5  C   UNL     1      -9.054   9.016  67.063  1.00  0.00    -0.155 C  
BRANCH   5   6
HETATM    6  C   UNL     1     -10.409   9.740  67.106  1.00  0.00    -0.311 C  
BRANCH   6   7
HETATM    7  C   UNL     1     -10.369  11.123  67.804  1.00  0.00    -0.187 C  
HETATM    8  O   UNL     1      -8.965  11.376  68.122  1.00  0.00    -0.156 OA 
HETATM    9  N   UNL     1     -11.207  16.933  64.217  1.00  0.00    -1.099 NA 
HETATM   10  C   UNL     1      -9.782  14.406  66.198  1.00  0.00    -0.335 A  
HETATM   11  C   UNL     1      -8.560  12.690  67.693  1.00  0.00    -0.180 C  
HETATM   12  C   UNL     1      -9.697  13.206  66.896  1.00  0.00    -0.243 A  
HETATM   13  C   UNL     1     -11.098  15.933  64.795  1.00  0.00    -0.384 C  
HETATM   14  C   UNL     1     -10.748  12.298  66.932  1.00  0.00    -0.264 A  
HETATM   15  C   UNL     1     -10.965  14.696  65.512  1.00  0.00    -0.344 A  
HETATM   16  C   UNL     1     -12.027  13.777  65.530  1.00  0.00    -0.404 A  
HETATM   17  C   UNL     1     -11.917  12.568  66.232  1.00  0.00    -0.410 A  
BRANCH   7  18
HETATM   18  C   UNL     1     -11.180  11.059  69.112  1.00  0.00    -0.318 A  
HETATM   19  C   UNL     1     -11.679  12.233  69.714  1.00  0.00    -0.368 A  
HETATM   20  F   UNL     1     -13.461  10.898  72.578  1.00  0.00    -0.440 F  
HETATM   21  C   UNL     1     -12.722  10.950  71.462  1.00  0.00    -0.428 A  
HETATM   22  C   UNL     1     -12.257   9.775  70.890  1.00  0.00    -0.390 A  
HETATM   23  C   UNL     1     -11.490   9.829  69.723  1.00  0.00    -0.145 A  
HETATM   24  C   UNL     1     -12.437  12.180  70.887  1.00  0.00    -0.374 A  
ENDBRANCH   7  18
ENDBRANCH   6   7
ENDBRANCH   5   6
ENDBRANCH   4   5
ENDBRANCH   2   4
TORSDOF 5
ENDMDL
MODEL       16
REMARK 921   NORMALIZED FREE ENERGY PREDICTED BY IDOCK:   -6.16 KCAL/MOL
REMARK 922        TOTAL FREE ENERGY PREDICTED BY IDOCK:   -8.83 KCAL/MOL
REMARK 923 INTER-LIGAND FREE ENERGY PREDICTED BY IDOCK:   -8.13 KCAL/MOL
REMARK 924 INTRA-LIGAND FREE ENERGY PREDICTED BY IDOCK:   -0.70 KCAL/MOL
REMARK 927      BINDING AFFINITY PREDICTED BY RF-SCORE:    0.00 PKD
ROOT
HETATM    1  C   UNL     1     -14.111  15.070  71.595  1.00  0.00    -0.525 C  
HETATM    2  N   UNL     1     -12.946  15.799  71.084  1.00  0.00    -0.480 NA 
HETATM    3  C   UNL     1     -11.886  15.796  72.094  1.00  0.00    -0.496 C  
ENDROOT
BRANCH   2   4
HETATM    4  C   UNL     1     -12.509  15.217  69.802  1.00  0.00    -0.186 C  
BRANCH   4   5
HETATM    5  C   UNL     1     -11.223  14.381  69.919  1.00  0.00    -0.226 C  
BRANCH   5   6
HETATM    6  C   UNL     1     -10.543  14.193  68.553  1.00  0.00    -0.257 C  
BRANCH   6   7
HETATM    7  C   UNL     1     -10.429  12.714  68.100  1.00  0.00    -0.231 C  
HETATM    8  O   UNL     1      -8.999  12.424  68.018  1.00  0.00    -0.181 OA 
HETATM    9  N   UNL     1     -11.822   7.555  72.431  1.00  0.00    -0.286 NA 
HETATM   10  C   UNL     1     -10.109   9.740  70.278  1.00  0.00    -0.323 A  
HETATM   11  C   UNL     1      -8.674  11.201  68.704  1.00  0.00    -0.153 C  
HETATM   12  C   UNL     1      -9.914  10.811  69.413  1.00  0.00    -0.137 A  
HETATM   13  C   UNL     1     -11.623   8.449  71.719  1.00  0.00    -0.308 C  
HETATM   14  C   UNL     1     -10.938  11.694  69.090  1.00  0.00    -0.270 A  
HETATM   15  C   UNL     1     -11.377   9.555  70.837  1.00  0.00    -0.410 A  
HETATM   16  C   UNL     1     -12.414  10.451  70.528  1.00  0.00    -0.403 A  
HETATM   17  C   UNL     1     -12.194  11.531  69.662  1.00  0.00    -0.296 A  
BRANCH   7  18
HETATM   18  C   UNL     1     -11.057  12.560  66.701  1.00  0.00    -0.327 A  
HETATM   19  C   UNL     1     -10.537  11.636  65.771  1.00  0.00    -0.320 A  
HETATM   20  F   UNL     1     -12.802  12.051  62.968  1.00  0.00    -0.635 F  
HETATM   21  C   UNL     1     -12.236  12.218  64.171  1.00  0.00    -0.446 A  
HETATM   22  C   UNL     1     -12.781  13.128  65.065  1.00  0.00    -0.456 A  
HETATM   23  C   UNL     1     -12.194  13.299  66.322  1.00  0.00    -0.440 A  
HETATM   24  C   UNL     1     -11.117  11.472  64.511  1.00  0.00    -0.340 A  
ENDBRANCH   7  18
ENDBRANCH   6   7
ENDBRANCH   5   6
ENDBRANCH   4   5
ENDBRANCH   2   4
TORSDOF 5
ENDMDL
MODEL       17
REMARK 921   NORMALIZED FREE ENERGY PREDICTED BY IDOCK:   -6.11 KCAL/MOL
REMARK 922        TOTAL FREE ENERGY PREDICTED BY IDOCK:   -8.78 KCAL/MOL
REMARK 923 INTER-LIGAND FREE ENERGY PREDICTED BY IDOCK:   -7.81 KCAL/MOL
REMARK 924 INTRA-LIGAND FREE ENERGY PREDICTED BY IDOCK:   -0.96 KCAL/MOL
REMARK 927      BINDING AFFINITY PREDICTED BY RF-SCORE:    0.00 PKD
ROOT
HETATM    1  C   UNL     1     -10.224  17.586  66.546  1.00  0.00    -0.342 C  
HETATM    2  N   UNL     1      -8.874  17.194  66.131  1.00  0.00    -0.477 NA 
HETATM    3  C   UNL     1      -8.013  18.377  66.086  1.00  0.00    -0.185 C  
ENDROOT
BRANCH   2   4
HETATM    4  C   UNL     1      -8.353  16.148  67.031  1.00  0.00    -0.215 C  
BRANCH   4   5
HETATM    5  C   UNL     1      -8.770  14.727  66.619  1.00  0.00    -0.229 C  
BRANCH   5   6
HETATM    6  C   UNL     1      -9.657  14.064  67.686  1.00  0.00    -0.221 C  
BRANCH   6   7
HETATM    7  C   UNL     1      -9.935  12.560  67.436  1.00  0.00    -0.207 C  
HETATM    8  O   UNL     1      -8.629  11.930  67.254  1.00  0.00    -0.156 OA 
HETATM    9  N   UNL     1     -11.872   8.407  72.567  1.00  0.00    -0.388 NA 
HETATM   10  C   UNL     1     -10.008   9.862  69.968  1.00  0.00    -0.302 A  
HETATM   11  C   UNL     1      -8.500  10.751  68.069  1.00  0.00    -0.124 C  
HETATM   12  C   UNL     1      -9.693  10.751  68.946  1.00  0.00    -0.207 A  
HETATM   13  C   UNL     1     -11.572   9.141  71.720  1.00  0.00    -0.387 C  
HETATM   14  C   UNL     1     -10.527  11.809  68.605  1.00  0.00    -0.242 A  
HETATM   15  C   UNL     1     -11.202  10.049  70.670  1.00  0.00    -0.425 A  
HETATM   16  C   UNL     1     -12.045  11.125  70.344  1.00  0.00    -0.475 A  
HETATM   17  C   UNL     1     -11.703  12.016  69.316  1.00  0.00    -0.389 A  
BRANCH   7  18
HETATM   18  C   UNL     1     -10.757  12.401  66.142  1.00  0.00    -0.292 A  
HETATM   19  C   UNL     1     -12.017  13.020  66.003  1.00  0.00    -0.498 A  
HETATM   20  F   UNL     1     -12.939  12.077  62.625  1.00  0.00    -0.283 F  
HETATM   21  C   UNL     1     -12.237  12.179  63.761  1.00  0.00    -0.531 A  
HETATM   22  C   UNL     1     -10.996  11.566  63.858  1.00  0.00    -0.474 A  
HETATM   23  C   UNL     1     -10.261  11.676  65.042  1.00  0.00    -0.321 A  
HETATM   24  C   UNL     1     -12.756  12.903  64.824  1.00  0.00    -0.442 A  
ENDBRANCH   7  18
ENDBRANCH   6   7
ENDBRANCH   5   6
ENDBRANCH   4   5
ENDBRANCH   2   4
TORSDOF 5
ENDMDL
MODEL       18
REMARK 921   NORMALIZED FREE ENERGY PREDICTED BY IDOCK:   -6.11 KCAL/MOL
REMARK 922        TOTAL FREE ENERGY PREDICTED BY IDOCK:   -8.77 KCAL/MOL
REMARK 923 INTER-LIGAND FREE ENERGY PREDICTED BY IDOCK:   -7.70 KCAL/MOL
REMARK 924 INTRA-LIGAND FREE ENERGY PREDICTED BY IDOCK:   -1.07 KCAL/MOL
REMARK 927      BINDING AFFINITY PREDICTED BY RF-SCORE:    0.00 PKD
ROOT
HETATM    1  C   UNL     1     -12.028   9.731  70.839  1.00  0.00    -0.328 C  
HETATM    2  N   UNL     1     -12.592  11.060  70.582  1.00  0.00    -0.344 NA 
HETATM    3  C   UNL     1     -13.045  11.650  71.843  1.00  0.00    -0.385 C  
ENDROOT
BRANCH   2   4
HETATM    4  C   UNL     1     -11.602  11.903  69.886  1.00  0.00    -0.256 C  
BRANCH   4   5
HETATM    5  C   UNL     1     -12.036  12.303  68.466  1.00  0.00    -0.272 C  
BRANCH   5   6
HETATM    6  C   UNL     1     -11.338  11.445  67.398  1.00  0.00    -0.359 C  
BRANCH   6   7
HETATM    7  C   UNL     1     -11.049  12.194  66.071  1.00  0.00    -0.313 C  
HETATM    8  O   UNL     1     -12.352  12.508  65.490  1.00  0.00    -0.600 OA 
HETATM    9  N   UNL     1      -8.836  18.708  66.085  1.00  0.00    -0.484 NA 
HETATM   10  C   UNL     1     -10.830  15.857  65.590  1.00  0.00    -0.292 A  
HETATM   11  C   UNL     1     -12.430  13.891  65.097  1.00  0.00    -0.453 C  
HETATM   12  C   UNL     1     -11.201  14.518  65.634  1.00  0.00    -0.335 A  
HETATM   13  C   UNL     1      -9.182  17.601  66.120  1.00  0.00    -0.119 C  
HETATM   14  C   UNL     1     -10.397  13.549  66.223  1.00  0.00    -0.293 A  
HETATM   15  C   UNL     1      -9.610  16.231  66.162  1.00  0.00    -0.362 A  
HETATM   16  C   UNL     1      -8.798  15.261  66.774  1.00  0.00    -0.302 A  
HETATM   17  C   UNL     1      -9.195  13.917  66.817  1.00  0.00    -0.267 A  
BRANCH   7  18
HETATM   18  C   UNL     1     -10.280  11.261  65.116  1.00  0.00    -0.344 A  
HETATM   19  C   UNL     1      -9.831   9.995  65.544  1.00  0.00    -0.373 A  
HETATM   20  F   UNL     1      -8.302   8.689  62.526  1.00  0.00    -0.163 F  
HETATM   21  C   UNL     1      -8.937   9.520  63.363  1.00  0.00    -0.176 A  
HETATM   22  C   UNL     1      -9.375  10.754  62.904  1.00  0.00    -0.355 A  
HETATM   23  C   UNL     1     -10.041  11.620  63.775  1.00  0.00    -0.416 A  
HETATM   24  C   UNL     1      -9.155   9.133  64.676  1.00  0.00    -0.110 A  
ENDBRANCH   7  18
ENDBRANCH   6   7
ENDBRANCH   5   6
ENDBRANCH   4   5
ENDBRANCH   2   4
TORSDOF 5
ENDMDL
MODEL       19
REMARK 921   NORMALIZED FREE ENERGY PREDICTED BY IDOCK:   -6.10 KCAL/MOL
REMARK 922        TOTAL FREE ENERGY PREDICTED BY IDOCK:   -8.76 KCAL/MOL
REMARK 923 INTER-LIGAND FREE ENERGY PREDICTED BY IDOCK:   -7.65 KCAL/MOL
REMARK 924 INTRA-LIGAND FREE ENERGY PREDICTED BY IDOCK:   -1.11 KCAL/MOL
REMARK 927      BINDING AFFINITY PREDICTED BY RF-SCORE:    0.00 PKD
ROOT
HETATM    1  C   UNL     1     -10.169   7.874  69.402  1.00  0.00    -0.206 C  
HETATM    2  N   UNL     1      -9.430   8.069  68.150  1.00  0.00    -0.143 NA 
HETATM    3  C   UNL     1     -10.376   8.246  67.047  1.00  0.00    -0.323 C  
ENDROOT
BRANCH   2   4
HETATM    4  C   UNL     1      -8.498   9.204  68.286  1.00  0.00    -0.125 C  
BRANCH   4   5
HETATM    5  C   UNL     1      -9.045  10.339  69.168  1.00  0.00    -0.199 C  
BRANCH   5   6
HETATM    6  C   UNL     1      -9.340  11.604  68.346  1.00  0.00    -0.191 C  
BRANCH   6   7
HETATM    7  C   UNL     1     -10.829  12.038  68.363  1.00  0.00    -0.233 C  
HETATM    8  O   UNL     1     -11.591  10.859  68.768  1.00  0.00    -0.279 OA 
HETATM    9  N   UNL     1     -13.292  16.067  73.366  1.00  0.00    -0.580 NA 
HETATM   10  C   UNL     1     -12.741  13.302  71.268  1.00  0.00    -0.411 A  
HETATM   11  C   UNL     1     -12.518  11.173  69.823  1.00  0.00    -0.162 C  
HETATM   12  C   UNL     1     -12.186  12.556  70.235  1.00  0.00    -0.345 A  
HETATM   13  C   UNL     1     -12.837  15.412  72.523  1.00  0.00    -0.397 C  
HETATM   14  C   UNL     1     -11.190  13.065  69.411  1.00  0.00    -0.209 A  
HETATM   15  C   UNL     1     -12.275  14.603  71.478  1.00  0.00    -0.416 A  
HETATM   16  C   UNL     1     -11.257  15.122  70.660  1.00  0.00    -0.321 A  
HETATM   17  C   UNL     1     -10.703  14.349  69.629  1.00  0.00    -0.084 A  
BRANCH   7  18
HETATM   18  C   UNL     1     -11.255  12.453  66.942  1.00  0.00    -0.359 A  
HETATM   19  C   UNL     1     -10.794  11.748  65.811  1.00  0.00    -0.341 A  
HETATM   20  F   UNL     1     -12.479  13.488  63.112  1.00  0.00    -0.563 F  
HETATM   21  C   UNL     1     -12.081  13.156  64.347  1.00  0.00    -0.410 A  
HETATM   22  C   UNL     1     -12.564  13.865  65.438  1.00  0.00    -0.538 A  
HETATM   23  C   UNL     1     -12.153  13.517  66.727  1.00  0.00    -0.425 A  
HETATM   24  C   UNL     1     -11.197  12.102  64.522  1.00  0.00    -0.385 A  
ENDBRANCH   7  18
ENDBRANCH   6   7
ENDBRANCH   5   6
ENDBRANCH   4   5
ENDBRANCH   2   4
TORSDOF 5
ENDMDL
MODEL       20
REMARK 921   NORMALIZED FREE ENERGY PREDICTED BY IDOCK:   -6.09 KCAL/MOL
REMARK 922        TOTAL FREE ENERGY PREDICTED BY IDOCK:   -8.74 KCAL/MOL
REMARK 923 INTER-LIGAND FREE ENERGY PREDICTED BY IDOCK:   -7.73 KCAL/MOL
REMARK 924 INTRA-LIGAND FREE ENERGY PREDICTED BY IDOCK:   -1.01 KCAL/MOL
REMARK 927      BINDING AFFINITY PREDICTED BY RF-SCORE:    0.00 PKD
ROOT
HETATM    1  C   UNL     1     -11.363   8.789  71.999  1.00  0.00    -0.371 C  
HETATM    2  N   UNL     1     -12.133   9.578  71.032  1.00  0.00    -0.310 NA 
HETATM    3  C   UNL     1     -12.976  10.538  71.747  1.00  0.00    -0.476 C  
ENDROOT
BRANCH   2   4
HETATM    4  C   UNL     1     -11.223  10.228  70.072  1.00  0.00    -0.311 C  
BRANCH   4   5
HETATM    5  C   UNL     1     -11.548  11.712  69.832  1.00  0.00    -0.366 C  
BRANCH   5   6
HETATM    6  C   UNL     1     -10.506  12.381  68.922  1.00  0.00    -0.118 C  
BRANCH   6   7
HETATM    7  C   UNL     1     -11.038  13.614  68.147  1.00  0.00    -0.256 C  
HETATM    8  O   UNL     1     -12.216  14.076  68.879  1.00  0.00    -0.345 OA 
HETATM    9  N   UNL     1      -7.772  19.662  68.425  1.00  0.00    -0.332 NA 
HETATM   10  C   UNL     1     -10.218  17.165  68.787  1.00  0.00    -0.332 A  
HETATM   11  C   UNL     1     -12.159  15.494  69.116  1.00  0.00    -0.240 C  
HETATM   12  C   UNL     1     -10.801  15.906  68.694  1.00  0.00    -0.291 A  
HETATM   13  C   UNL     1      -8.281  18.620  68.378  1.00  0.00    -0.334 C  
HETATM   14  C   UNL     1     -10.128  14.820  68.149  1.00  0.00    -0.221 A  
HETATM   15  C   UNL     1      -8.912  17.332  68.317  1.00  0.00    -0.262 A  
HETATM   16  C   UNL     1      -8.217  16.235  67.778  1.00  0.00    -0.158 A  
HETATM   17  C   UNL     1      -8.821  14.971  67.703  1.00  0.00    -0.183 A  
BRANCH   7  18
HETATM   18  C   UNL     1     -11.460  13.182  66.729  1.00  0.00    -0.386 A  
HETATM   19  C   UNL     1     -10.885  12.050  66.115  1.00  0.00    -0.325 A  
HETATM   20  F   UNL     1     -12.663  11.937  62.955  1.00  0.00    -0.657 F  
HETATM   21  C   UNL     1     -12.272  12.341  64.171  1.00  0.00    -0.446 A  
HETATM   22  C   UNL     1     -12.868  13.452  64.750  1.00  0.00    -0.222 A  
HETATM   23  C   UNL     1     -12.463  13.871  66.021  1.00  0.00    -0.501 A  
HETATM   24  C   UNL     1     -11.282  11.637  64.840  1.00  0.00    -0.287 A  
ENDBRANCH   7  18
ENDBRANCH   6   7
ENDBRANCH   5   6
ENDBRANCH   4   5
ENDBRANCH   2   4
TORSDOF 5
ENDMDL
MODEL       21
REMARK 921   NORMALIZED FREE ENERGY PREDICTED BY IDOCK:   -6.08 KCAL/MOL
REMARK 922        TOTAL FREE ENERGY PREDICTED BY IDOCK:   -8.73 KCAL/MOL
REMARK 923 INTER-LIGAND FREE ENERGY PREDICTED BY IDOCK:   -7.69 KCAL/MOL
REMARK 924 INTRA-LIGAND FREE ENERGY PREDICTED BY IDOCK:   -1.04 KCAL/MOL
REMARK 927      BINDING AFFINITY PREDICTED BY RF-SCORE:    0.00 PKD
ROOT
HETATM    1  C   UNL     1      -8.003   6.878  63.682  1.00  0.00    -0.062 C  
HETATM    2  N   UNL     1      -7.849   8.281  64.081  1.00  0.00    -0.139 NA 
HETATM    3  C   UNL     1      -8.475   9.145  63.078  1.00  0.00    -0.206 C  
ENDROOT
BRANCH   2   4
HETATM    4  C   UNL     1      -8.403   8.486  65.431  1.00  0.00    -0.156 C  
BRANCH   4   5
HETATM    5  C   UNL     1      -9.505   9.557  65.481  1.00  0.00    -0.334 C  
BRANCH   5   6
HETATM    6  C   UNL     1     -10.261   9.530  66.819  1.00  0.00    -0.313 C  
BRANCH   6   7
HETATM    7  C   UNL     1     -10.287  10.892  67.561  1.00  0.00    -0.202 C  
HETATM    8  O   UNL     1      -8.897  11.205  67.884  1.00  0.00    -0.130 OA 
HETATM    9  N   UNL     1     -11.430  16.762  64.160  1.00  0.00    -1.096 NA 
HETATM   10  C   UNL     1      -9.872  14.248  66.058  1.00  0.00    -0.336 A  
HETATM   11  C   UNL     1      -8.561  12.550  67.495  1.00  0.00    -0.183 C  
HETATM   12  C   UNL     1      -9.724  13.034  66.718  1.00  0.00    -0.248 A  
HETATM   13  C   UNL     1     -11.269  15.751  64.706  1.00  0.00    -0.366 C  
HETATM   14  C   UNL     1     -10.728  12.073  66.727  1.00  0.00    -0.280 A  
HETATM   15  C   UNL     1     -11.071  14.500  65.383  1.00  0.00    -0.345 A  
HETATM   16  C   UNL     1     -12.086  13.529  65.374  1.00  0.00    -0.447 A  
HETATM   17  C   UNL     1     -11.913  12.305  66.038  1.00  0.00    -0.342 A  
BRANCH   7  18
HETATM   18  C   UNL     1     -11.090  10.746  68.868  1.00  0.00    -0.307 A  
HETATM   19  C   UNL     1     -11.138   9.515  69.556  1.00  0.00    -0.168 A  
HETATM   20  F   UNL     1     -13.156  10.360  72.448  1.00  0.00    -0.503 F  
HETATM   21  C   UNL     1     -12.492  10.483  71.291  1.00  0.00    -0.419 A  
HETATM   22  C   UNL     1     -12.457  11.712  70.648  1.00  0.00    -0.386 A  
HETATM   23  C   UNL     1     -11.761  11.842  69.443  1.00  0.00    -0.401 A  
HETATM   24  C   UNL     1     -11.842   9.382  70.755  1.00  0.00    -0.323 A  
ENDBRANCH   7  18
ENDBRANCH   6   7
ENDBRANCH   5   6
ENDBRANCH   4   5
ENDBRANCH   2   4
TORSDOF 5
ENDMDL
MODEL       22
REMARK 921   NORMALIZED FREE ENERGY PREDICTED BY IDOCK:   -6.08 KCAL/MOL
REMARK 922        TOTAL FREE ENERGY PREDICTED BY IDOCK:   -8.73 KCAL/MOL
REMARK 923 INTER-LIGAND FREE ENERGY PREDICTED BY IDOCK:   -7.78 KCAL/MOL
REMARK 924 INTRA-LIGAND FREE ENERGY PREDICTED BY IDOCK:   -0.95 KCAL/MOL
REMARK 927      BINDING AFFINITY PREDICTED BY RF-SCORE:    0.00 PKD
ROOT
HETATM    1  C   UNL     1     -12.419  12.095  63.528  1.00  0.00    -0.555 C  
HETATM    2  N   UNL     1     -10.954  12.071  63.596  1.00  0.00    -0.413 NA 
HETATM    3  C   UNL     1     -10.476  13.290  64.251  1.00  0.00    -0.352 C  
ENDROOT
BRANCH   2   4
HETATM    4  C   UNL     1     -10.500  10.846  64.279  1.00  0.00    -0.335 C  
BRANCH   4   5
HETATM    5  C   UNL     1      -9.655  11.125  65.533  1.00  0.00    -0.263 C  
BRANCH   5   6
HETATM    6  C   UNL     1     -10.371  10.666  66.813  1.00  0.00    -0.299 C  
BRANCH   6   7
HETATM    7  C   UNL     1     -10.073  11.542  68.057  1.00  0.00    -0.186 C  
HETATM    8  O   UNL     1      -8.618  11.562  68.199  1.00  0.00    -0.142 OA 
HETATM    9  N   UNL     1     -10.729  18.385  67.819  1.00  0.00    -0.394 NA 
HETATM   10  C   UNL     1      -9.341  15.169  68.097  1.00  0.00    -0.192 A  
HETATM   11  C   UNL     1      -8.129  12.905  68.369  1.00  0.00    -0.130 C  
HETATM   12  C   UNL     1      -9.298  13.780  68.125  1.00  0.00    -0.211 A  
HETATM   13  C   UNL     1     -10.656  17.227  67.832  1.00  0.00    -0.384 C  
HETATM   14  C   UNL     1     -10.432  13.003  67.920  1.00  0.00    -0.234 A  
HETATM   15  C   UNL     1     -10.567  15.795  67.850  1.00  0.00    -0.282 A  
HETATM   16  C   UNL     1     -11.716  15.017  67.626  1.00  0.00    -0.281 A  
HETATM   17  C   UNL     1     -11.649  13.617  67.649  1.00  0.00    -0.381 A  
BRANCH   7  18
HETATM   18  C   UNL     1     -10.693  10.885  69.305  1.00  0.00    -0.271 A  
HETATM   19  C   UNL     1     -11.981  11.249  69.751  1.00  0.00    -0.431 A  
HETATM   20  F   UNL     1     -12.428   9.049  72.600  1.00  0.00    -0.425 F  
HETATM   21  C   UNL     1     -11.867   9.644  71.539  1.00  0.00    -0.407 A  
HETATM   22  C   UNL     1     -10.604   9.252  71.120  1.00  0.00    -0.402 A  
HETATM   23  C   UNL     1     -10.020   9.870  70.011  1.00  0.00    -0.302 A  
HETATM   24  C   UNL     1     -12.560  10.639  70.867  1.00  0.00    -0.503 A  
ENDBRANCH   7  18
ENDBRANCH   6   7
ENDBRANCH   5   6
ENDBRANCH   4   5
ENDBRANCH   2   4
TORSDOF 5
ENDMDL
MODEL       23
REMARK 921   NORMALIZED FREE ENERGY PREDICTED BY IDOCK:   -6.00 KCAL/MOL
REMARK 922        TOTAL FREE ENERGY PREDICTED BY IDOCK:   -8.63 KCAL/MOL
REMARK 923 INTER-LIGAND FREE ENERGY PREDICTED BY IDOCK:   -7.97 KCAL/MOL
REMARK 924 INTRA-LIGAND FREE ENERGY PREDICTED BY IDOCK:   -0.66 KCAL/MOL
REMARK 927      BINDING AFFINITY PREDICTED BY RF-SCORE:    0.00 PKD
ROOT
HETATM    1  C   UNL     1     -10.304  11.505  63.456  1.00  0.00    -0.433 C  
HETATM    2  N   UNL     1     -11.334  12.545  63.362  1.00  0.00    -0.467 NA 
HETATM    3  C   UNL     1     -12.659  11.932  63.480  1.00  0.00    -0.459 C  
ENDROOT
BRANCH   2   4
HETATM    4  C   UNL     1     -11.097  13.584  64.380  1.00  0.00    -0.380 C  
BRANCH   4   5
HETATM    5  C   UNL     1     -11.932  13.387  65.657  1.00  0.00    -0.439 C  
BRANCH   5   6
HETATM    6  C   UNL     1     -11.992  14.672  66.499  1.00  0.00    -0.284 C  
BRANCH   6   7
HETATM    7  C   UNL     1     -11.304  14.556  67.884  1.00  0.00    -0.310 C  
HETATM    8  O   UNL     1     -11.870  15.622  68.708  1.00  0.00    -0.370 OA 
HETATM    9  N   UNL     1     -12.954   9.505  72.253  1.00  0.00    -0.400 NA 
HETATM   10  C   UNL     1     -12.543  12.692  70.831  1.00  0.00    -0.338 A  
HETATM   11  C   UNL     1     -12.299  15.121  69.987  1.00  0.00    -0.315 C  
HETATM   12  C   UNL     1     -12.183  13.648  69.888  1.00  0.00    -0.367 A  
HETATM   13  C   UNL     1     -12.680  10.327  71.481  1.00  0.00    -0.452 C  
HETATM   14  C   UNL     1     -11.627  13.302  68.662  1.00  0.00    -0.362 A  
HETATM   15  C   UNL     1     -12.338  11.343  70.526  1.00  0.00    -0.439 A  
HETATM   16  C   UNL     1     -11.791  10.982  69.283  1.00  0.00    -0.411 A  
HETATM   17  C   UNL     1     -11.444  11.962  68.341  1.00  0.00    -0.357 A  
BRANCH   7  18
HETATM   18  C   UNL     1      -9.790  14.790  67.723  1.00  0.00    -0.214 A  
HETATM   19  C   UNL     1      -9.294  15.690  66.756  1.00  0.00    -0.268 A  
HETATM   20  F   UNL     1      -5.720  15.518  67.347  1.00  0.00    -0.147 F  
HETATM   21  C   UNL     1      -7.032  15.281  67.465  1.00  0.00    -0.196 A  
HETATM   22  C   UNL     1      -7.486  14.398  68.435  1.00  0.00    -0.119 A  
HETATM   23  C   UNL     1      -8.856  14.153  68.562  1.00  0.00    -0.173 A  
HETATM   24  C   UNL     1      -7.924  15.927  66.622  1.00  0.00    -0.270 A  
ENDBRANCH   7  18
ENDBRANCH   6   7
ENDBRANCH   5   6
ENDBRANCH   4   5
ENDBRANCH   2   4
TORSDOF 5
ENDMDL
MODEL       24
REMARK 921   NORMALIZED FREE ENERGY PREDICTED BY IDOCK:   -5.92 KCAL/MOL
REMARK 922        TOTAL FREE ENERGY PREDICTED BY IDOCK:   -8.52 KCAL/MOL
REMARK 923 INTER-LIGAND FREE ENERGY PREDICTED BY IDOCK:   -7.82 KCAL/MOL
REMARK 924 INTRA-LIGAND FREE ENERGY PREDICTED BY IDOCK:   -0.70 KCAL/MOL
REMARK 927      BINDING AFFINITY PREDICTED BY RF-SCORE:    0.00 PKD
ROOT
HETATM    1  C   UNL     1     -11.957  12.277  65.687  1.00  0.00    -0.306 C  
HETATM    2  N   UNL     1     -11.462  13.136  64.606  1.00  0.00    -0.319 NA 
HETATM    3  C   UNL     1     -12.150  12.795  63.359  1.00  0.00    -0.534 C  
ENDROOT
BRANCH   2   4
HETATM    4  C   UNL     1     -11.624  14.554  64.973  1.00  0.00    -0.382 C  
BRANCH   4   5
HETATM    5  C   UNL     1     -10.294  15.255  65.297  1.00  0.00    -0.430 C  
BRANCH   5   6
HETATM    6  C   UNL     1     -10.479  16.366  66.343  1.00  0.00    -0.288 C  
BRANCH   6   7
HETATM    7  C   UNL     1      -9.683  16.141  67.655  1.00  0.00    -0.233 C  
HETATM    8  O   UNL     1      -8.611  15.205  67.324  1.00  0.00    -0.172 OA 
HETATM    9  N   UNL     1      -5.478  20.991  70.128  1.00  0.00    -0.547 NA 
HETATM   10  C   UNL     1      -6.670  17.978  68.768  1.00  0.00    -0.248 A  
HETATM   11  C   UNL     1      -7.338  15.678  67.803  1.00  0.00    -0.150 C  
HETATM   12  C   UNL     1      -7.589  17.058  68.277  1.00  0.00    -0.213 A  
HETATM   13  C   UNL     1      -6.217  20.206  69.698  1.00  0.00    -0.342 C  
HETATM   14  C   UNL     1      -8.944  17.351  68.177  1.00  0.00    -0.260 A  
HETATM   15  C   UNL     1      -7.132  19.236  69.168  1.00  0.00    -0.370 A  
HETATM   16  C   UNL     1      -8.498  19.546  69.057  1.00  0.00    -0.217 A  
HETATM   17  C   UNL     1      -9.408  18.608  68.549  1.00  0.00    -0.379 A  
BRANCH   7  18
HETATM   18  C   UNL     1     -10.607  15.500  68.709  1.00  0.00    -0.242 A  
HETATM   19  C   UNL     1     -10.970  16.202  69.877  1.00  0.00    -0.362 A  
HETATM   20  F   UNL     1     -13.181  13.833  71.507  1.00  0.00    -0.386 F  
HETATM   21  C   UNL     1     -12.348  14.370  70.606  1.00  0.00    -0.351 A  
HETATM   22  C   UNL     1     -12.021  13.656  69.462  1.00  0.00    -0.397 A  
HETATM   23  C   UNL     1     -11.155  14.217  68.520  1.00  0.00    -0.276 A  
HETATM   24  C   UNL     1     -11.828  15.637  70.825  1.00  0.00    -0.421 A  
ENDBRANCH   7  18
ENDBRANCH   6   7
ENDBRANCH   5   6
ENDBRANCH   4   5
ENDBRANCH   2   4
TORSDOF 5
ENDMDL
MODEL       25
REMARK 921   NORMALIZED FREE ENERGY PREDICTED BY IDOCK:   -5.84 KCAL/MOL
REMARK 922        TOTAL FREE ENERGY PREDICTED BY IDOCK:   -8.42 KCAL/MOL
REMARK 923 INTER-LIGAND FREE ENERGY PREDICTED BY IDOCK:   -7.22 KCAL/MOL
REMARK 924 INTRA-LIGAND FREE ENERGY PREDICTED BY IDOCK:   -1.20 KCAL/MOL
REMARK 927      BINDING AFFINITY PREDICTED BY RF-SCORE:    0.00 PKD
ROOT
HETATM    1  C   UNL     1      -8.753  18.238  67.320  1.00  0.00    -0.255 C  
HETATM    2  N   UNL     1     -10.213  18.207  67.195  1.00  0.00    -0.350 NA 
HETATM    3  C   UNL     1     -10.734  19.575  67.207  1.00  0.00    -0.484 C  
ENDROOT
BRANCH   2   4
HETATM    4  C   UNL     1     -10.601  17.463  65.983  1.00  0.00    -0.210 C  
BRANCH   4   5
HETATM    5  C   UNL     1     -10.087  16.014  65.966  1.00  0.00    -0.362 C  
BRANCH   5   6
HETATM    6  C   UNL     1     -11.117  15.040  66.561  1.00  0.00    -0.329 C  
BRANCH   6   7
HETATM    7  C   UNL     1     -10.649  14.339  67.862  1.00  0.00    -0.240 C  
HETATM    8  O   UNL     1      -9.271  14.774  68.085  1.00  0.00    -0.185 OA 
HETATM    9  N   UNL     1     -12.914  16.405  74.020  1.00  0.00    -0.663 NA 
HETATM   10  C   UNL     1     -10.805  15.699  71.300  1.00  0.00    -0.042 A  
HETATM   11  C   UNL     1      -9.079  15.225  69.439  1.00  0.00    -0.228 C  
HETATM   12  C   UNL     1     -10.434  15.263  70.033  1.00  0.00    -0.266 A  
HETATM   13  C   UNL     1     -12.575  16.064  72.964  1.00  0.00    -0.503 C  
HETATM   14  C   UNL     1     -11.362  14.772  69.122  1.00  0.00    -0.302 A  
HETATM   15  C   UNL     1     -12.155  15.640  71.658  1.00  0.00    -0.496 A  
HETATM   16  C   UNL     1     -13.102  15.160  70.738  1.00  0.00    -0.450 A  
HETATM   17  C   UNL     1     -12.709  14.734  69.461  1.00  0.00     0.098 A  
BRANCH   7  18
HETATM   18  C   UNL     1     -10.670  12.812  67.654  1.00  0.00    -0.236 A  
HETATM   19  C   UNL     1     -10.918  11.937  68.732  1.00  0.00    -0.280 A  
HETATM   20  F   UNL     1     -10.839   8.702  67.094  1.00  0.00    -0.359 F  
HETATM   21  C   UNL     1     -10.781  10.027  67.276  1.00  0.00    -0.244 A  
HETATM   22  C   UNL     1     -10.546  10.859  66.191  1.00  0.00    -0.270 A  
HETATM   23  C   UNL     1     -10.490  12.243  66.379  1.00  0.00    -0.263 A  
HETATM   24  C   UNL     1     -10.964  10.553  68.546  1.00  0.00    -0.300 A  
ENDBRANCH   7  18
ENDBRANCH   6   7
ENDBRANCH   5   6
ENDBRANCH   4   5
ENDBRANCH   2   4
TORSDOF 5
ENDMDL
MODEL       26
REMARK 921   NORMALIZED FREE ENERGY PREDICTED BY IDOCK:   -5.83 KCAL/MOL
REMARK 922        TOTAL FREE ENERGY PREDICTED BY IDOCK:   -8.40 KCAL/MOL
REMARK 923 INTER-LIGAND FREE ENERGY PREDICTED BY IDOCK:   -6.98 KCAL/MOL
REMARK 924 INTRA-LIGAND FREE ENERGY PREDICTED BY IDOCK:   -1.42 KCAL/MOL
REMARK 927      BINDING AFFINITY PREDICTED BY RF-SCORE:    0.00 PKD
ROOT
HETATM    1  C   UNL     1     -12.470  13.888  65.515  1.00  0.00    -0.511 C  
HETATM    2  N   UNL     1     -11.195  13.968  64.795  1.00  0.00    -0.359 NA 
HETATM    3  C   UNL     1     -10.389  15.058  65.348  1.00  0.00    -0.383 C  
ENDROOT
BRANCH   2   4
HETATM    4  C   UNL     1     -10.502  12.668  64.849  1.00  0.00    -0.309 C  
BRANCH   4   5
HETATM    5  C   UNL     1     -11.233  11.623  65.708  1.00  0.00    -0.290 C  
BRANCH   5   6
HETATM    6  C   UNL     1     -10.316  11.042  66.797  1.00  0.00    -0.284 C  
BRANCH   6   7
HETATM    7  C   UNL     1     -10.631  11.547  68.228  1.00  0.00    -0.200 C  
HETATM    8  O   UNL     1     -12.082  11.716  68.289  1.00  0.00    -0.552 OA 
HETATM    9  N   UNL     1     -10.315   7.307  73.636  1.00  0.00    -0.362 NA 
HETATM   10  C   UNL     1     -11.538   9.483  71.163  1.00  0.00    -0.439 A  
HETATM   11  C   UNL     1     -12.632  11.087  69.461  1.00  0.00     0.066 C  
HETATM   12  C   UNL     1     -11.512  10.323  70.056  1.00  0.00    -0.367 A  
HETATM   13  C   UNL     1     -10.331   8.001  72.706  1.00  0.00    -0.339 C  
HETATM   14  C   UNL     1     -10.346  10.562  69.338  1.00  0.00    -0.258 A  
HETATM   15  C   UNL     1     -10.349   8.861  71.557  1.00  0.00    -0.394 A  
HETATM   16  C   UNL     1      -9.168   9.084  70.828  1.00  0.00    -0.299 A  
HETATM   17  C   UNL     1      -9.166   9.928  69.708  1.00  0.00    -0.252 A  
BRANCH   7  18
HETATM   18  C   UNL     1      -9.953  12.913  68.448  1.00  0.00    -0.211 A  
HETATM   19  C   UNL     1     -10.663  13.991  69.017  1.00  0.00    -0.232 A  
HETATM   20  F   UNL     1      -8.114  16.568  69.151  1.00  0.00    -0.227 F  
HETATM   21  C   UNL     1      -8.709  15.390  68.921  1.00  0.00    -0.208 A  
HETATM   22  C   UNL     1      -7.977  14.348  68.372  1.00  0.00    -0.141 A  
HETATM   23  C   UNL     1      -8.596  13.117  68.135  1.00  0.00    -0.181 A  
HETATM   24  C   UNL     1     -10.048  15.225  69.243  1.00  0.00    -0.252 A  
ENDBRANCH   7  18
ENDBRANCH   6   7
ENDBRANCH   5   6
ENDBRANCH   4   5
ENDBRANCH   2   4
TORSDOF 5
ENDMDL
MODEL       27
REMARK 921   NORMALIZED FREE ENERGY PREDICTED BY IDOCK:   -5.79 KCAL/MOL
REMARK 922        TOTAL FREE ENERGY PREDICTED BY IDOCK:   -8.36 KCAL/MOL
REMARK 923 INTER-LIGAND FREE ENERGY PREDICTED BY IDOCK:   -7.33 KCAL/MOL
REMARK 924 INTRA-LIGAND FREE ENERGY PREDICTED BY IDOCK:   -1.03 KCAL/MOL
REMARK 927      BINDING AFFINITY PREDICTED BY RF-SCORE:    0.00 PKD
ROOT
HETATM    1  C   UNL     1     -13.386   9.842  71.823  1.00  0.00    -0.404 C  
HETATM    2  N   UNL     1     -12.104  10.307  71.284  1.00  0.00    -0.377 NA 
HETATM    3  C   UNL     1     -11.097   9.256  71.442  1.00  0.00    -0.367 C  
ENDROOT
BRANCH   2   4
HETATM    4  C   UNL     1     -12.269  10.728  69.881  1.00  0.00    -0.313 C  
BRANCH   4   5
HETATM    5  C   UNL     1     -11.497  12.013  69.535  1.00  0.00    -0.351 C  
BRANCH   5   6
HETATM    6  C   UNL     1     -10.397  11.750  68.494  1.00  0.00    -0.228 C  
BRANCH   6   7
HETATM    7  C   UNL     1     -10.641  12.438  67.126  1.00  0.00    -0.224 C  
HETATM    8  O   UNL     1     -12.085  12.636  67.023  1.00  0.00    -0.480 OA 
HETATM    9  N   UNL     1      -9.075  19.066  66.159  1.00  0.00    -0.463 NA 
HETATM   10  C   UNL     1     -10.888  16.073  66.480  1.00  0.00    -0.167 A  
HETATM   11  C   UNL     1     -12.401  13.986  66.636  1.00  0.00    -0.371 C  
HETATM   12  C   UNL     1     -11.115  14.718  66.693  1.00  0.00    -0.333 A  
HETATM   13  C   UNL     1      -9.301  17.944  66.348  1.00  0.00    -0.255 C  
HETATM   14  C   UNL     1     -10.085  13.837  66.999  1.00  0.00    -0.256 A  
HETATM   15  C   UNL     1      -9.579  16.554  66.580  1.00  0.00    -0.275 A  
HETATM   16  C   UNL     1      -8.533  15.674  66.904  1.00  0.00    -0.286 A  
HETATM   17  C   UNL     1      -8.785  14.312  67.126  1.00  0.00    -0.243 A  
BRANCH   7  18
HETATM   18  C   UNL     1     -10.176  11.501  65.994  1.00  0.00    -0.283 A  
HETATM   19  C   UNL     1     -10.167  11.935  64.652  1.00  0.00    -0.316 A  
HETATM   20  F   UNL     1      -8.826   9.030  62.943  1.00  0.00    -0.217 F  
HETATM   21  C   UNL     1      -9.265   9.826  63.927  1.00  0.00    -0.198 A  
HETATM   22  C   UNL     1      -9.250   9.371  65.237  1.00  0.00    -0.299 A  
HETATM   23  C   UNL     1      -9.704  10.202  66.265  1.00  0.00    -0.274 A  
HETATM   24  C   UNL     1      -9.723  11.100  63.624  1.00  0.00    -0.352 A  
ENDBRANCH   7  18
ENDBRANCH   6   7
ENDBRANCH   5   6
ENDBRANCH   4   5
ENDBRANCH   2   4
TORSDOF 5
ENDMDL
MODEL       28
REMARK 921   NORMALIZED FREE ENERGY PREDICTED BY IDOCK:   -5.79 KCAL/MOL
REMARK 922        TOTAL FREE ENERGY PREDICTED BY IDOCK:   -8.35 KCAL/MOL
REMARK 923 INTER-LIGAND FREE ENERGY PREDICTED BY IDOCK:   -7.32 KCAL/MOL
REMARK 924 INTRA-LIGAND FREE ENERGY PREDICTED BY IDOCK:   -1.03 KCAL/MOL
REMARK 927      BINDING AFFINITY PREDICTED BY RF-SCORE:    0.00 PKD
ROOT
HETATM    1  C   UNL     1      -8.647  19.694  68.433  1.00  0.00    -0.315 C  
HETATM    2  N   UNL     1      -8.767  20.009  67.006  1.00  0.00    -0.323 NA 
HETATM    3  C   UNL     1      -7.600  19.489  66.291  1.00  0.00    -0.291 C  
ENDROOT
BRANCH   2   4
HETATM    4  C   UNL     1     -10.037  19.481  66.477  1.00  0.00    -0.439 C  
BRANCH   4   5
HETATM    5  C   UNL     1     -10.636  18.357  67.340  1.00  0.00    -0.445 C  
BRANCH   5   6
HETATM    6  C   UNL     1     -10.784  17.050  66.544  1.00  0.00    -0.073 C  
BRANCH   6   7
HETATM    7  C   UNL     1     -10.476  15.771  67.364  1.00  0.00    -0.297 C  
HETATM    8  O   UNL     1      -9.057  15.840  67.707  1.00  0.00    -0.187 OA 
HETATM    9  N   UNL     1     -12.614  15.122  73.870  1.00  0.00    -0.562 NA 
HETATM   10  C   UNL     1     -10.543  15.421  71.047  1.00  0.00     0.077 A  
HETATM   11  C   UNL     1      -8.845  15.589  69.108  1.00  0.00    -0.253 C  
HETATM   12  C   UNL     1     -10.199  15.559  69.707  1.00  0.00    -0.301 A  
HETATM   13  C   UNL     1     -12.294  15.253  72.763  1.00  0.00    -0.396 C  
HETATM   14  C   UNL     1     -11.158  15.685  68.709  1.00  0.00    -0.307 A  
HETATM   15  C   UNL     1     -11.898  15.413  71.392  1.00  0.00    -0.443 A  
HETATM   16  C   UNL     1     -12.874  15.555  70.391  1.00  0.00    -0.327 A  
HETATM   17  C   UNL     1     -12.506  15.704  69.046  1.00  0.00     0.216 A  
BRANCH   7  18
HETATM   18  C   UNL     1     -10.724  14.530  66.485  1.00  0.00    -0.312 A  
HETATM   19  C   UNL     1     -10.251  14.475  65.157  1.00  0.00    -0.420 A  
HETATM   20  F   UNL     1     -11.285  11.153  64.135  1.00  0.00    -0.416 F  
HETATM   21  C   UNL     1     -11.107  12.244  64.892  1.00  0.00    -0.311 A  
HETATM   22  C   UNL     1     -11.576  12.258  66.197  1.00  0.00    -0.450 A  
HETATM   23  C   UNL     1     -11.387  13.394  66.989  1.00  0.00    -0.346 A  
HETATM   24  C   UNL     1     -10.449  13.344  64.362  1.00  0.00    -0.403 A  
ENDBRANCH   7  18
ENDBRANCH   6   7
ENDBRANCH   5   6
ENDBRANCH   4   5
ENDBRANCH   2   4
TORSDOF 5
ENDMDL
MODEL       29
REMARK 921   NORMALIZED FREE ENERGY PREDICTED BY IDOCK:   -5.76 KCAL/MOL
REMARK 922        TOTAL FREE ENERGY PREDICTED BY IDOCK:   -8.32 KCAL/MOL
REMARK 923 INTER-LIGAND FREE ENERGY PREDICTED BY IDOCK:   -7.31 KCAL/MOL
REMARK 924 INTRA-LIGAND FREE ENERGY PREDICTED BY IDOCK:   -1.01 KCAL/MOL
REMARK 927      BINDING AFFINITY PREDICTED BY RF-SCORE:    0.00 PKD
ROOT
HETATM    1  C   UNL     1     -13.873   8.886  72.108  1.00  0.00    -0.473 C  
HETATM    2  N   UNL     1     -12.593   9.601  72.122  1.00  0.00    -0.342 NA 
HETATM    3  C   UNL     1     -11.494   8.636  72.041  1.00  0.00    -0.367 C  
ENDROOT
BRANCH   2   4
HETATM    4  C   UNL     1     -12.556  10.594  71.034  1.00  0.00    -0.416 C  
BRANCH   4   5
HETATM    5  C   UNL     1     -11.462  10.314  69.990  1.00  0.00    -0.367 C  
BRANCH   5   6
HETATM    6  C   UNL     1     -11.747  11.034  68.663  1.00  0.00    -0.367 C  
BRANCH   6   7
HETATM    7  C   UNL     1     -10.597  10.935  67.627  1.00  0.00    -0.224 C  
HETATM    8  O   UNL     1      -9.475  11.680  68.194  1.00  0.00    -0.178 OA 
HETATM    9  N   UNL     1      -7.061   5.093  66.800  1.00  0.00    -0.068 NA 
HETATM   10  C   UNL     1      -7.879   8.425  67.558  1.00  0.00    -0.099 A  
HETATM   11  C   UNL     1      -8.258  10.913  68.137  1.00  0.00    -0.121 C  
HETATM   12  C   UNL     1      -8.670   9.560  67.700  1.00  0.00    -0.122 A  
HETATM   13  C   UNL     1      -7.696   6.053  66.945  1.00  0.00    -0.100 C  
HETATM   14  C   UNL     1     -10.031   9.550  67.421  1.00  0.00    -0.241 A  
HETATM   15  C   UNL     1      -8.482   7.241  67.123  1.00  0.00    -0.118 A  
HETATM   16  C   UNL     1      -9.861   7.217  66.853  1.00  0.00    -0.279 A  
HETATM   17  C   UNL     1     -10.643   8.370  67.013  1.00  0.00    -0.316 A  
BRANCH   7  18
HETATM   18  C   UNL     1     -11.037  11.606  66.311  1.00  0.00    -0.345 A  
HETATM   19  C   UNL     1     -10.487  11.207  65.075  1.00  0.00    -0.357 A  
HETATM   20  F   UNL     1     -12.286  13.326  62.745  1.00  0.00    -0.496 F  
HETATM   21  C   UNL     1     -11.880  12.774  63.896  1.00  0.00    -0.468 A  
HETATM   22  C   UNL     1     -12.451  13.182  65.092  1.00  0.00    -0.539 A  
HETATM   23  C   UNL     1     -12.031  12.603  66.293  1.00  0.00    -0.439 A  
HETATM   24  C   UNL     1     -10.899  11.794  63.876  1.00  0.00    -0.468 A  
ENDBRANCH   7  18
ENDBRANCH   6   7
ENDBRANCH   5   6
ENDBRANCH   4   5
ENDBRANCH   2   4
TORSDOF 5
ENDMDL
MODEL       30
REMARK 921   NORMALIZED FREE ENERGY PREDICTED BY IDOCK:   -5.75 KCAL/MOL
REMARK 922        TOTAL FREE ENERGY PREDICTED BY IDOCK:   -8.30 KCAL/MOL
REMARK 923 INTER-LIGAND FREE ENERGY PREDICTED BY IDOCK:   -7.29 KCAL/MOL
REMARK 924 INTRA-LIGAND FREE ENERGY PREDICTED BY IDOCK:   -1.01 KCAL/MOL
REMARK 927      BINDING AFFINITY PREDICTED BY RF-SCORE:    0.00 PKD
ROOT
HETATM    1  C   UNL     1      -9.569  20.606  67.452  1.00  0.00    -0.404 C  
HETATM    2  N   UNL     1      -8.273  20.012  67.110  1.00  0.00    -0.310 NA 
HETATM    3  C   UNL     1      -7.487  19.821  68.330  1.00  0.00    -0.314 C  
ENDROOT
BRANCH   2   4
HETATM    4  C   UNL     1      -8.474  18.757  66.363  1.00  0.00    -0.284 C  
BRANCH   4   5
HETATM    5  C   UNL     1      -9.822  18.080  66.662  1.00  0.00    -0.352 C  
BRANCH   5   6
HETATM    6  C   UNL     1     -10.061  16.867  65.748  1.00  0.00    -0.251 C  
BRANCH   6   7
HETATM    7  C   UNL     1     -10.076  15.506  66.491  1.00  0.00    -0.279 C  
HETATM    8  O   UNL     1      -8.677  15.146  66.708  1.00  0.00    -0.243 OA 
HETATM    9  N   UNL     1     -11.817  15.109  73.134  1.00  0.00    -0.371 NA 
HETATM   10  C   UNL     1      -9.966  14.970  70.151  1.00  0.00     0.119 A  
HETATM   11  C   UNL     1      -8.443  14.762  68.076  1.00  0.00    -0.151 C  
HETATM   12  C   UNL     1      -9.698  15.084  68.791  1.00  0.00    -0.227 A  
HETATM   13  C   UNL     1     -11.556  15.208  72.008  1.00  0.00    -0.412 C  
HETATM   14  C   UNL     1     -10.651  15.539  67.887  1.00  0.00    -0.274 A  
HETATM   15  C   UNL     1     -11.235  15.330  70.614  1.00  0.00    -0.353 A  
HETATM   16  C   UNL     1     -12.201  15.805  69.710  1.00  0.00    -0.236 A  
HETATM   17  C   UNL     1     -11.907  15.922  68.344  1.00  0.00    -0.129 A  
BRANCH   7  18
HETATM   18  C   UNL     1     -10.738  14.443  65.593  1.00  0.00    -0.326 A  
HETATM   19  C   UNL     1     -10.398  13.079  65.713  1.00  0.00    -0.296 A  
HETATM   20  F   UNL     1     -12.590  11.549  63.261  1.00  0.00    -0.621 F  
HETATM   21  C   UNL     1     -11.990  12.483  64.011  1.00  0.00    -0.454 A  
HETATM   22  C   UNL     1     -12.358  13.813  63.875  1.00  0.00    -0.346 A  
HETATM   23  C   UNL     1     -11.735  14.788  64.660  1.00  0.00    -0.426 A  
HETATM   24  C   UNL     1     -11.013  12.106  64.921  1.00  0.00    -0.355 A  
ENDBRANCH   7  18
ENDBRANCH   6   7
ENDBRANCH   5   6
ENDBRANCH   4   5
ENDBRANCH   2   4
TORSDOF 5
ENDMDL
MODEL       31
REMARK 921   NORMALIZED FREE ENERGY PREDICTED BY IDOCK:   -5.73 KCAL/MOL
REMARK 922        TOTAL FREE ENERGY PREDICTED BY IDOCK:   -8.27 KCAL/MOL
REMARK 923 INTER-LIGAND FREE ENERGY PREDICTED BY IDOCK:   -7.23 KCAL/MOL
REMARK 924 INTRA-LIGAND FREE ENERGY PREDICTED BY IDOCK:   -1.05 KCAL/MOL
REMARK 927      BINDING AFFINITY PREDICTED BY RF-SCORE:    0.00 PKD
ROOT
HETATM    1  C   UNL     1      -9.044   7.817  68.327  1.00  0.00    -0.130 C  
HETATM    2  N   UNL     1      -9.540   9.063  68.920  1.00  0.00    -0.155 NA 
HETATM    3  C   UNL     1      -9.011   9.202  70.278  1.00  0.00    -0.217 C  
ENDROOT
BRANCH   2   4
HETATM    4  C   UNL     1      -9.191  10.207  68.057  1.00  0.00    -0.138 C  
BRANCH   4   5
HETATM    5  C   UNL     1      -9.637  11.562  68.631  1.00  0.00    -0.159 C  
BRANCH   5   6
HETATM    6  C   UNL     1      -9.213  12.729  67.725  1.00  0.00    -0.199 C  
BRANCH   6   7
HETATM    7  C   UNL     1     -10.382  13.644  67.280  1.00  0.00    -0.249 C  
HETATM    8  O   UNL     1     -11.344  13.639  68.381  1.00  0.00    -0.260 OA 
HETATM    9  N   UNL     1      -9.682  20.487  67.155  1.00  0.00    -0.456 NA 
HETATM   10  C   UNL     1     -10.774  17.254  67.995  1.00  0.00    -0.367 A  
HETATM   11  C   UNL     1     -11.742  14.977  68.733  1.00  0.00    -0.334 C  
HETATM   12  C   UNL     1     -10.847  15.866  67.959  1.00  0.00    -0.317 A  
HETATM   13  C   UNL     1      -9.756  19.329  67.160  1.00  0.00    -0.330 C  
HETATM   14  C   UNL     1     -10.035  15.107  67.125  1.00  0.00    -0.237 A  
HETATM   15  C   UNL     1      -9.849  17.896  67.166  1.00  0.00    -0.308 A  
HETATM   16  C   UNL     1      -9.012  17.136  66.331  1.00  0.00    -0.291 A  
HETATM   17  C   UNL     1      -9.095  15.736  66.317  1.00  0.00    -0.373 A  
BRANCH   7  18
HETATM   18  C   UNL     1     -11.047  13.048  66.025  1.00  0.00    -0.301 A  
HETATM   19  C   UNL     1     -12.418  13.254  65.763  1.00  0.00    -0.480 A  
HETATM   20  F   UNL     1     -12.834  11.544  62.593  1.00  0.00    -0.368 F  
HETATM   21  C   UNL     1     -12.259  12.026  63.702  1.00  0.00    -0.538 A  
HETATM   22  C   UNL     1     -10.906  11.814  63.921  1.00  0.00    -0.468 A  
HETATM   23  C   UNL     1     -10.304  12.321  65.076  1.00  0.00    -0.321 A  
HETATM   24  C   UNL     1     -13.022  12.739  64.614  1.00  0.00    -0.231 A  
ENDBRANCH   7  18
ENDBRANCH   6   7
ENDBRANCH   5   6
ENDBRANCH   4   5
ENDBRANCH   2   4
TORSDOF 5
ENDMDL
MODEL       32
REMARK 921   NORMALIZED FREE ENERGY PREDICTED BY IDOCK:   -5.72 KCAL/MOL
REMARK 922        TOTAL FREE ENERGY PREDICTED BY IDOCK:   -8.27 KCAL/MOL
REMARK 923 INTER-LIGAND FREE ENERGY PREDICTED BY IDOCK:   -7.22 KCAL/MOL
REMARK 924 INTRA-LIGAND FREE ENERGY PREDICTED BY IDOCK:   -1.05 KCAL/MOL
REMARK 927      BINDING AFFINITY PREDICTED BY RF-SCORE:    0.00 PKD
ROOT
HETATM    1  C   UNL     1     -11.475   8.522  71.037  1.00  0.00    -0.273 C  
HETATM    2  N   UNL     1     -12.430   9.609  70.795  1.00  0.00    -0.221 NA 
HETATM    3  C   UNL     1     -13.301   9.763  71.961  1.00  0.00    -0.451 C  
ENDROOT
BRANCH   2   4
HETATM    4  C   UNL     1     -11.708  10.850  70.459  1.00  0.00    -0.342 C  
BRANCH   4   5
HETATM    5  C   UNL     1     -12.110  11.439  69.097  1.00  0.00    -0.331 C  
BRANCH   5   6
HETATM    6  C   UNL     1     -11.183  10.951  67.972  1.00  0.00    -0.378 C  
BRANCH   6   7
HETATM    7  C   UNL     1     -10.934  11.997  66.856  1.00  0.00    -0.281 C  
HETATM    8  O   UNL     1     -12.253  12.466  66.437  1.00  0.00    -0.604 OA 
HETATM    9  N   UNL     1      -8.532  18.270  68.342  1.00  0.00    -0.298 NA 
HETATM   10  C   UNL     1     -10.630  15.662  67.272  1.00  0.00    -0.305 A  
HETATM   11  C   UNL     1     -12.308  13.904  66.398  1.00  0.00    -0.426 C  
HETATM   12  C   UNL     1     -11.037  14.359  67.007  1.00  0.00    -0.317 A  
HETATM   13  C   UNL     1      -8.909  17.194  68.124  1.00  0.00    -0.237 C  
HETATM   14  C   UNL     1     -10.236  13.262  67.299  1.00  0.00    -0.240 A  
HETATM   15  C   UNL     1      -9.374  15.863  67.853  1.00  0.00    -0.207 A  
HETATM   16  C   UNL     1      -8.563  14.759  68.166  1.00  0.00    -0.159 A  
HETATM   17  C   UNL     1      -8.997  13.452  67.900  1.00  0.00    -0.201 A  
BRANCH   7  18
HETATM   18  C   UNL     1     -10.238  11.314  65.662  1.00  0.00    -0.304 A  
HETATM   19  C   UNL     1      -9.653  10.038  65.797  1.00  0.00    -0.291 A  
HETATM   20  F   UNL     1      -8.455   9.410  62.432  1.00  0.00    -0.142 F  
HETATM   21  C   UNL     1      -9.027  10.026  63.475  1.00  0.00    -0.256 A  
HETATM   22  C   UNL     1      -9.603  11.276  63.303  1.00  0.00    -0.373 A  
HETATM   23  C   UNL     1     -10.204  11.917  64.390  1.00  0.00    -0.333 A  
HETATM   24  C   UNL     1      -9.043   9.402  64.713  1.00  0.00    -0.248 A  
ENDBRANCH   7  18
ENDBRANCH   6   7
ENDBRANCH   5   6
ENDBRANCH   4   5
ENDBRANCH   2   4
TORSDOF 5
ENDMDL
MODEL       33
REMARK 921   NORMALIZED FREE ENERGY PREDICTED BY IDOCK:   -5.70 KCAL/MOL
REMARK 922        TOTAL FREE ENERGY PREDICTED BY IDOCK:   -8.23 KCAL/MOL
REMARK 923 INTER-LIGAND FREE ENERGY PREDICTED BY IDOCK:   -7.24 KCAL/MOL
REMARK 924 INTRA-LIGAND FREE ENERGY PREDICTED BY IDOCK:   -0.99 KCAL/MOL
REMARK 927      BINDING AFFINITY PREDICTED BY RF-SCORE:    0.00 PKD
ROOT
HETATM    1  C   UNL     1     -13.774  14.667  72.501  1.00  0.00    -0.467 C  
HETATM    2  N   UNL     1     -12.964  15.576  71.683  1.00  0.00    -0.435 NA 
HETATM    3  C   UNL     1     -11.553  15.431  72.045  1.00  0.00    -0.459 C  
ENDROOT
BRANCH   2   4
HETATM    4  C   UNL     1     -13.212  15.323  70.252  1.00  0.00    -0.016 C  
BRANCH   4   5
HETATM    5  C   UNL     1     -12.168  14.395  69.608  1.00  0.00    -0.353 C  
BRANCH   5   6
HETATM    6  C   UNL     1     -12.052  14.636  68.095  1.00  0.00    -0.199 C  
BRANCH   6   7
HETATM    7  C   UNL     1     -10.622  14.440  67.528  1.00  0.00    -0.265 C  
HETATM    8  O   UNL     1      -9.888  13.677  68.535  1.00  0.00    -0.230 OA 
HETATM    9  N   UNL     1      -9.405   9.991  62.425  1.00  0.00    -0.288 NA 
HETATM   10  C   UNL     1      -9.383  11.554  65.572  1.00  0.00    -0.203 A  
HETATM   11  C   UNL     1      -9.202  12.557  67.944  1.00  0.00    -0.200 C  
HETATM   12  C   UNL     1      -9.685  12.498  66.546  1.00  0.00    -0.249 A  
HETATM   13  C   UNL     1      -9.651  10.753  63.265  1.00  0.00    -0.350 C  
HETATM   14  C   UNL     1     -10.529  13.574  66.294  1.00  0.00    -0.290 A  
HETATM   15  C   UNL     1      -9.953  11.697  64.303  1.00  0.00    -0.303 A  
HETATM   16  C   UNL     1     -10.820  12.772  64.043  1.00  0.00    -0.458 A  
HETATM   17  C   UNL     1     -11.120  13.709  65.043  1.00  0.00    -0.338 A  
BRANCH   7  18
HETATM   18  C   UNL     1      -9.952  15.816  67.348  1.00  0.00    -0.237 A  
HETATM   19  C   UNL     1      -8.783  15.957  66.571  1.00  0.00    -0.350 A  
HETATM   20  F   UNL     1      -8.192  19.530  66.761  1.00  0.00    -0.264 F  
HETATM   21  C   UNL     1      -8.758  18.331  66.953  1.00  0.00    -0.267 A  
HETATM   22  C   UNL     1      -9.914  18.232  67.714  1.00  0.00    -0.343 A  
HETATM   23  C   UNL     1     -10.507  16.981  67.911  1.00  0.00    -0.354 A  
HETATM   24  C   UNL     1      -8.185  17.205  66.382  1.00  0.00    -0.327 A  
ENDBRANCH   7  18
ENDBRANCH   6   7
ENDBRANCH   5   6
ENDBRANCH   4   5
ENDBRANCH   2   4
TORSDOF 5
ENDMDL
MODEL       34
REMARK 921   NORMALIZED FREE ENERGY PREDICTED BY IDOCK:   -5.69 KCAL/MOL
REMARK 922        TOTAL FREE ENERGY PREDICTED BY IDOCK:   -8.23 KCAL/MOL
REMARK 923 INTER-LIGAND FREE ENERGY PREDICTED BY IDOCK:   -7.11 KCAL/MOL
REMARK 924 INTRA-LIGAND FREE ENERGY PREDICTED BY IDOCK:   -1.12 KCAL/MOL
REMARK 927      BINDING AFFINITY PREDICTED BY RF-SCORE:    0.00 PKD
ROOT
HETATM    1  C   UNL     1     -13.609  14.106  71.745  1.00  0.00    -0.399 C  
HETATM    2  N   UNL     1     -12.357  14.178  70.984  1.00  0.00    -0.346 NA 
HETATM    3  C   UNL     1     -12.160  12.926  70.251  1.00  0.00    -0.302 C  
ENDROOT
BRANCH   2   4
HETATM    4  C   UNL     1     -12.371  15.357  70.099  1.00  0.00    -0.361 C  
BRANCH   4   5
HETATM    5  C   UNL     1     -11.093  16.206  70.197  1.00  0.00    -0.373 C  
BRANCH   5   6
HETATM    6  C   UNL     1     -10.781  16.915  68.869  1.00  0.00    -0.321 C  
BRANCH   6   7
HETATM    7  C   UNL     1      -9.597  16.296  68.082  1.00  0.00    -0.219 C  
HETATM    8  O   UNL     1      -8.927  15.384  69.007  1.00  0.00    -0.197 OA 
HETATM    9  N   UNL     1     -10.666  11.528  63.239  1.00  0.00    -0.347 NA 
HETATM   10  C   UNL     1      -9.609  13.115  66.191  1.00  0.00    -0.209 A  
HETATM   11  C   UNL     1      -8.706  14.096  68.402  1.00  0.00    -0.178 C  
HETATM   12  C   UNL     1      -9.444  14.137  67.120  1.00  0.00    -0.237 A  
HETATM   13  C   UNL     1     -10.525  12.355  64.042  1.00  0.00    -0.416 C  
HETATM   14  C   UNL     1      -9.987  15.402  66.928  1.00  0.00    -0.247 A  
HETATM   15  C   UNL     1     -10.348  13.378  65.033  1.00  0.00    -0.361 A  
HETATM   16  C   UNL     1     -10.914  14.649  64.838  1.00  0.00    -0.419 A  
HETATM   17  C   UNL     1     -10.744  15.663  65.792  1.00  0.00    -0.350 A  
BRANCH   7  18
HETATM   18  C   UNL     1      -8.617  17.412  67.672  1.00  0.00    -0.217 A  
HETATM   19  C   UNL     1      -8.656  18.676  68.297  1.00  0.00    -0.347 A  
HETATM   20  F   UNL     1      -5.914  20.397  66.660  1.00  0.00    -0.179 F  
HETATM   21  C   UNL     1      -6.789  19.435  66.984  1.00  0.00    -0.193 A  
HETATM   22  C   UNL     1      -6.714  18.200  66.358  1.00  0.00    -0.263 A  
HETATM   23  C   UNL     1      -7.624  17.195  66.698  1.00  0.00    -0.299 A  
HETATM   24  C   UNL     1      -7.753  19.684  67.949  1.00  0.00    -0.331 A  
ENDBRANCH   7  18
ENDBRANCH   6   7
ENDBRANCH   5   6
ENDBRANCH   4   5
ENDBRANCH   2   4
TORSDOF 5
ENDMDL
MODEL       35
REMARK 921   NORMALIZED FREE ENERGY PREDICTED BY IDOCK:   -5.66 KCAL/MOL
REMARK 922        TOTAL FREE ENERGY PREDICTED BY IDOCK:   -8.18 KCAL/MOL
REMARK 923 INTER-LIGAND FREE ENERGY PREDICTED BY IDOCK:   -7.56 KCAL/MOL
REMARK 924 INTRA-LIGAND FREE ENERGY PREDICTED BY IDOCK:   -0.62 KCAL/MOL
REMARK 927      BINDING AFFINITY PREDICTED BY RF-SCORE:    0.00 PKD
ROOT
HETATM    1  C   UNL     1      -5.571  15.877  70.080  1.00  0.00    -0.155 C  
HETATM    2  N   UNL     1      -6.238  15.414  68.859  1.00  0.00    -0.097 NA 
HETATM    3  C   UNL     1      -5.360  14.484  68.145  1.00  0.00    -0.120 C  
ENDROOT
BRANCH   2   4
HETATM    4  C   UNL     1      -7.544  14.817  69.191  1.00  0.00    -0.151 C  
BRANCH   4   5
HETATM    5  C   UNL     1      -8.348  14.382  67.954  1.00  0.00    -0.162 C  
BRANCH   5   6
HETATM    6  C   UNL     1      -8.849  12.935  68.085  1.00  0.00    -0.194 C  
BRANCH   6   7
HETATM    7  C   UNL     1     -10.393  12.798  68.117  1.00  0.00    -0.239 C  
HETATM    8  O   UNL     1     -10.671  11.443  68.590  1.00  0.00    -0.187 OA 
HETATM    9  N   UNL     1     -14.130  15.895  72.992  1.00  0.00    -0.363 NA 
HETATM   10  C   UNL     1     -12.620  13.420  71.006  1.00  0.00    -0.425 A  
HETATM   11  C   UNL     1     -11.643  11.451  69.652  1.00  0.00    -0.330 C  
HETATM   12  C   UNL     1     -11.835  12.878  69.994  1.00  0.00    -0.356 A  
HETATM   13  C   UNL     1     -13.472  15.410  72.168  1.00  0.00    -0.470 C  
HETATM   14  C   UNL     1     -11.098  13.674  69.125  1.00  0.00    -0.275 A  
HETATM   15  C   UNL     1     -12.659  14.811  71.147  1.00  0.00    -0.407 A  
HETATM   16  C   UNL     1     -11.905  15.623  70.284  1.00  0.00    -0.386 A  
HETATM   17  C   UNL     1     -11.112  15.056  69.276  1.00  0.00    -0.280 A  
BRANCH   7  18
HETATM   18  C   UNL     1     -10.949  12.959  66.689  1.00  0.00    -0.302 A  
HETATM   19  C   UNL     1     -12.108  13.723  66.444  1.00  0.00    -0.483 A  
HETATM   20  F   UNL     1     -12.401  13.493  62.836  1.00  0.00    -0.554 F  
HETATM   21  C   UNL     1     -11.935  13.318  64.079  1.00  0.00    -0.465 A  
HETATM   22  C   UNL     1     -10.785  12.569  64.282  1.00  0.00    -0.399 A  
HETATM   23  C   UNL     1     -10.295  12.389  65.579  1.00  0.00    -0.298 A  
HETATM   24  C   UNL     1     -12.604  13.894  65.149  1.00  0.00    -0.466 A  
ENDBRANCH   7  18
ENDBRANCH   6   7
ENDBRANCH   5   6
ENDBRANCH   4   5
ENDBRANCH   2   4
TORSDOF 5
ENDMDL
MODEL       36
REMARK 921   NORMALIZED FREE ENERGY PREDICTED BY IDOCK:   -5.59 KCAL/MOL
REMARK 922        TOTAL FREE ENERGY PREDICTED BY IDOCK:   -8.09 KCAL/MOL
REMARK 923 INTER-LIGAND FREE ENERGY PREDICTED BY IDOCK:   -7.21 KCAL/MOL
REMARK 924 INTRA-LIGAND FREE ENERGY PREDICTED BY IDOCK:   -0.88 KCAL/MOL
REMARK 927      BINDING AFFINITY PREDICTED BY RF-SCORE:    0.00 PKD
ROOT
HETATM    1  C   UNL     1      -8.459   7.653  66.752  1.00  0.00    -0.127 C  
HETATM    2  N   UNL     1      -9.911   7.777  66.592  1.00  0.00    -0.231 NA 
HETATM    3  C   UNL     1     -10.561   6.549  67.052  1.00  0.00    -0.332 C  
ENDROOT
BRANCH   2   4
HETATM    4  C   UNL     1     -10.397   8.975  67.300  1.00  0.00    -0.273 C  
BRANCH   4   5
HETATM    5  C   UNL     1      -9.958  10.293  66.640  1.00  0.00    -0.270 C  
BRANCH   5   6
HETATM    6  C   UNL     1     -10.942  11.435  66.945  1.00  0.00    -0.355 C  
BRANCH   6   7
HETATM    7  C   UNL     1     -10.411  12.476  67.963  1.00  0.00    -0.222 C  
HETATM    8  O   UNL     1      -9.118  11.972  68.421  1.00  0.00    -0.188 OA 
HETATM    9  N   UNL     1      -7.958  18.553  65.870  1.00  0.00    -0.505 NA 
HETATM   10  C   UNL     1      -8.164  15.330  67.255  1.00  0.00    -0.230 A  
HETATM   11  C   UNL     1      -8.106  12.994  68.355  1.00  0.00    -0.131 C  
HETATM   12  C   UNL     1      -8.740  14.125  67.640  1.00  0.00    -0.187 A  
HETATM   13  C   UNL     1      -8.405  17.531  66.190  1.00  0.00    -0.165 C  
HETATM   14  C   UNL     1     -10.075  13.831  67.385  1.00  0.00    -0.244 A  
HETATM   15  C   UNL     1      -8.959  16.267  66.588  1.00  0.00    -0.283 A  
HETATM   16  C   UNL     1     -10.305  15.973  66.312  1.00  0.00    -0.330 A  
HETATM   17  C   UNL     1     -10.864  14.747  66.700  1.00  0.00    -0.319 A  
BRANCH   7  18
HETATM   18  C   UNL     1     -11.376  12.556  69.161  1.00  0.00    -0.331 A  
HETATM   19  C   UNL     1     -11.839  11.387  69.799  1.00  0.00    -0.435 A  
HETATM   20  F   UNL     1     -13.889  12.754  72.460  1.00  0.00    -0.621 F  
HETATM   21  C   UNL     1     -13.081  12.690  71.394  1.00  0.00    -0.216 A  
HETATM   22  C   UNL     1     -12.636  13.861  70.799  1.00  0.00    -0.424 A  
HETATM   23  C   UNL     1     -11.789  13.795  69.688  1.00  0.00    -0.393 A  
HETATM   24  C   UNL     1     -12.694  11.453  70.902  1.00  0.00    -0.397 A  
ENDBRANCH   7  18
ENDBRANCH   6   7
ENDBRANCH   5   6
ENDBRANCH   4   5
ENDBRANCH   2   4
TORSDOF 5
ENDMDL
MODEL       37
REMARK 921   NORMALIZED FREE ENERGY PREDICTED BY IDOCK:   -5.58 KCAL/MOL
REMARK 922        TOTAL FREE ENERGY PREDICTED BY IDOCK:   -8.08 KCAL/MOL
REMARK 923 INTER-LIGAND FREE ENERGY PREDICTED BY IDOCK:   -7.06 KCAL/MOL
REMARK 924 INTRA-LIGAND FREE ENERGY PREDICTED BY IDOCK:   -1.02 KCAL/MOL
REMARK 927      BINDING AFFINITY PREDICTED BY RF-SCORE:    0.00 PKD
ROOT
HETATM    1  C   UNL     1     -11.594   8.536  71.783  1.00  0.00    -0.312 C  
HETATM    2  N   UNL     1     -12.716   9.326  71.266  1.00  0.00    -0.318 NA 
HETATM    3  C   UNL     1     -13.850   9.223  72.186  1.00  0.00    -0.413 C  
ENDROOT
BRANCH   2   4
HETATM    4  C   UNL     1     -12.292  10.720  71.043  1.00  0.00    -0.404 C  
BRANCH   4   5
HETATM    5  C   UNL     1     -12.220  11.105  69.556  1.00  0.00    -0.347 C  
BRANCH   5   6
HETATM    6  C   UNL     1     -10.788  10.988  69.009  1.00  0.00    -0.274 C  
BRANCH   6   7
HETATM    7  C   UNL     1     -10.635  11.428  67.531  1.00  0.00    -0.213 C  
HETATM    8  O   UNL     1     -11.992  11.621  67.022  1.00  0.00    -0.593 OA 
HETATM    9  N   UNL     1      -8.504  17.767  65.917  1.00  0.00    -0.525 NA 
HETATM   10  C   UNL     1     -10.504  14.896  66.247  1.00  0.00    -0.306 A  
HETATM   11  C   UNL     1     -12.122  12.886  66.348  1.00  0.00    -0.329 C  
HETATM   12  C   UNL     1     -10.854  13.602  66.616  1.00  0.00    -0.283 A  
HETATM   13  C   UNL     1      -8.833  16.697  66.225  1.00  0.00    -0.312 C  
HETATM   14  C   UNL     1      -9.987  12.777  67.322  1.00  0.00    -0.219 A  
HETATM   15  C   UNL     1      -9.239  15.373  66.604  1.00  0.00    -0.303 A  
HETATM   16  C   UNL     1      -8.362  14.551  67.331  1.00  0.00    -0.217 A  
HETATM   17  C   UNL     1      -8.738  13.253  67.703  1.00  0.00    -0.195 A  
BRANCH   7  18
HETATM   18  C   UNL     1      -9.951  10.302  66.731  1.00  0.00    -0.261 A  
HETATM   19  C   UNL     1      -9.809   9.009  67.276  1.00  0.00    -0.252 A  
HETATM   20  F   UNL     1      -8.207   7.228  64.552  1.00  0.00    -0.135 F  
HETATM   21  C   UNL     1      -8.766   8.221  65.257  1.00  0.00    -0.086 A  
HETATM   22  C   UNL     1      -8.900   9.478  64.685  1.00  0.00    -0.250 A  
HETATM   23  C   UNL     1      -9.487  10.513  65.418  1.00  0.00    -0.273 A  
HETATM   24  C   UNL     1      -9.213   7.977  66.547  1.00  0.00    -0.236 A  
ENDBRANCH   7  18
ENDBRANCH   6   7
ENDBRANCH   5   6
ENDBRANCH   4   5
ENDBRANCH   2   4
TORSDOF 5
ENDMDL
MODEL       38
REMARK 921   NORMALIZED FREE ENERGY PREDICTED BY IDOCK:   -5.41 KCAL/MOL
REMARK 922        TOTAL FREE ENERGY PREDICTED BY IDOCK:   -7.86 KCAL/MOL
REMARK 923 INTER-LIGAND FREE ENERGY PREDICTED BY IDOCK:   -6.79 KCAL/MOL
REMARK 924 INTRA-LIGAND FREE ENERGY PREDICTED BY IDOCK:   -1.07 KCAL/MOL
REMARK 927      BINDING AFFINITY PREDICTED BY RF-SCORE:    0.00 PKD
ROOT
HETATM    1  C   UNL     1     -13.751   8.796  71.585  1.00  0.00    -0.394 C  
HETATM    2  N   UNL     1     -12.788   9.801  71.125  1.00  0.00    -0.347 NA 
HETATM    3  C   UNL     1     -13.136  11.106  71.691  1.00  0.00    -0.424 C  
ENDROOT
BRANCH   2   4
HETATM    4  C   UNL     1     -11.417   9.382  71.469  1.00  0.00    -0.397 C  
BRANCH   4   5
HETATM    5  C   UNL     1     -10.383   9.734  70.387  1.00  0.00    -0.354 C  
BRANCH   5   6
HETATM    6  C   UNL     1     -11.023   9.799  68.991  1.00  0.00    -0.193 C  
BRANCH   6   7
HETATM    7  C   UNL     1     -10.073   9.387  67.837  1.00  0.00    -0.194 C  
HETATM    8  O   UNL     1      -8.716   9.639  68.319  1.00  0.00    -0.119 OA 
HETATM    9  N   UNL     1      -8.947   2.764  66.358  1.00  0.00    -0.146 NA 
HETATM   10  C   UNL     1      -8.451   6.095  67.361  1.00  0.00    -0.107 A  
HETATM   11  C   UNL     1      -7.864   8.500  68.098  1.00  0.00    -0.103 C  
HETATM   12  C   UNL     1      -8.768   7.420  67.641  1.00  0.00    -0.125 A  
HETATM   13  C   UNL     1      -9.181   3.871  66.616  1.00  0.00    -0.169 C  
HETATM   14  C   UNL     1     -10.060   7.914  67.505  1.00  0.00    -0.276 A  
HETATM   15  C   UNL     1      -9.472   5.241  66.933  1.00  0.00    -0.138 A  
HETATM   16  C   UNL     1     -10.784   5.727  66.808  1.00  0.00    -0.369 A  
HETATM   17  C   UNL     1     -11.085   7.064  67.106  1.00  0.00    -0.298 A  
BRANCH   7  18
HETATM   18  C   UNL     1     -10.346  10.277  66.609  1.00  0.00    -0.283 A  
HETATM   19  C   UNL     1      -9.829   9.942  65.341  1.00  0.00    -0.384 A  
HETATM   20  F   UNL     1     -11.161  12.602  63.268  1.00  0.00    -0.488 F  
HETATM   21  C   UNL     1     -10.895  11.854  64.346  1.00  0.00    -0.332 A  
HETATM   22  C   UNL     1     -11.430  12.208  65.576  1.00  0.00    -0.394 A  
HETATM   23  C   UNL     1     -11.157  11.425  66.701  1.00  0.00    -0.333 A  
HETATM   24  C   UNL     1     -10.094  10.730  64.218  1.00  0.00    -0.427 A  
ENDBRANCH   7  18
ENDBRANCH   6   7
ENDBRANCH   5   6
ENDBRANCH   4   5
ENDBRANCH   2   4
TORSDOF 5
ENDMDL
MODEL       39
REMARK 921   NORMALIZED FREE ENERGY PREDICTED BY IDOCK:   -5.39 KCAL/MOL
REMARK 922        TOTAL FREE ENERGY PREDICTED BY IDOCK:   -7.84 KCAL/MOL
REMARK 923 INTER-LIGAND FREE ENERGY PREDICTED BY IDOCK:   -7.42 KCAL/MOL
REMARK 924 INTRA-LIGAND FREE ENERGY PREDICTED BY IDOCK:   -0.42 KCAL/MOL
REMARK 927      BINDING AFFINITY PREDICTED BY RF-SCORE:    0.00 PKD
ROOT
HETATM    1  C   UNL     1     -13.409  13.258  72.154  1.00  0.00    -0.523 C  
HETATM    2  N   UNL     1     -13.284  14.712  72.015  1.00  0.00    -0.327 NA 
HETATM    3  C   UNL     1     -12.469  15.239  73.110  1.00  0.00    -0.457 C  
ENDROOT
BRANCH   2   4
HETATM    4  C   UNL     1     -12.736  15.047  70.688  1.00  0.00    -0.376 C  
BRANCH   4   5
HETATM    5  C   UNL     1     -12.180  13.828  69.933  1.00  0.00    -0.383 C  
BRANCH   5   6
HETATM    6  C   UNL     1     -10.941  14.194  69.099  1.00  0.00    -0.280 C  
BRANCH   6   7
HETATM    7  C   UNL     1     -10.380  13.025  68.250  1.00  0.00    -0.252 C  
HETATM    8  O   UNL     1      -8.933  13.225  68.190  1.00  0.00    -0.186 OA 
HETATM    9  N   UNL     1      -9.980   6.652  70.808  1.00  0.00    -0.184 NA 
HETATM   10  C   UNL     1      -9.090   9.789  69.500  1.00  0.00    -0.227 A  
HETATM   11  C   UNL     1      -8.225  12.015  68.517  1.00  0.00    -0.113 C  
HETATM   12  C   UNL     1      -9.262  11.073  68.995  1.00  0.00    -0.077 A  
HETATM   13  C   UNL     1     -10.088   7.732  70.399  1.00  0.00    -0.194 C  
HETATM   14  C   UNL     1     -10.519  11.653  68.867  1.00  0.00    -0.201 A  
HETATM   15  C   UNL     1     -10.223   9.068  69.891  1.00  0.00    -0.214 A  
HETATM   16  C   UNL     1     -11.496   9.651  69.779  1.00  0.00    -0.095 A  
HETATM   17  C   UNL     1     -11.647  10.952  69.277  1.00  0.00    -0.388 A  
BRANCH   7  18
HETATM   18  C   UNL     1     -10.961  13.104  66.825  1.00  0.00    -0.298 A  
HETATM   19  C   UNL     1     -12.138  13.835  66.562  1.00  0.00    -0.483 A  
HETATM   20  F   UNL     1     -12.482  13.422  62.975  1.00  0.00    -0.559 F  
HETATM   21  C   UNL     1     -11.993  13.317  64.218  1.00  0.00    -0.421 A  
HETATM   22  C   UNL     1     -10.826  12.600  64.438  1.00  0.00    -0.386 A  
HETATM   23  C   UNL     1     -10.313  12.493  65.734  1.00  0.00    -0.288 A  
HETATM   24  C   UNL     1     -12.656  13.933  65.268  1.00  0.00    -0.508 A  
ENDBRANCH   7  18
ENDBRANCH   6   7
ENDBRANCH   5   6
ENDBRANCH   4   5
ENDBRANCH   2   4
TORSDOF 5
ENDMDL
MODEL       40
REMARK 921   NORMALIZED FREE ENERGY PREDICTED BY IDOCK:   -5.38 KCAL/MOL
REMARK 922        TOTAL FREE ENERGY PREDICTED BY IDOCK:   -7.82 KCAL/MOL
REMARK 923 INTER-LIGAND FREE ENERGY PREDICTED BY IDOCK:   -6.80 KCAL/MOL
REMARK 924 INTRA-LIGAND FREE ENERGY PREDICTED BY IDOCK:   -1.02 KCAL/MOL
REMARK 927      BINDING AFFINITY PREDICTED BY RF-SCORE:    0.00 PKD
ROOT
HETATM    1  C   UNL     1     -10.432  17.015  68.874  1.00  0.00    -0.347 C  
HETATM    2  N   UNL     1     -10.733  16.702  67.474  1.00  0.00    -0.310 NA 
HETATM    3  C   UNL     1      -9.832  17.456  66.600  1.00  0.00    -0.297 C  
ENDROOT
BRANCH   2   4
HETATM    4  C   UNL     1     -10.651  15.246  67.253  1.00  0.00    -0.290 C  
BRANCH   4   5
HETATM    5  C   UNL     1     -11.777  14.461  67.945  1.00  0.00    -0.388 C  
BRANCH   5   6
HETATM    6  C   UNL     1     -11.226  13.502  69.013  1.00  0.00    -0.314 C  
BRANCH   6   7
HETATM    7  C   UNL     1     -11.040  12.043  68.521  1.00  0.00    -0.244 C  
HETATM    8  O   UNL     1     -11.962  11.873  67.400  1.00  0.00    -0.603 OA 
HETATM    9  N   UNL     1      -5.453  10.180  64.968  1.00  0.00    -0.084 NA 
HETATM   10  C   UNL     1      -8.788  10.876  65.827  1.00  0.00    -0.202 A  
HETATM   11  C   UNL     1     -11.300  11.288  66.263  1.00  0.00     0.018 C  
HETATM   12  C   UNL     1      -9.861  11.275  66.615  1.00  0.00    -0.235 A  
HETATM   13  C   UNL     1      -6.368  10.522  65.593  1.00  0.00    -0.126 C  
HETATM   14  C   UNL     1      -9.691  11.732  67.916  1.00  0.00    -0.185 A  
HETATM   15  C   UNL     1      -7.501  10.943  66.369  1.00  0.00    -0.145 A  
HETATM   16  C   UNL     1      -7.317  11.418  67.679  1.00  0.00    -0.102 A  
HETATM   17  C   UNL     1      -8.413  11.825  68.453  1.00  0.00    -0.155 A  
BRANCH   7  18
HETATM   18  C   UNL     1     -11.432  11.070  69.650  1.00  0.00    -0.375 A  
HETATM   19  C   UNL     1     -10.776   9.831  69.798  1.00  0.00    -0.283 A  
HETATM   20  F   UNL     1     -12.397   8.483  72.750  1.00  0.00    -0.452 F  
HETATM   21  C   UNL     1     -12.088   9.316  71.748  1.00  0.00    -0.387 A  
HETATM   22  C   UNL     1     -12.745  10.532  71.639  1.00  0.00    -0.550 A  
HETATM   23  C   UNL     1     -12.421  11.404  70.596  1.00  0.00    -0.419 A  
HETATM   24  C   UNL     1     -11.108   8.955  70.835  1.00  0.00    -0.328 A  
ENDBRANCH   7  18
ENDBRANCH   6   7
ENDBRANCH   5   6
ENDBRANCH   4   5
ENDBRANCH   2   4
TORSDOF 5
ENDMDL
MODEL       41
REMARK 921   NORMALIZED FREE ENERGY PREDICTED BY IDOCK:   -5.36 KCAL/MOL
REMARK 922        TOTAL FREE ENERGY PREDICTED BY IDOCK:   -7.80 KCAL/MOL
REMARK 923 INTER-LIGAND FREE ENERGY PREDICTED BY IDOCK:   -6.98 KCAL/MOL
REMARK 924 INTRA-LIGAND FREE ENERGY PREDICTED BY IDOCK:   -0.83 KCAL/MOL
REMARK 927      BINDING AFFINITY PREDICTED BY RF-SCORE:    0.00 PKD
ROOT
HETATM    1  C   UNL     1     -10.174  10.452  65.292  1.00  0.00    -0.262 C  
HETATM    2  N   UNL     1     -10.244  11.800  64.719  1.00  0.00    -0.270 NA 
HETATM    3  C   UNL     1     -10.085  11.721  63.265  1.00  0.00    -0.420 C  
ENDROOT
BRANCH   2   4
HETATM    4  C   UNL     1     -11.504  12.453  65.116  1.00  0.00    -0.334 C  
BRANCH   4   5
HETATM    5  C   UNL     1     -11.296  13.667  66.037  1.00  0.00    -0.322 C  
BRANCH   5   6
HETATM    6  C   UNL     1     -12.233  13.622  67.255  1.00  0.00    -0.317 C  
BRANCH   6   7
HETATM    7  C   UNL     1     -11.600  12.988  68.520  1.00  0.00    -0.328 C  
HETATM    8  O   UNL     1     -12.216  11.670  68.666  1.00  0.00    -0.455 OA 
HETATM    9  N   UNL     1      -5.147  10.604  68.444  1.00  0.00    -0.034 NA 
HETATM   10  C   UNL     1      -8.652  10.754  68.648  1.00  0.00    -0.151 A  
HETATM   11  C   UNL     1     -11.223  10.649  68.870  1.00  0.00    -0.275 C  
HETATM   12  C   UNL     1      -9.922  11.319  68.644  1.00  0.00    -0.210 A  
HETATM   13  C   UNL     1      -6.222  11.042  68.430  1.00  0.00    -0.049 C  
HETATM   14  C   UNL     1     -10.125  12.675  68.417  1.00  0.00    -0.222 A  
HETATM   15  C   UNL     1      -7.551  11.584  68.414  1.00  0.00    -0.125 A  
HETATM   16  C   UNL     1      -7.748  12.954  68.169  1.00  0.00    -0.138 A  
HETATM   17  C   UNL     1      -9.038  13.502  68.158  1.00  0.00    -0.199 A  
BRANCH   7  18
HETATM   18  C   UNL     1     -11.947  13.848  69.750  1.00  0.00    -0.398 A  
HETATM   19  C   UNL     1     -12.653  13.300  70.842  1.00  0.00    -0.386 A  
HETATM   20  F   UNL     1     -12.798  16.118  73.121  1.00  0.00    -0.475 F  
HETATM   21  C   UNL     1     -12.527  15.387  72.032  1.00  0.00    -0.373 A  
HETATM   22  C   UNL     1     -11.821  15.954  70.982  1.00  0.00    -0.468 A  
HETATM   23  C   UNL     1     -11.534  15.191  69.847  1.00  0.00    -0.315 A  
HETATM   24  C   UNL     1     -12.949  14.067  71.972  1.00  0.00    -0.450 A  
ENDBRANCH   7  18
ENDBRANCH   6   7
ENDBRANCH   5   6
ENDBRANCH   4   5
ENDBRANCH   2   4
TORSDOF 5
ENDMDL
MODEL       42
REMARK 921   NORMALIZED FREE ENERGY PREDICTED BY IDOCK:   -5.35 KCAL/MOL
REMARK 922        TOTAL FREE ENERGY PREDICTED BY IDOCK:   -7.79 KCAL/MOL
REMARK 923 INTER-LIGAND FREE ENERGY PREDICTED BY IDOCK:   -6.77 KCAL/MOL
REMARK 924 INTRA-LIGAND FREE ENERGY PREDICTED BY IDOCK:   -1.02 KCAL/MOL
REMARK 927      BINDING AFFINITY PREDICTED BY RF-SCORE:    0.00 PKD
ROOT
HETATM    1  C   UNL     1     -10.637  19.129  65.881  1.00  0.00    -0.415 C  
HETATM    2  N   UNL     1      -9.755  17.958  65.863  1.00  0.00    -0.544 NA 
HETATM    3  C   UNL     1      -8.817  18.035  66.985  1.00  0.00    -0.254 C  
ENDROOT
BRANCH   2   4
HETATM    4  C   UNL     1     -10.557  16.721  65.879  1.00  0.00    -0.248 C  
BRANCH   4   5
HETATM    5  C   UNL     1      -9.895  15.556  65.123  1.00  0.00    -0.086 C  
BRANCH   5   6
HETATM    6  C   UNL     1     -10.485  14.200  65.544  1.00  0.00    -0.352 C  
BRANCH   6   7
HETATM    7  C   UNL     1      -9.940  13.662  66.891  1.00  0.00    -0.260 C  
HETATM    8  O   UNL     1      -8.595  14.215  67.035  1.00  0.00    -0.215 OA 
HETATM    9  N   UNL     1     -12.231  16.133  72.888  1.00  0.00    -0.508 NA 
HETATM   10  C   UNL     1     -10.129  15.328  70.190  1.00  0.00    -0.116 A  
HETATM   11  C   UNL     1      -8.410  14.806  68.335  1.00  0.00    -0.154 C  
HETATM   12  C   UNL     1      -9.752  14.801  68.960  1.00  0.00    -0.190 A  
HETATM   13  C   UNL     1     -11.888  15.719  71.860  1.00  0.00    -0.480 C  
HETATM   14  C   UNL     1     -10.658  14.159  68.124  1.00  0.00    -0.249 A  
HETATM   15  C   UNL     1     -11.464  15.205  70.588  1.00  0.00    -0.345 A  
HETATM   16  C   UNL     1     -12.390  14.571  69.743  1.00  0.00    -0.317 A  
HETATM   17  C   UNL     1     -11.992  14.056  68.501  1.00  0.00    -0.383 A  
BRANCH   7  18
HETATM   18  C   UNL     1      -9.849  12.125  66.828  1.00  0.00    -0.218 A  
HETATM   19  C   UNL     1      -9.620  11.363  67.992  1.00  0.00    -0.184 A  
HETATM   20  F   UNL     1      -9.712   7.977  66.695  1.00  0.00    -0.226 F  
HETATM   21  C   UNL     1      -9.753   9.315  66.737  1.00  0.00    -0.200 A  
HETATM   22  C   UNL     1      -9.992  10.032  65.574  1.00  0.00    -0.367 A  
HETATM   23  C   UNL     1     -10.039  11.428  65.618  1.00  0.00    -0.293 A  
HETATM   24  C   UNL     1      -9.563   9.968  67.946  1.00  0.00    -0.163 A  
ENDBRANCH   7  18
ENDBRANCH   6   7
ENDBRANCH   5   6
ENDBRANCH   4   5
ENDBRANCH   2   4
TORSDOF 5
ENDMDL
MODEL       43
REMARK 921   NORMALIZED FREE ENERGY PREDICTED BY IDOCK:   -5.35 KCAL/MOL
REMARK 922        TOTAL FREE ENERGY PREDICTED BY IDOCK:   -7.78 KCAL/MOL
REMARK 923 INTER-LIGAND FREE ENERGY PREDICTED BY IDOCK:   -7.15 KCAL/MOL
REMARK 924 INTRA-LIGAND FREE ENERGY PREDICTED BY IDOCK:   -0.63 KCAL/MOL
REMARK 927      BINDING AFFINITY PREDICTED BY RF-SCORE:    0.00 PKD
ROOT
HETATM    1  C   UNL     1     -13.729  13.142  72.422  1.00  0.00    -0.540 C  
HETATM    2  N   UNL     1     -13.456  14.423  71.765  1.00  0.00    -0.348 NA 
HETATM    3  C   UNL     1     -14.286  15.468  72.367  1.00  0.00    -0.481 C  
ENDROOT
BRANCH   2   4
HETATM    4  C   UNL     1     -12.016  14.731  71.837  1.00  0.00    -0.318 C  
BRANCH   4   5
HETATM    5  C   UNL     1     -11.502  15.529  70.627  1.00  0.00    -0.383 C  
BRANCH   5   6
HETATM    6  C   UNL     1     -12.226  15.124  69.333  1.00  0.00    -0.237 C  
BRANCH   6   7
HETATM    7  C   UNL     1     -11.302  14.493  68.260  1.00  0.00    -0.297 C  
HETATM    8  O   UNL     1     -12.059  14.513  67.010  1.00  0.00    -0.398 OA 
HETATM    9  N   UNL     1      -5.919  17.951  65.733  1.00  0.00    -0.204 NA 
HETATM   10  C   UNL     1      -9.000  16.281  65.979  1.00  0.00    -0.325 A  
HETATM   11  C   UNL     1     -11.275  15.059  65.933  1.00  0.00    -0.313 C  
HETATM   12  C   UNL     1     -10.049  15.588  66.573  1.00  0.00    -0.290 A  
HETATM   13  C   UNL     1      -6.817  17.386  66.201  1.00  0.00    -0.243 C  
HETATM   14  C   UNL     1     -10.059  15.286  67.930  1.00  0.00    -0.233 A  
HETATM   15  C   UNL     1      -7.928  16.685  66.781  1.00  0.00    -0.284 A  
HETATM   16  C   UNL     1      -7.937  16.398  68.156  1.00  0.00    -0.160 A  
HETATM   17  C   UNL     1      -9.009  15.707  68.738  1.00  0.00    -0.205 A  
BRANCH   7  18
HETATM   18  C   UNL     1     -10.998  13.032  68.644  1.00  0.00    -0.297 A  
HETATM   19  C   UNL     1      -9.782  12.422  68.270  1.00  0.00    -0.218 A  
HETATM   20  F   UNL     1     -10.113   9.133  69.763  1.00  0.00    -0.176 F  
HETATM   21  C   UNL     1     -10.400  10.390  69.398  1.00  0.00    -0.237 A  
HETATM   22  C   UNL     1     -11.600  10.962  69.794  1.00  0.00    -0.399 A  
HETATM   23  C   UNL     1     -11.898  12.275  69.418  1.00  0.00    -0.370 A  
HETATM   24  C   UNL     1      -9.489  11.106  68.637  1.00  0.00    -0.196 A  
ENDBRANCH   7  18
ENDBRANCH   6   7
ENDBRANCH   5   6
ENDBRANCH   4   5
ENDBRANCH   2   4
TORSDOF 5
ENDMDL
MODEL       44
REMARK 921   NORMALIZED FREE ENERGY PREDICTED BY IDOCK:   -5.32 KCAL/MOL
REMARK 922        TOTAL FREE ENERGY PREDICTED BY IDOCK:   -7.74 KCAL/MOL
REMARK 923 INTER-LIGAND FREE ENERGY PREDICTED BY IDOCK:   -7.01 KCAL/MOL
REMARK 924 INTRA-LIGAND FREE ENERGY PREDICTED BY IDOCK:   -0.73 KCAL/MOL
REMARK 927      BINDING AFFINITY PREDICTED BY RF-SCORE:    0.00 PKD
ROOT
HETATM    1  C   UNL     1      -6.063  16.788  69.240  1.00  0.00    -0.189 C  
HETATM    2  N   UNL     1      -6.284  15.370  68.943  1.00  0.00    -0.097 NA 
HETATM    3  C   UNL     1      -6.440  14.627  70.195  1.00  0.00    -0.166 C  
ENDROOT
BRANCH   2   4
HETATM    4  C   UNL     1      -7.443  15.216  68.045  1.00  0.00    -0.120 C  
BRANCH   4   5
HETATM    5  C   UNL     1      -8.717  14.750  68.770  1.00  0.00    -0.178 C  
BRANCH   5   6
HETATM    6  C   UNL     1      -9.987  15.214  68.038  1.00  0.00    -0.221 C  
BRANCH   6   7
HETATM    7  C   UNL     1     -10.934  14.061  67.617  1.00  0.00    -0.269 C  
HETATM    8  O   UNL     1     -12.008  14.680  66.843  1.00  0.00    -0.373 OA 
HETATM    9  N   UNL     1      -9.143   9.621  62.677  1.00  0.00    -0.271 NA 
HETATM   10  C   UNL     1     -10.828  12.139  64.456  1.00  0.00    -0.356 A  
HETATM   11  C   UNL     1     -12.228  13.982  65.603  1.00  0.00    -0.442 C  
HETATM   12  C   UNL     1     -11.117  13.008  65.502  1.00  0.00    -0.300 A  
HETATM   13  C   UNL     1      -9.401  10.370  63.525  1.00  0.00    -0.297 C  
HETATM   14  C   UNL     1     -10.342  13.057  66.655  1.00  0.00    -0.263 A  
HETATM   15  C   UNL     1      -9.721  11.295  64.576  1.00  0.00    -0.293 A  
HETATM   16  C   UNL     1      -8.922  11.347  65.731  1.00  0.00    -0.159 A  
HETATM   17  C   UNL     1      -9.225  12.239  66.771  1.00  0.00    -0.210 A  
BRANCH   7  18
HETATM   18  C   UNL     1     -11.531  13.406  68.877  1.00  0.00    -0.347 A  
HETATM   19  C   UNL     1     -12.015  14.192  69.943  1.00  0.00    -0.398 A  
HETATM   20  F   UNL     1     -13.243  11.663  72.234  1.00  0.00    -0.609 F  
HETATM   21  C   UNL     1     -12.688  12.225  71.153  1.00  0.00    -0.243 A  
HETATM   22  C   UNL     1     -12.233  11.421  70.118  1.00  0.00    -0.401 A  
HETATM   23  C   UNL     1     -11.657  12.007  68.987  1.00  0.00    -0.370 A  
HETATM   24  C   UNL     1     -12.581  13.606  71.078  1.00  0.00    -0.441 A  
ENDBRANCH   7  18
ENDBRANCH   6   7
ENDBRANCH   5   6
ENDBRANCH   4   5
ENDBRANCH   2   4
TORSDOF 5
ENDMDL
MODEL       45
REMARK 921   NORMALIZED FREE ENERGY PREDICTED BY IDOCK:   -5.32 KCAL/MOL
REMARK 922        TOTAL FREE ENERGY PREDICTED BY IDOCK:   -7.74 KCAL/MOL
REMARK 923 INTER-LIGAND FREE ENERGY PREDICTED BY IDOCK:   -6.90 KCAL/MOL
REMARK 924 INTRA-LIGAND FREE ENERGY PREDICTED BY IDOCK:   -0.84 KCAL/MOL
REMARK 927      BINDING AFFINITY PREDICTED BY RF-SCORE:    0.00 PKD
ROOT
HETATM    1  C   UNL     1     -11.827  15.337  72.919  1.00  0.00    -0.403 C  
HETATM    2  N   UNL     1     -12.138  15.253  71.488  1.00  0.00    -0.325 NA 
HETATM    3  C   UNL     1     -13.552  15.570  71.277  1.00  0.00    -0.439 C  
ENDROOT
BRANCH   2   4
HETATM    4  C   UNL     1     -11.238  16.135  70.723  1.00  0.00    -0.328 C  
BRANCH   4   5
HETATM    5  C   UNL     1     -10.884  15.584  69.331  1.00  0.00    -0.261 C  
BRANCH   5   6
HETATM    6  C   UNL     1     -10.307  14.161  69.415  1.00  0.00     0.060 C  
BRANCH   6   7
HETATM    7  C   UNL     1     -11.139  13.093  68.659  1.00  0.00    -0.269 C  
HETATM    8  O   UNL     1     -12.360  13.766  68.221  1.00  0.00    -0.242 OA 
HETATM    9  N   UNL     1      -9.337  11.001  62.358  1.00  0.00    -0.246 NA 
HETATM   10  C   UNL     1     -11.129  12.439  65.017  1.00  0.00    -0.344 A  
HETATM   11  C   UNL     1     -12.621  13.519  66.827  1.00  0.00     0.012 C  
HETATM   12  C   UNL     1     -11.412  12.831  66.320  1.00  0.00    -0.405 A  
HETATM   13  C   UNL     1      -9.596  11.355  63.433  1.00  0.00    -0.329 C  
HETATM   14  C   UNL     1     -10.530  12.596  67.369  1.00  0.00    -0.233 A  
HETATM   15  C   UNL     1      -9.916  11.792  64.762  1.00  0.00    -0.275 A  
HETATM   16  C   UNL     1      -9.011  11.564  65.813  1.00  0.00    -0.120 A  
HETATM   17  C   UNL     1      -9.311  11.976  67.119  1.00  0.00    -0.187 A  
BRANCH   7  18
HETATM   18  C   UNL     1     -11.508  11.954  69.628  1.00  0.00    -0.337 A  
HETATM   19  C   UNL     1     -12.362  12.184  70.726  1.00  0.00    -0.391 A  
HETATM   20  F   UNL     1     -12.602   8.873  72.187  1.00  0.00    -0.362 F  
HETATM   21  C   UNL     1     -12.246   9.868  71.364  1.00  0.00    -0.408 A  
HETATM   22  C   UNL     1     -11.413   9.603  70.287  1.00  0.00    -0.288 A  
HETATM   23  C   UNL     1     -11.045  10.639  69.425  1.00  0.00    -0.315 A  
HETATM   24  C   UNL     1     -12.722  11.150  71.594  1.00  0.00    -0.466 A  
ENDBRANCH   7  18
ENDBRANCH   6   7
ENDBRANCH   5   6
ENDBRANCH   4   5
ENDBRANCH   2   4
TORSDOF 5
ENDMDL
MODEL       46
REMARK 921   NORMALIZED FREE ENERGY PREDICTED BY IDOCK:   -5.29 KCAL/MOL
REMARK 922        TOTAL FREE ENERGY PREDICTED BY IDOCK:   -7.71 KCAL/MOL
REMARK 923 INTER-LIGAND FREE ENERGY PREDICTED BY IDOCK:   -6.66 KCAL/MOL
REMARK 924 INTRA-LIGAND FREE ENERGY PREDICTED BY IDOCK:   -1.05 KCAL/MOL
REMARK 927      BINDING AFFINITY PREDICTED BY RF-SCORE:    0.00 PKD
ROOT
HETATM    1  C   UNL     1     -10.957   5.945  69.064  1.00  0.00    -0.289 C  
HETATM    2  N   UNL     1     -10.138   6.142  67.863  1.00  0.00    -0.140 NA 
HETATM    3  C   UNL     1      -9.932   4.854  67.197  1.00  0.00    -0.197 C  
ENDROOT
BRANCH   2   4
HETATM    4  C   UNL     1     -10.767   7.142  66.981  1.00  0.00    -0.350 C  
BRANCH   4   5
HETATM    5  C   UNL     1      -9.863   8.351  66.691  1.00  0.00    -0.343 C  
BRANCH   5   6
HETATM    6  C   UNL     1     -10.606   9.679  66.909  1.00  0.00    -0.241 C  
BRANCH   6   7
HETATM    7  C   UNL     1     -10.025  10.552  68.051  1.00  0.00    -0.155 C  
HETATM    8  O   UNL     1      -8.579  10.584  67.842  1.00  0.00    -0.121 OA 
HETATM    9  N   UNL     1     -10.765  17.391  68.017  1.00  0.00    -0.390 NA 
HETATM   10  C   UNL     1      -9.329  14.185  67.937  1.00  0.00    -0.204 A  
HETATM   11  C   UNL     1      -8.072  11.930  67.899  1.00  0.00    -0.147 C  
HETATM   12  C   UNL     1      -9.272  12.796  67.946  1.00  0.00    -0.205 A  
HETATM   13  C   UNL     1     -10.683  16.234  68.006  1.00  0.00    -0.331 C  
HETATM   14  C   UNL     1     -10.416  12.011  68.012  1.00  0.00    -0.224 A  
HETATM   15  C   UNL     1     -10.583  14.802  67.994  1.00  0.00    -0.244 A  
HETATM   16  C   UNL     1     -11.747  14.016  68.046  1.00  0.00    -0.394 A  
HETATM   17  C   UNL     1     -11.667  12.616  68.043  1.00  0.00    -0.402 A  
BRANCH   7  18
HETATM   18  C   UNL     1     -10.326   9.885  69.406  1.00  0.00    -0.238 A  
HETATM   19  C   UNL     1      -9.322   9.189  70.111  1.00  0.00    -0.235 A  
HETATM   20  F   UNL     1     -11.087   8.174  73.112  1.00  0.00    -0.422 F  
HETATM   21  C   UNL     1     -10.842   8.723  71.915  1.00  0.00    -0.360 A  
HETATM   22  C   UNL     1     -11.851   9.410  71.256  1.00  0.00    -0.435 A  
HETATM   23  C   UNL     1     -11.595   9.987  70.008  1.00  0.00    -0.279 A  
HETATM   24  C   UNL     1      -9.580   8.604  71.353  1.00  0.00    -0.313 A  
ENDBRANCH   7  18
ENDBRANCH   6   7
ENDBRANCH   5   6
ENDBRANCH   4   5
ENDBRANCH   2   4
TORSDOF 5
ENDMDL
MODEL       47
REMARK 921   NORMALIZED FREE ENERGY PREDICTED BY IDOCK:   -5.27 KCAL/MOL
REMARK 922        TOTAL FREE ENERGY PREDICTED BY IDOCK:   -7.69 KCAL/MOL
REMARK 923 INTER-LIGAND FREE ENERGY PREDICTED BY IDOCK:   -6.51 KCAL/MOL
REMARK 924 INTRA-LIGAND FREE ENERGY PREDICTED BY IDOCK:   -1.17 KCAL/MOL
REMARK 927      BINDING AFFINITY PREDICTED BY RF-SCORE:    0.00 PKD
ROOT
HETATM    1  C   UNL     1      -8.074   4.365  67.534  1.00  0.00    -0.099 C  
HETATM    2  N   UNL     1      -8.868   5.590  67.675  1.00  0.00    -0.107 NA 
HETATM    3  C   UNL     1      -8.830   6.343  66.420  1.00  0.00    -0.141 C  
ENDROOT
BRANCH   2   4
HETATM    4  C   UNL     1     -10.241   5.256  68.095  1.00  0.00    -0.140 C  
BRANCH   4   5
HETATM    5  C   UNL     1     -11.128   6.493  68.316  1.00  0.00    -0.332 C  
BRANCH   5   6
HETATM    6  C   UNL     1     -11.446   6.703  69.805  1.00  0.00    -0.388 C  
BRANCH   6   7
HETATM    7  C   UNL     1     -10.706   7.904  70.449  1.00  0.00    -0.233 C  
HETATM    8  O   UNL     1      -9.985   8.566  69.364  1.00  0.00    -0.185 OA 
HETATM    9  N   UNL     1     -14.124  13.546  72.400  1.00  0.00    -0.712 NA 
HETATM   10  C   UNL     1     -11.928  11.387  70.708  1.00  0.00    -0.355 A  
HETATM   11  C   UNL     1     -10.221   9.986  69.370  1.00  0.00    -0.222 C  
HETATM   12  C   UNL     1     -11.288  10.199  70.373  1.00  0.00    -0.401 A  
HETATM   13  C   UNL     1     -13.584  12.568  72.086  1.00  0.00    -0.360 C  
HETATM   14  C   UNL     1     -11.598   8.995  70.994  1.00  0.00    -0.360 A  
HETATM   15  C   UNL     1     -12.914  11.359  71.699  1.00  0.00    -0.523 A  
HETATM   16  C   UNL     1     -13.244  10.143  72.322  1.00  0.00    -0.359 A  
HETATM   17  C   UNL     1     -12.594   8.954  71.962  1.00  0.00    -0.460 A  
BRANCH   7  18
HETATM   18  C   UNL     1      -9.693   7.382  71.486  1.00  0.00    -0.170 A  
HETATM   19  C   UNL     1      -9.300   6.027  71.498  1.00  0.00    -0.161 A  
HETATM   20  F   UNL     1      -6.881   5.979  74.200  1.00  0.00    -0.076 F  
HETATM   21  C   UNL     1      -7.791   6.431  73.326  1.00  0.00    -0.097 A  
HETATM   22  C   UNL     1      -8.145   7.772  73.336  1.00  0.00    -0.208 A  
HETATM   23  C   UNL     1      -9.091   8.245  72.422  1.00  0.00    -0.307 A  
HETATM   24  C   UNL     1      -8.362   5.553  72.418  1.00  0.00    -0.118 A  
ENDBRANCH   7  18
ENDBRANCH   6   7
ENDBRANCH   5   6
ENDBRANCH   4   5
ENDBRANCH   2   4
TORSDOF 5
ENDMDL
MODEL       48
REMARK 921   NORMALIZED FREE ENERGY PREDICTED BY IDOCK:   -5.22 KCAL/MOL
REMARK 922        TOTAL FREE ENERGY PREDICTED BY IDOCK:   -7.62 KCAL/MOL
REMARK 923 INTER-LIGAND FREE ENERGY PREDICTED BY IDOCK:   -6.56 KCAL/MOL
REMARK 924 INTRA-LIGAND FREE ENERGY PREDICTED BY IDOCK:   -1.06 KCAL/MOL
REMARK 927      BINDING AFFINITY PREDICTED BY RF-SCORE:    0.00 PKD
ROOT
HETATM    1  C   UNL     1     -12.314  12.210  63.467  1.00  0.00    -0.574 C  
HETATM    2  N   UNL     1     -11.576  13.118  64.350  1.00  0.00    -0.358 NA 
HETATM    3  C   UNL     1     -12.116  14.473  64.219  1.00  0.00    -0.425 C  
ENDROOT
BRANCH   2   4
HETATM    4  C   UNL     1     -11.622  12.621  65.738  1.00  0.00    -0.387 C  
BRANCH   4   5
HETATM    5  C   UNL     1     -10.615  11.492  66.014  1.00  0.00    -0.310 C  
BRANCH   5   6
HETATM    6  C   UNL     1      -9.963  11.641  67.398  1.00  0.00    -0.200 C  
BRANCH   6   7
HETATM    7  C   UNL     1     -10.311  10.501  68.390  1.00  0.00    -0.176 C  
HETATM    8  O   UNL     1     -11.005   9.480  67.607  1.00  0.00    -0.248 OA 
HETATM    9  N   UNL     1      -5.455   6.234  70.741  1.00  0.00    -0.018 NA 
HETATM   10  C   UNL     1      -8.300   7.476  69.094  1.00  0.00    -0.135 A  
HETATM   11  C   UNL     1     -10.451   8.173  67.847  1.00  0.00    -0.197 C  
HETATM   12  C   UNL     1      -9.235   8.408  68.658  1.00  0.00    -0.143 A  
HETATM   13  C   UNL     1      -6.243   6.989  70.347  1.00  0.00    -0.027 C  
HETATM   14  C   UNL     1      -9.127   9.760  68.963  1.00  0.00    -0.157 A  
HETATM   15  C   UNL     1      -7.219   7.923  69.862  1.00  0.00    -0.066 A  
HETATM   16  C   UNL     1      -7.094   9.290  70.163  1.00  0.00    -0.072 A  
HETATM   17  C   UNL     1      -8.042  10.215  69.704  1.00  0.00    -0.178 A  
BRANCH   7  18
HETATM   18  C   UNL     1     -11.264  11.041  69.473  1.00  0.00    -0.343 A  
HETATM   19  C   UNL     1     -11.831  10.180  70.436  1.00  0.00    -0.373 A  
HETATM   20  F   UNL     1     -13.748  12.494  72.467  1.00  0.00    -0.615 F  
HETATM   21  C   UNL     1     -12.950  12.025  71.499  1.00  0.00    -0.304 A  
HETATM   22  C   UNL     1     -12.401  12.903  70.576  1.00  0.00    -0.362 A  
HETATM   23  C   UNL     1     -11.564  12.414  69.568  1.00  0.00    -0.353 A  
HETATM   24  C   UNL     1     -12.675  10.667  71.437  1.00  0.00    -0.545 A  
ENDBRANCH   7  18
ENDBRANCH   6   7
ENDBRANCH   5   6
ENDBRANCH   4   5
ENDBRANCH   2   4
TORSDOF 5
ENDMDL
MODEL       49
REMARK 921   NORMALIZED FREE ENERGY PREDICTED BY IDOCK:   -5.21 KCAL/MOL
REMARK 922        TOTAL FREE ENERGY PREDICTED BY IDOCK:   -7.60 KCAL/MOL
REMARK 923 INTER-LIGAND FREE ENERGY PREDICTED BY IDOCK:   -6.63 KCAL/MOL
REMARK 924 INTRA-LIGAND FREE ENERGY PREDICTED BY IDOCK:   -0.97 KCAL/MOL
REMARK 927      BINDING AFFINITY PREDICTED BY RF-SCORE:    0.00 PKD
ROOT
HETATM    1  C   UNL     1      -5.609  14.688  71.133  1.00  0.00    -0.131 C  
HETATM    2  N   UNL     1      -5.828  14.650  69.684  1.00  0.00    -0.098 NA 
HETATM    3  C   UNL     1      -5.136  13.492  69.115  1.00  0.00    -0.073 C  
ENDROOT
BRANCH   2   4
HETATM    4  C   UNL     1      -7.273  14.646  69.391  1.00  0.00    -0.146 C  
BRANCH   4   5
HETATM    5  C   UNL     1      -7.755  13.349  68.719  1.00  0.00    -0.037 C  
BRANCH   5   6
HETATM    6  C   UNL     1      -8.844  13.626  67.669  1.00  0.00    -0.194 C  
BRANCH   6   7
HETATM    7  C   UNL     1      -9.778  12.420  67.391  1.00  0.00    -0.193 C  
HETATM    8  O   UNL     1      -8.903  11.268  67.185  1.00  0.00    -0.147 OA 
HETATM    9  N   UNL     1     -13.407   9.499  72.452  1.00  0.00    -0.431 NA 
HETATM   10  C   UNL     1     -11.079   9.998  69.868  1.00  0.00    -0.336 A  
HETATM   11  C   UNL     1      -9.328  10.142  67.975  1.00  0.00    -0.141 C  
HETATM   12  C   UNL     1     -10.391  10.667  68.862  1.00  0.00    -0.225 A  
HETATM   13  C   UNL     1     -12.803  10.033  71.618  1.00  0.00    -0.440 C  
HETATM   14  C   UNL     1     -10.649  11.997  68.550  1.00  0.00    -0.252 A  
HETATM   15  C   UNL     1     -12.058  10.695  70.584  1.00  0.00    -0.461 A  
HETATM   16  C   UNL     1     -12.315  12.044  70.287  1.00  0.00    -0.275 A  
HETATM   17  C   UNL     1     -11.602  12.703  69.275  1.00  0.00    -0.376 A  
BRANCH   7  18
HETATM   18  C   UNL     1     -10.579  12.683  66.101  1.00  0.00    -0.280 A  
HETATM   19  C   UNL     1     -11.404  13.820  65.979  1.00  0.00    -0.319 A  
HETATM   20  F   UNL     1     -12.661  13.466  62.595  1.00  0.00    -0.265 F  
HETATM   21  C   UNL     1     -11.992  13.212  63.728  1.00  0.00    -0.508 A  
HETATM   22  C   UNL     1     -11.181  12.090  63.808  1.00  0.00    -0.516 A  
HETATM   23  C   UNL     1     -10.479  11.826  64.988  1.00  0.00    -0.332 A  
HETATM   24  C   UNL     1     -12.113  14.078  64.803  1.00  0.00    -0.455 A  
ENDBRANCH   7  18
ENDBRANCH   6   7
ENDBRANCH   5   6
ENDBRANCH   4   5
ENDBRANCH   2   4
TORSDOF 5
ENDMDL
MODEL       50
REMARK 921   NORMALIZED FREE ENERGY PREDICTED BY IDOCK:   -5.20 KCAL/MOL
REMARK 922        TOTAL FREE ENERGY PREDICTED BY IDOCK:   -7.59 KCAL/MOL
REMARK 923 INTER-LIGAND FREE ENERGY PREDICTED BY IDOCK:   -6.17 KCAL/MOL
REMARK 924 INTRA-LIGAND FREE ENERGY PREDICTED BY IDOCK:   -1.43 KCAL/MOL
REMARK 927      BINDING AFFINITY PREDICTED BY RF-SCORE:    0.00 PKD
ROOT
HETATM    1  C   UNL     1      -8.115   2.969  72.581  1.00  0.00    -0.067 C  
HETATM    2  N   UNL     1      -9.087   3.785  71.846  1.00  0.00    -0.109 NA 
HETATM    3  C   UNL     1      -9.253   3.247  70.494  1.00  0.00    -0.143 C  
ENDROOT
BRANCH   2   4
HETATM    4  C   UNL     1     -10.358   3.849  72.590  1.00  0.00    -0.155 C  
BRANCH   4   5
HETATM    5  C   UNL     1     -10.649   5.240  73.178  1.00  0.00    -0.278 C  
BRANCH   5   6
HETATM    6  C   UNL     1     -11.535   6.077  72.242  1.00  0.00    -0.364 C  
BRANCH   6   7
HETATM    7  C   UNL     1     -10.761   7.129  71.407  1.00  0.00    -0.225 C  
HETATM    8  O   UNL     1      -9.451   7.266  72.040  1.00  0.00    -0.135 OA 
HETATM    9  N   UNL     1      -8.243   5.573  65.197  1.00  0.00    -0.134 NA 
HETATM   10  C   UNL     1      -8.456   6.468  68.588  1.00  0.00    -0.121 A  
HETATM   11  C   UNL     1      -8.390   7.174  71.071  1.00  0.00    -0.124 C  
HETATM   12  C   UNL     1      -9.049   6.764  69.810  1.00  0.00    -0.143 A  
HETATM   13  C   UNL     1      -8.705   5.810  66.235  1.00  0.00    -0.134 C  
HETATM   14  C   UNL     1     -10.425   6.712  69.994  1.00  0.00    -0.250 A  
HETATM   15  C   UNL     1      -9.278   6.104  67.518  1.00  0.00    -0.111 A  
HETATM   16  C   UNL     1     -10.670   6.034  67.698  1.00  0.00    -0.377 A  
HETATM   17  C   UNL     1     -11.248   6.326  68.942  1.00  0.00    -0.387 A  
BRANCH   7  18
HETATM   18  C   UNL     1     -11.500   8.479  71.475  1.00  0.00    -0.350 A  
HETATM   19  C   UNL     1     -11.005   9.612  70.795  1.00  0.00    -0.397 A  
HETATM   20  F   UNL     1     -13.533  12.098  71.557  1.00  0.00    -0.401 F  
HETATM   21  C   UNL     1     -12.875  10.932  71.534  1.00  0.00    -0.454 A  
HETATM   22  C   UNL     1     -13.397   9.836  72.205  1.00  0.00    -0.527 A  
HETATM   23  C   UNL     1     -12.713   8.617  72.177  1.00  0.00    -0.447 A  
HETATM   24  C   UNL     1     -11.684  10.833  70.831  1.00  0.00    -0.334 A  
ENDBRANCH   7  18
ENDBRANCH   6   7
ENDBRANCH   5   6
ENDBRANCH   4   5
ENDBRANCH   2   4
TORSDOF 5
ENDMDL
MODEL       51
REMARK 921   NORMALIZED FREE ENERGY PREDICTED BY IDOCK:   -5.19 KCAL/MOL
REMARK 922        TOTAL FREE ENERGY PREDICTED BY IDOCK:   -7.58 KCAL/MOL
REMARK 923 INTER-LIGAND FREE ENERGY PREDICTED BY IDOCK:   -6.80 KCAL/MOL
REMARK 924 INTRA-LIGAND FREE ENERGY PREDICTED BY IDOCK:   -0.79 KCAL/MOL
REMARK 927      BINDING AFFINITY PREDICTED BY RF-SCORE:    0.00 PKD
ROOT
HETATM    1  C   UNL     1     -13.816   8.903  71.604  1.00  0.00    -0.384 C  
HETATM    2  N   UNL     1     -12.676   9.779  71.891  1.00  0.00    -0.404 NA 
HETATM    3  C   UNL     1     -11.433   9.011  71.794  1.00  0.00    -0.372 C  
ENDROOT
BRANCH   2   4
HETATM    4  C   UNL     1     -12.694  10.944  70.989  1.00  0.00    -0.407 C  
BRANCH   4   5
HETATM    5  C   UNL     1     -11.419  11.075  70.138  1.00  0.00    -0.383 C  
BRANCH   5   6
HETATM    6  C   UNL     1     -11.446  12.343  69.269  1.00  0.00    -0.349 C  
BRANCH   6   7
HETATM    7  C   UNL     1     -10.451  12.319  68.080  1.00  0.00    -0.217 C  
HETATM    8  O   UNL     1      -9.190  12.849  68.595  1.00  0.00    -0.102 OA 
HETATM    9  N   UNL     1      -7.728   6.407  65.852  1.00  0.00    -0.091 NA 
HETATM   10  C   UNL     1      -8.064   9.620  67.235  1.00  0.00    -0.110 A  
HETATM   11  C   UNL     1      -8.084  11.996  68.248  1.00  0.00    -0.155 C  
HETATM   12  C   UNL     1      -8.697  10.781  67.664  1.00  0.00    -0.126 A  
HETATM   13  C   UNL     1      -8.228   7.382  66.235  1.00  0.00    -0.126 C  
HETATM   14  C   UNL     1     -10.075  10.943  67.581  1.00  0.00    -0.206 A  
HETATM   15  C   UNL     1      -8.847   8.589  66.706  1.00  0.00    -0.158 A  
HETATM   16  C   UNL     1     -10.242   8.738  66.632  1.00  0.00    -0.340 A  
HETATM   17  C   UNL     1     -10.862   9.913  67.080  1.00  0.00    -0.227 A  
BRANCH   7  18
HETATM   18  C   UNL     1     -10.970  13.243  66.962  1.00  0.00    -0.291 A  
HETATM   19  C   UNL     1     -10.246  14.391  66.577  1.00  0.00    -0.276 A  
HETATM   20  F   UNL     1     -12.293  15.687  63.878  1.00  0.00    -0.411 F  
HETATM   21  C   UNL     1     -11.868  14.901  64.876  1.00  0.00    -0.337 A  
HETATM   22  C   UNL     1     -12.599  13.773  65.220  1.00  0.00    -0.510 A  
HETATM   23  C   UNL     1     -12.153  12.950  66.258  1.00  0.00    -0.433 A  
HETATM   24  C   UNL     1     -10.697  15.220  65.547  1.00  0.00    -0.385 A  
ENDBRANCH   7  18
ENDBRANCH   6   7
ENDBRANCH   5   6
ENDBRANCH   4   5
ENDBRANCH   2   4
TORSDOF 5
ENDMDL
MODEL       52
REMARK 921   NORMALIZED FREE ENERGY PREDICTED BY IDOCK:   -5.18 KCAL/MOL
REMARK 922        TOTAL FREE ENERGY PREDICTED BY IDOCK:   -7.57 KCAL/MOL
REMARK 923 INTER-LIGAND FREE ENERGY PREDICTED BY IDOCK:   -6.58 KCAL/MOL
REMARK 924 INTRA-LIGAND FREE ENERGY PREDICTED BY IDOCK:   -0.98 KCAL/MOL
REMARK 927      BINDING AFFINITY PREDICTED BY RF-SCORE:    0.00 PKD
ROOT
HETATM    1  C   UNL     1     -10.517  11.015  64.602  1.00  0.00    -0.329 C  
HETATM    2  N   UNL     1     -11.056  11.915  63.578  1.00  0.00    -0.422 NA 
HETATM    3  C   UNL     1     -12.514  11.793  63.536  1.00  0.00    -0.389 C  
ENDROOT
BRANCH   2   4
HETATM    4  C   UNL     1     -10.610  13.297  63.835  1.00  0.00    -0.047 C  
BRANCH   4   5
HETATM    5  C   UNL     1     -11.565  14.084  64.750  1.00  0.00    -0.387 C  
BRANCH   5   6
HETATM    6  C   UNL     1     -10.850  15.259  65.437  1.00  0.00    -0.399 C  
BRANCH   6   7
HETATM    7  C   UNL     1     -10.657  15.078  66.965  1.00  0.00    -0.293 C  
HETATM    8  O   UNL     1     -11.999  15.007  67.538  1.00  0.00    -0.272 OA 
HETATM    9  N   UNL     1      -8.583   9.067  69.591  1.00  0.00    -0.131 NA 
HETATM   10  C   UNL     1     -10.543  11.882  68.827  1.00  0.00    -0.234 A  
HETATM   11  C   UNL     1     -12.128  13.881  68.426  1.00  0.00    -0.291 C  
HETATM   12  C   UNL     1     -10.883  13.100  68.249  1.00  0.00    -0.274 A  
HETATM   13  C   UNL     1      -8.904  10.075  69.113  1.00  0.00    -0.168 C  
HETATM   14  C   UNL     1     -10.026  13.771  67.385  1.00  0.00    -0.237 A  
HETATM   15  C   UNL     1      -9.299  11.322  68.521  1.00  0.00    -0.182 A  
HETATM   16  C   UNL     1      -8.432  11.985  67.637  1.00  0.00    -0.160 A  
HETATM   17  C   UNL     1      -8.798  13.208  67.056  1.00  0.00    -0.212 A  
BRANCH   7  18
HETATM   18  C   UNL     1      -9.927  16.309  67.536  1.00  0.00    -0.248 A  
HETATM   19  C   UNL     1     -10.643  17.459  67.928  1.00  0.00    -0.383 A  
HETATM   20  F   UNL     1      -7.992  19.594  69.178  1.00  0.00    -0.392 F  
HETATM   21  C   UNL     1      -8.616  18.536  68.645  1.00  0.00    -0.296 A  
HETATM   22  C   UNL     1      -7.881  17.417  68.282  1.00  0.00    -0.247 A  
HETATM   23  C   UNL     1      -8.532  16.310  67.729  1.00  0.00    -0.169 A  
HETATM   24  C   UNL     1      -9.991  18.569  68.470  1.00  0.00    -0.419 A  
ENDBRANCH   7  18
ENDBRANCH   6   7
ENDBRANCH   5   6
ENDBRANCH   4   5
ENDBRANCH   2   4
TORSDOF 5
ENDMDL
MODEL       53
REMARK 921   NORMALIZED FREE ENERGY PREDICTED BY IDOCK:   -5.17 KCAL/MOL
REMARK 922        TOTAL FREE ENERGY PREDICTED BY IDOCK:   -7.56 KCAL/MOL
REMARK 923 INTER-LIGAND FREE ENERGY PREDICTED BY IDOCK:   -6.97 KCAL/MOL
REMARK 924 INTRA-LIGAND FREE ENERGY PREDICTED BY IDOCK:   -0.59 KCAL/MOL
REMARK 927      BINDING AFFINITY PREDICTED BY RF-SCORE:    0.00 PKD
ROOT
HETATM    1  C   UNL     1     -11.164   8.971  71.885  1.00  0.00    -0.368 C  
HETATM    2  N   UNL     1     -12.367   9.063  71.051  1.00  0.00    -0.245 NA 
HETATM    3  C   UNL     1     -13.439   8.268  71.653  1.00  0.00    -0.331 C  
ENDROOT
BRANCH   2   4
HETATM    4  C   UNL     1     -12.745  10.475  70.863  1.00  0.00    -0.402 C  
BRANCH   4   5
HETATM    5  C   UNL     1     -11.814  11.232  69.902  1.00  0.00    -0.436 C  
BRANCH   5   6
HETATM    6  C   UNL     1     -11.366  10.343  68.730  1.00  0.00    -0.275 C  
BRANCH   6   7
HETATM    7  C   UNL     1     -10.263  10.974  67.840  1.00  0.00    -0.182 C  
HETATM    8  O   UNL     1     -10.087  10.066  66.708  1.00  0.00    -0.205 OA 
HETATM    9  N   UNL     1     -11.566  16.500  63.957  1.00  0.00    -1.124 NA 
HETATM   10  C   UNL     1     -10.760  13.227  64.947  1.00  0.00    -0.365 A  
HETATM   11  C   UNL     1     -10.111  10.780  65.458  1.00  0.00    -0.274 C  
HETATM   12  C   UNL     1     -10.518  12.160  65.806  1.00  0.00    -0.287 A  
HETATM   13  C   UNL     1     -11.373  15.587  64.645  1.00  0.00    -0.357 C  
HETATM   14  C   UNL     1     -10.632  12.284  67.185  1.00  0.00    -0.250 A  
HETATM   15  C   UNL     1     -11.133  14.457  65.498  1.00  0.00    -0.326 A  
HETATM   16  C   UNL     1     -11.266  14.587  66.891  1.00  0.00    -0.340 A  
HETATM   17  C   UNL     1     -11.027  13.497  67.739  1.00  0.00    -0.284 A  
BRANCH   7  18
HETATM   18  C   UNL     1      -8.947  11.051  68.637  1.00  0.00    -0.167 A  
HETATM   19  C   UNL     1      -8.601  10.046  69.565  1.00  0.00    -0.197 A  
HETATM   20  F   UNL     1      -5.354  11.182  70.714  1.00  0.00    -0.082 F  
HETATM   21  C   UNL     1      -6.515  11.141  70.047  1.00  0.00    -0.133 A  
HETATM   22  C   UNL     1      -6.817  12.141  69.133  1.00  0.00    -0.078 A  
HETATM   23  C   UNL     1      -8.026  12.097  68.434  1.00  0.00    -0.152 A  
HETATM   24  C   UNL     1      -7.397  10.095  70.272  1.00  0.00    -0.108 A  
ENDBRANCH   7  18
ENDBRANCH   6   7
ENDBRANCH   5   6
ENDBRANCH   4   5
ENDBRANCH   2   4
TORSDOF 5
ENDMDL
MODEL       54
REMARK 921   NORMALIZED FREE ENERGY PREDICTED BY IDOCK:   -5.12 KCAL/MOL
REMARK 922        TOTAL FREE ENERGY PREDICTED BY IDOCK:   -7.49 KCAL/MOL
REMARK 923 INTER-LIGAND FREE ENERGY PREDICTED BY IDOCK:   -6.67 KCAL/MOL
REMARK 924 INTRA-LIGAND FREE ENERGY PREDICTED BY IDOCK:   -0.82 KCAL/MOL
REMARK 927      BINDING AFFINITY PREDICTED BY RF-SCORE:    0.00 PKD
ROOT
HETATM    1  C   UNL     1      -7.999   9.142  63.416  1.00  0.00    -0.148 C  
HETATM    2  N   UNL     1      -8.200   9.159  64.868  1.00  0.00    -0.143 NA 
HETATM    3  C   UNL     1      -7.338  10.179  65.469  1.00  0.00    -0.143 C  
ENDROOT
BRANCH   2   4
HETATM    4  C   UNL     1      -9.626   9.369  65.178  1.00  0.00    -0.124 C  
BRANCH   4   5
HETATM    5  C   UNL     1      -9.934  10.781  65.703  1.00  0.00    -0.317 C  
BRANCH   5   6
HETATM    6  C   UNL     1     -10.945  10.747  66.861  1.00  0.00    -0.255 C  
BRANCH   6   7
HETATM    7  C   UNL     1     -10.474  11.491  68.137  1.00  0.00    -0.193 C  
HETATM    8  O   UNL     1      -9.023  11.325  68.191  1.00  0.00    -0.152 OA 
HETATM    9  N   UNL     1     -10.285  18.363  68.374  1.00  0.00    -0.384 NA 
HETATM   10  C   UNL     1      -9.296  14.991  68.362  1.00  0.00    -0.193 A  
HETATM   11  C   UNL     1      -8.362  12.584  68.416  1.00  0.00    -0.132 C  
HETATM   12  C   UNL     1      -9.425  13.609  68.299  1.00  0.00    -0.213 A  
HETATM   13  C   UNL     1     -10.356  17.207  68.310  1.00  0.00    -0.354 C  
HETATM   14  C   UNL     1     -10.656  12.990  68.115  1.00  0.00    -0.257 A  
HETATM   15  C   UNL     1     -10.446  15.776  68.231  1.00  0.00    -0.259 A  
HETATM   16  C   UNL     1     -11.693  15.161  68.029  1.00  0.00    -0.304 A  
HETATM   17  C   UNL     1     -11.800  13.764  67.959  1.00  0.00    -0.408 A  
BRANCH   7  18
HETATM   18  C   UNL     1     -11.105  10.827  69.376  1.00  0.00    -0.324 A  
HETATM   19  C   UNL     1     -12.182  11.435  70.055  1.00  0.00    -0.377 A  
HETATM   20  F   UNL     1     -12.890   9.003  72.651  1.00  0.00    -0.455 F  
HETATM   21  C   UNL     1     -12.312   9.593  71.597  1.00  0.00    -0.404 A  
HETATM   22  C   UNL     1     -11.262   8.961  70.946  1.00  0.00    -0.334 A  
HETATM   23  C   UNL     1     -10.661   9.575  69.843  1.00  0.00    -0.268 A  
HETATM   24  C   UNL     1     -12.775  10.826  71.164  1.00  0.00    -0.532 A  
ENDBRANCH   7  18
ENDBRANCH   6   7
ENDBRANCH   5   6
ENDBRANCH   4   5
ENDBRANCH   2   4
TORSDOF 5
ENDMDL
MODEL       55
REMARK 921   NORMALIZED FREE ENERGY PREDICTED BY IDOCK:   -5.08 KCAL/MOL
REMARK 922        TOTAL FREE ENERGY PREDICTED BY IDOCK:   -7.43 KCAL/MOL
REMARK 923 INTER-LIGAND FREE ENERGY PREDICTED BY IDOCK:   -6.49 KCAL/MOL
REMARK 924 INTRA-LIGAND FREE ENERGY PREDICTED BY IDOCK:   -0.94 KCAL/MOL
REMARK 927      BINDING AFFINITY PREDICTED BY RF-SCORE:    0.00 PKD
ROOT
HETATM    1  C   UNL     1     -10.661   6.194  73.373  1.00  0.00    -0.259 C  
HETATM    2  N   UNL     1      -9.202   6.312  73.451  1.00  0.00    -0.131 NA 
HETATM    3  C   UNL     1      -8.587   5.439  72.449  1.00  0.00    -0.122 C  
ENDROOT
BRANCH   2   4
HETATM    4  C   UNL     1      -8.800   7.722  73.296  1.00  0.00    -0.221 C  
BRANCH   4   5
HETATM    5  C   UNL     1      -9.836   8.571  72.540  1.00  0.00    -0.324 C  
BRANCH   5   6
HETATM    6  C   UNL     1      -9.315   9.003  71.159  1.00  0.00    -0.336 C  
BRANCH   6   7
HETATM    7  C   UNL     1     -10.430   9.294  70.122  1.00  0.00    -0.230 C  
HETATM    8  O   UNL     1     -11.677   9.379  70.880  1.00  0.00    -0.281 OA 
HETATM    9  N   UNL     1     -11.070  15.510  67.247  1.00  0.00    -0.304 NA 
HETATM   10  C   UNL     1     -11.726  12.613  69.124  1.00  0.00    -0.375 A  
HETATM   11  C   UNL     1     -12.420  10.562  70.531  1.00  0.00    -0.347 C  
HETATM   12  C   UNL     1     -11.512  11.352  69.668  1.00  0.00    -0.380 A  
HETATM   13  C   UNL     1     -10.916  14.466  67.730  1.00  0.00    -0.274 C  
HETATM   14  C   UNL     1     -10.342  10.638  69.439  1.00  0.00    -0.234 A  
HETATM   15  C   UNL     1     -10.725  13.174  68.325  1.00  0.00    -0.261 A  
HETATM   16  C   UNL     1      -9.531  12.467  68.100  1.00  0.00    -0.214 A  
HETATM   17  C   UNL     1      -9.332  11.200  68.667  1.00  0.00    -0.186 A  
BRANCH   7  18
HETATM   18  C   UNL     1     -10.521   8.119  69.129  1.00  0.00    -0.217 A  
HETATM   19  C   UNL     1     -10.499   8.344  67.737  1.00  0.00    -0.284 A  
HETATM   20  F   UNL     1     -10.657   4.962  66.437  1.00  0.00    -0.275 F  
HETATM   21  C   UNL     1     -10.617   5.981  67.305  1.00  0.00    -0.294 A  
HETATM   22  C   UNL     1     -10.628   5.722  68.668  1.00  0.00    -0.305 A  
HETATM   23  C   UNL     1     -10.582   6.785  69.575  1.00  0.00    -0.265 A  
HETATM   24  C   UNL     1     -10.556   7.282  66.830  1.00  0.00    -0.375 A  
ENDBRANCH   7  18
ENDBRANCH   6   7
ENDBRANCH   5   6
ENDBRANCH   4   5
ENDBRANCH   2   4
TORSDOF 5
ENDMDL
MODEL       56
REMARK 921   NORMALIZED FREE ENERGY PREDICTED BY IDOCK:   -5.06 KCAL/MOL
REMARK 922        TOTAL FREE ENERGY PREDICTED BY IDOCK:   -7.41 KCAL/MOL
REMARK 923 INTER-LIGAND FREE ENERGY PREDICTED BY IDOCK:   -6.11 KCAL/MOL
REMARK 924 INTRA-LIGAND FREE ENERGY PREDICTED BY IDOCK:   -1.30 KCAL/MOL
REMARK 927      BINDING AFFINITY PREDICTED BY RF-SCORE:    0.00 PKD
ROOT
HETATM    1  C   UNL     1      -6.583  13.634  69.151  1.00  0.00    -0.109 C  
HETATM    2  N   UNL     1      -7.440  12.947  68.179  1.00  0.00    -0.113 NA 
HETATM    3  C   UNL     1      -8.038  13.930  67.275  1.00  0.00    -0.145 C  
ENDROOT
BRANCH   2   4
HETATM    4  C   UNL     1      -6.665  11.916  67.464  1.00  0.00    -0.111 C  
BRANCH   4   5
HETATM    5  C   UNL     1      -6.915  10.492  67.990  1.00  0.00    -0.074 C  
BRANCH   5   6
HETATM    6  C   UNL     1      -7.424   9.559  66.879  1.00  0.00    -0.094 C  
BRANCH   6   7
HETATM    7  C   UNL     1      -8.969   9.452  66.799  1.00  0.00    -0.131 C  
HETATM    8  O   UNL     1      -9.477   9.951  68.075  1.00  0.00    -0.134 OA 
HETATM    9  N   UNL     1     -12.633  13.830  62.961  1.00  0.00    -0.538 NA 
HETATM   10  C   UNL     1     -11.326  12.094  65.722  1.00  0.00    -0.402 A  
HETATM   11  C   UNL     1     -10.527  10.916  67.877  1.00  0.00    -0.195 C  
HETATM   12  C   UNL     1     -10.543  11.182  66.421  1.00  0.00    -0.315 A  
HETATM   13  C   UNL     1     -11.983  13.091  63.575  1.00  0.00    -0.545 C  
HETATM   14  C   UNL     1      -9.627  10.355  65.782  1.00  0.00    -0.269 A  
HETATM   15  C   UNL     1     -11.178  12.175  64.334  1.00  0.00    -0.400 A  
HETATM   16  C   UNL     1     -10.244  11.354  63.681  1.00  0.00    -0.448 A  
HETATM   17  C   UNL     1      -9.455  10.448  64.405  1.00  0.00    -0.343 A  
BRANCH   7  18
HETATM   18  C   UNL     1      -9.370   7.973  66.638  1.00  0.00    -0.249 A  
HETATM   19  C   UNL     1     -10.579   7.487  67.177  1.00  0.00    -0.415 A  
HETATM   20  F   UNL     1     -10.521   4.018  66.122  1.00  0.00    -0.163 F  
HETATM   21  C   UNL     1     -10.148   5.293  66.292  1.00  0.00    -0.207 A  
HETATM   22  C   UNL     1      -8.958   5.740  65.737  1.00  0.00    -0.144 A  
HETATM   23  C   UNL     1      -8.570   7.071  65.910  1.00  0.00    -0.152 A  
HETATM   24  C   UNL     1     -10.962   6.153  67.013  1.00  0.00    -0.414 A  
ENDBRANCH   7  18
ENDBRANCH   6   7
ENDBRANCH   5   6
ENDBRANCH   4   5
ENDBRANCH   2   4
TORSDOF 5
ENDMDL
MODEL       57
REMARK 921   NORMALIZED FREE ENERGY PREDICTED BY IDOCK:   -5.02 KCAL/MOL
REMARK 922        TOTAL FREE ENERGY PREDICTED BY IDOCK:   -7.36 KCAL/MOL
REMARK 923 INTER-LIGAND FREE ENERGY PREDICTED BY IDOCK:   -6.72 KCAL/MOL
REMARK 924 INTRA-LIGAND FREE ENERGY PREDICTED BY IDOCK:   -0.63 KCAL/MOL
REMARK 927      BINDING AFFINITY PREDICTED BY RF-SCORE:    0.00 PKD
ROOT
HETATM    1  C   UNL     1      -8.221  10.094  66.169  1.00  0.00    -0.125 C  
HETATM    2  N   UNL     1      -7.068  10.462  66.997  1.00  0.00    -0.089 NA 
HETATM    3  C   UNL     1      -5.950  10.849  66.134  1.00  0.00    -0.141 C  
ENDROOT
BRANCH   2   4
HETATM    4  C   UNL     1      -7.446  11.525  67.946  1.00  0.00    -0.103 C  
BRANCH   4   5
HETATM    5  C   UNL     1      -8.292  12.639  67.307  1.00  0.00    -0.189 C  
BRANCH   5   6
HETATM    6  C   UNL     1      -9.514  12.989  68.172  1.00  0.00    -0.218 C  
BRANCH   6   7
HETATM    7  C   UNL     1     -10.445  14.062  67.550  1.00  0.00    -0.252 C  
HETATM    8  O   UNL     1     -11.490  14.315  68.540  1.00  0.00    -0.266 OA 
HETATM    9  N   UNL     1      -8.473  20.636  67.090  1.00  0.00    -0.273 NA 
HETATM   10  C   UNL     1     -10.223  17.728  68.001  1.00  0.00    -0.377 A  
HETATM   11  C   UNL     1     -11.664  15.726  68.767  1.00  0.00    -0.378 C  
HETATM   12  C   UNL     1     -10.550  16.377  68.040  1.00  0.00    -0.314 A  
HETATM   13  C   UNL     1      -8.762  19.514  67.157  1.00  0.00    -0.301 C  
HETATM   14  C   UNL     1      -9.818  15.421  67.346  1.00  0.00    -0.216 A  
HETATM   15  C   UNL     1      -9.120  18.126  67.238  1.00  0.00    -0.252 A  
HETATM   16  C   UNL     1      -8.366  17.165  66.545  1.00  0.00    -0.309 A  
HETATM   17  C   UNL     1      -8.706  15.806  66.606  1.00  0.00    -0.323 A  
BRANCH   7  18
HETATM   18  C   UNL     1     -11.089  13.498  66.269  1.00  0.00    -0.308 A  
HETATM   19  C   UNL     1     -11.274  12.110  66.100  1.00  0.00    -0.386 A  
HETATM   20  F   UNL     1     -12.921  11.967  62.872  1.00  0.00    -0.600 F  
HETATM   21  C   UNL     1     -12.326  12.460  63.966  1.00  0.00    -0.488 A  
HETATM   22  C   UNL     1     -12.172  13.832  64.104  1.00  0.00    -0.443 A  
HETATM   23  C   UNL     1     -11.555  14.348  65.247  1.00  0.00    -0.353 A  
HETATM   24  C   UNL     1     -11.880  11.594  64.952  1.00  0.00    -0.018 A  
ENDBRANCH   7  18
ENDBRANCH   6   7
ENDBRANCH   5   6
ENDBRANCH   4   5
ENDBRANCH   2   4
TORSDOF 5
ENDMDL
MODEL       58
REMARK 921   NORMALIZED FREE ENERGY PREDICTED BY IDOCK:   -5.01 KCAL/MOL
REMARK 922        TOTAL FREE ENERGY PREDICTED BY IDOCK:   -7.35 KCAL/MOL
REMARK 923 INTER-LIGAND FREE ENERGY PREDICTED BY IDOCK:   -7.05 KCAL/MOL
REMARK 924 INTRA-LIGAND FREE ENERGY PREDICTED BY IDOCK:   -0.30 KCAL/MOL
REMARK 927      BINDING AFFINITY PREDICTED BY RF-SCORE:    0.00 PKD
ROOT
HETATM    1  C   UNL     1     -13.655  14.615  71.866  1.00  0.00    -0.392 C  
HETATM    2  N   UNL     1     -12.911  15.758  71.328  1.00  0.00    -0.480 NA 
HETATM    3  C   UNL     1     -12.030  16.299  72.365  1.00  0.00    -0.540 C  
ENDROOT
BRANCH   2   4
HETATM    4  C   UNL     1     -12.177  15.357  70.114  1.00  0.00    -0.375 C  
BRANCH   4   5
HETATM    5  C   UNL     1     -12.167  13.837  69.882  1.00  0.00    -0.383 C  
BRANCH   5   6
HETATM    6  C   UNL     1     -10.833  13.364  69.282  1.00  0.00    -0.085 C  
BRANCH   6   7
HETATM    7  C   UNL     1     -10.876  11.931  68.691  1.00  0.00    -0.235 C  
HETATM    8  O   UNL     1     -11.945  11.935  67.694  1.00  0.00    -0.575 OA 
HETATM    9  N   UNL     1      -6.024   9.747  64.330  1.00  0.00    -0.087 NA 
HETATM   10  C   UNL     1      -9.126  10.725  65.662  1.00  0.00    -0.215 A  
HETATM   11  C   UNL     1     -11.500  11.365  66.449  1.00  0.00     0.020 C  
HETATM   12  C   UNL     1     -10.040  11.178  66.606  1.00  0.00    -0.256 A  
HETATM   13  C   UNL     1      -6.810  10.137  65.090  1.00  0.00    -0.134 C  
HETATM   14  C   UNL     1      -9.657  11.524  67.896  1.00  0.00    -0.178 A  
HETATM   15  C   UNL     1      -7.781  10.620  66.031  1.00  0.00    -0.151 A  
HETATM   16  C   UNL     1      -7.382  10.982  67.328  1.00  0.00    -0.106 A  
HETATM   17  C   UNL     1      -8.318  11.447  68.263  1.00  0.00    -0.152 A  
BRANCH   7  18
HETATM   18  C   UNL     1     -11.228  10.929  69.807  1.00  0.00    -0.351 A  
HETATM   19  C   UNL     1     -10.243  10.085  70.361  1.00  0.00    -0.218 A  
HETATM   20  F   UNL     1     -12.134   8.299  72.889  1.00  0.00    -0.448 F  
HETATM   21  C   UNL     1     -11.842   9.145  71.892  1.00  0.00    -0.369 A  
HETATM   22  C   UNL     1     -12.833   9.969  71.379  1.00  0.00    -0.519 A  
HETATM   23  C   UNL     1     -12.529  10.854  70.341  1.00  0.00    -0.411 A  
HETATM   24  C   UNL     1     -10.550   9.192  71.391  1.00  0.00    -0.412 A  
ENDBRANCH   7  18
ENDBRANCH   6   7
ENDBRANCH   5   6
ENDBRANCH   4   5
ENDBRANCH   2   4
TORSDOF 5
ENDMDL
MODEL       59
REMARK 921   NORMALIZED FREE ENERGY PREDICTED BY IDOCK:   -5.01 KCAL/MOL
REMARK 922        TOTAL FREE ENERGY PREDICTED BY IDOCK:   -7.35 KCAL/MOL
REMARK 923 INTER-LIGAND FREE ENERGY PREDICTED BY IDOCK:   -6.05 KCAL/MOL
REMARK 924 INTRA-LIGAND FREE ENERGY PREDICTED BY IDOCK:   -1.30 KCAL/MOL
REMARK 927      BINDING AFFINITY PREDICTED BY RF-SCORE:    0.00 PKD
ROOT
HETATM    1  C   UNL     1      -8.289   5.865  69.928  1.00  0.00    -0.121 C  
HETATM    2  N   UNL     1      -8.521   7.214  70.453  1.00  0.00    -0.139 NA 
HETATM    3  C   UNL     1      -8.530   7.174  71.917  1.00  0.00    -0.108 C  
ENDROOT
BRANCH   2   4
HETATM    4  C   UNL     1      -7.510   8.144  69.918  1.00  0.00    -0.069 C  
BRANCH   4   5
HETATM    5  C   UNL     1      -8.013   9.594  69.811  1.00  0.00    -0.154 C  
BRANCH   5   6
HETATM    6  C   UNL     1      -8.199  10.022  68.346  1.00  0.00    -0.106 C  
BRANCH   6   7
HETATM    7  C   UNL     1      -9.640   9.831  67.807  1.00  0.00    -0.135 C  
HETATM    8  O   UNL     1     -10.532  10.065  68.941  1.00  0.00    -0.191 OA 
HETATM    9  N   UNL     1     -12.577  14.566  63.772  1.00  0.00    -0.750 NA 
HETATM   10  C   UNL     1     -11.892  12.462  66.502  1.00  0.00    -0.407 A  
HETATM   11  C   UNL     1     -11.588  10.979  68.594  1.00  0.00    -0.316 C  
HETATM   12  C   UNL     1     -11.233  11.495  67.253  1.00  0.00    -0.365 A  
HETATM   13  C   UNL     1     -12.041  13.775  64.431  1.00  0.00    -0.436 C  
HETATM   14  C   UNL     1     -10.090  10.853  66.790  1.00  0.00    -0.259 A  
HETATM   15  C   UNL     1     -11.379  12.795  65.244  1.00  0.00    -0.338 A  
HETATM   16  C   UNL     1     -10.215  12.163  64.774  1.00  0.00    -0.310 A  
HETATM   17  C   UNL     1      -9.560  11.197  65.552  1.00  0.00    -0.263 A  
BRANCH   7  18
HETATM   18  C   UNL     1      -9.813   8.380  67.318  1.00  0.00    -0.264 A  
HETATM   19  C   UNL     1      -8.864   7.785  66.461  1.00  0.00    -0.175 A  
HETATM   20  F   UNL     1     -10.205   4.438  66.077  1.00  0.00    -0.205 F  
HETATM   21  C   UNL     1     -10.081   5.711  66.474  1.00  0.00    -0.185 A  
HETATM   22  C   UNL     1     -11.027   6.260  67.326  1.00  0.00    -0.455 A  
HETATM   23  C   UNL     1     -10.896   7.587  67.745  1.00  0.00    -0.156 A  
HETATM   24  C   UNL     1      -9.001   6.462  66.034  1.00  0.00    -0.143 A  
ENDBRANCH   7  18
ENDBRANCH   6   7
ENDBRANCH   5   6
ENDBRANCH   4   5
ENDBRANCH   2   4
TORSDOF 5
ENDMDL
MODEL       60
REMARK 921   NORMALIZED FREE ENERGY PREDICTED BY IDOCK:   -4.98 KCAL/MOL
REMARK 922        TOTAL FREE ENERGY PREDICTED BY IDOCK:   -7.31 KCAL/MOL
REMARK 923 INTER-LIGAND FREE ENERGY PREDICTED BY IDOCK:   -6.73 KCAL/MOL
REMARK 924 INTRA-LIGAND FREE ENERGY PREDICTED BY IDOCK:   -0.58 KCAL/MOL
REMARK 927      BINDING AFFINITY PREDICTED BY RF-SCORE:    0.00 PKD
ROOT
HETATM    1  C   UNL     1     -14.325  14.773  71.744  1.00  0.00    -0.569 C  
HETATM    2  N   UNL     1     -13.244  14.087  72.459  1.00  0.00    -0.484 NA 
HETATM    3  C   UNL     1     -13.302  12.653  72.171  1.00  0.00    -0.466 C  
ENDROOT
BRANCH   2   4
HETATM    4  C   UNL     1     -11.944  14.684  72.102  1.00  0.00    -0.191 C  
BRANCH   4   5
HETATM    5  C   UNL     1     -11.644  14.635  70.595  1.00  0.00    -0.305 C  
BRANCH   5   6
HETATM    6  C   UNL     1     -10.346  15.383  70.251  1.00  0.00    -0.205 C  
BRANCH   6   7
HETATM    7  C   UNL     1     -10.168  15.684  68.740  1.00  0.00    -0.215 C  
HETATM    8  O   UNL     1     -11.260  16.583  68.374  1.00  0.00    -0.359 OA 
HETATM    9  N   UNL     1      -5.190  19.880  66.519  1.00  0.00    -0.166 NA 
HETATM   10  C   UNL     1      -8.358  18.542  67.241  1.00  0.00    -0.259 A  
HETATM   11  C   UNL     1     -10.774  17.724  67.642  1.00  0.00    -0.322 C  
HETATM   12  C   UNL     1      -9.298  17.640  67.724  1.00  0.00    -0.255 A  
HETATM   13  C   UNL     1      -6.000  19.155  66.925  1.00  0.00    -0.162 C  
HETATM   14  C   UNL     1      -8.930  16.471  68.379  1.00  0.00    -0.219 A  
HETATM   15  C   UNL     1      -7.002  18.257  67.427  1.00  0.00    -0.207 A  
HETATM   16  C   UNL     1      -6.619  17.085  68.101  1.00  0.00    -0.149 A  
HETATM   17  C   UNL     1      -7.584  16.193  68.591  1.00  0.00    -0.183 A  
BRANCH   7  18
HETATM   18  C   UNL     1     -10.302  14.374  67.940  1.00  0.00    -0.232 A  
HETATM   19  C   UNL     1      -9.197  13.515  67.765  1.00  0.00    -0.213 A  
HETATM   20  F   UNL     1     -10.668  10.787  65.882  1.00  0.00    -0.293 F  
HETATM   21  C   UNL     1     -10.549  11.946  66.543  1.00  0.00    -0.243 A  
HETATM   22  C   UNL     1     -11.660  12.760  66.706  1.00  0.00    -0.431 A  
HETATM   23  C   UNL     1     -11.537  13.968  67.399  1.00  0.00    -0.397 A  
HETATM   24  C   UNL     1      -9.317  12.313  67.063  1.00  0.00    -0.205 A  
ENDBRANCH   7  18
ENDBRANCH   6   7
ENDBRANCH   5   6
ENDBRANCH   4   5
ENDBRANCH   2   4
TORSDOF 5
ENDMDL
MODEL       61
REMARK 921   NORMALIZED FREE ENERGY PREDICTED BY IDOCK:   -4.97 KCAL/MOL
REMARK 922        TOTAL FREE ENERGY PREDICTED BY IDOCK:   -7.29 KCAL/MOL
REMARK 923 INTER-LIGAND FREE ENERGY PREDICTED BY IDOCK:   -6.13 KCAL/MOL
REMARK 924 INTRA-LIGAND FREE ENERGY PREDICTED BY IDOCK:   -1.17 KCAL/MOL
REMARK 927      BINDING AFFINITY PREDICTED BY RF-SCORE:    0.00 PKD
ROOT
HETATM    1  C   UNL     1     -13.079  13.446  71.329  1.00  0.00    -0.238 C  
HETATM    2  N   UNL     1     -12.773  14.775  70.789  1.00  0.00    -0.343 NA 
HETATM    3  C   UNL     1     -13.273  15.802  71.705  1.00  0.00    -0.386 C  
ENDROOT
BRANCH   2   4
HETATM    4  C   UNL     1     -11.326  14.896  70.536  1.00  0.00    -0.235 C  
BRANCH   4   5
HETATM    5  C   UNL     1     -10.990  15.265  69.081  1.00  0.00    -0.251 C  
BRANCH   5   6
HETATM    6  C   UNL     1     -11.584  14.252  68.088  1.00  0.00    -0.365 C  
BRANCH   6   7
HETATM    7  C   UNL     1     -10.528  13.375  67.368  1.00  0.00    -0.243 C  
HETATM    8  O   UNL     1      -9.389  14.251  67.099  1.00  0.00    -0.210 OA 
HETATM    9  N   UNL     1      -6.854   8.693  70.819  1.00  0.00    -0.044 NA 
HETATM   10  C   UNL     1      -7.731  11.528  68.937  1.00  0.00    -0.088 A  
HETATM   11  C   UNL     1      -8.153  13.645  67.519  1.00  0.00    -0.184 C  
HETATM   12  C   UNL     1      -8.549  12.428  68.263  1.00  0.00    -0.172 A  
HETATM   13  C   UNL     1      -7.511   9.471  70.263  1.00  0.00    -0.143 C  
HETATM   14  C   UNL     1      -9.928  12.268  68.204  1.00  0.00    -0.210 A  
HETATM   15  C   UNL     1      -8.324  10.433  69.573  1.00  0.00    -0.126 A  
HETATM   16  C   UNL     1      -9.719  10.272  69.532  1.00  0.00    -0.235 A  
HETATM   17  C   UNL     1     -10.528  11.197  68.856  1.00  0.00    -0.233 A  
BRANCH   7  18
HETATM   18  C   UNL     1     -11.107  12.873  66.032  1.00  0.00    -0.308 A  
HETATM   19  C   UNL     1     -10.439  11.886  65.277  1.00  0.00    -0.317 A  
HETATM   20  F   UNL     1     -12.706  11.426  62.484  1.00  0.00    -0.124 F  
HETATM   21  C   UNL     1     -12.188  11.895  63.626  1.00  0.00    -0.479 A  
HETATM   22  C   UNL     1     -12.878  12.858  64.349  1.00  0.00    -0.235 A  
HETATM   23  C   UNL     1     -12.341  13.345  65.543  1.00  0.00    -0.528 A  
HETATM   24  C   UNL     1     -10.971  11.407  64.078  1.00  0.00    -0.428 A  
ENDBRANCH   7  18
ENDBRANCH   6   7
ENDBRANCH   5   6
ENDBRANCH   4   5
ENDBRANCH   2   4
TORSDOF 5
ENDMDL
MODEL       62
REMARK 921   NORMALIZED FREE ENERGY PREDICTED BY IDOCK:   -4.94 KCAL/MOL
REMARK 922        TOTAL FREE ENERGY PREDICTED BY IDOCK:   -7.25 KCAL/MOL
REMARK 923 INTER-LIGAND FREE ENERGY PREDICTED BY IDOCK:   -6.21 KCAL/MOL
REMARK 924 INTRA-LIGAND FREE ENERGY PREDICTED BY IDOCK:   -1.04 KCAL/MOL
REMARK 927      BINDING AFFINITY PREDICTED BY RF-SCORE:    0.00 PKD
ROOT
HETATM    1  C   UNL     1      -9.398   2.624  69.933  1.00  0.00    -0.121 C  
HETATM    2  N   UNL     1      -8.800   3.824  69.339  1.00  0.00    -0.081 NA 
HETATM    3  C   UNL     1      -8.025   3.449  68.155  1.00  0.00    -0.074 C  
ENDROOT
BRANCH   2   4
HETATM    4  C   UNL     1      -9.850   4.815  69.038  1.00  0.00    -0.168 C  
BRANCH   4   5
HETATM    5  C   UNL     1     -10.415   5.502  70.292  1.00  0.00    -0.365 C  
BRANCH   5   6
HETATM    6  C   UNL     1     -11.304   6.703  69.928  1.00  0.00    -0.422 C  
BRANCH   6   7
HETATM    7  C   UNL     1     -10.550   8.057  69.872  1.00  0.00    -0.242 C  
HETATM    8  O   UNL     1      -9.359   7.893  70.704  1.00  0.00    -0.157 OA 
HETATM    9  N   UNL     1      -7.072   9.949  64.246  1.00  0.00    -0.127 NA 
HETATM   10  C   UNL     1      -7.832   8.990  67.540  1.00  0.00    -0.100 A  
HETATM   11  C   UNL     1      -8.176   8.339  70.015  1.00  0.00    -0.119 C  
HETATM   12  C   UNL     1      -8.611   8.606  68.626  1.00  0.00    -0.131 A  
HETATM   13  C   UNL     1      -7.691   9.612  65.168  1.00  0.00    -0.117 C  
HETATM   14  C   UNL     1      -9.985   8.425  68.520  1.00  0.00    -0.203 A  
HETATM   15  C   UNL     1      -8.459   9.196  66.308  1.00  0.00    -0.131 A  
HETATM   16  C   UNL     1      -9.845   9.001  66.187  1.00  0.00    -0.349 A  
HETATM   17  C   UNL     1     -10.612   8.603  67.292  1.00  0.00    -0.308 A  
BRANCH   7  18
HETATM   18  C   UNL     1     -11.439   9.162  70.474  1.00  0.00    -0.271 A  
HETATM   19  C   UNL     1     -12.379   8.867  71.482  1.00  0.00    -0.381 A  
HETATM   20  F   UNL     1     -13.768  12.143  72.185  1.00  0.00    -0.503 F  
HETATM   21  C   UNL     1     -13.019  11.180  71.630  1.00  0.00    -0.443 A  
HETATM   22  C   UNL     1     -12.095  11.509  70.648  1.00  0.00    -0.450 A  
HETATM   23  C   UNL     1     -11.311  10.506  70.072  1.00  0.00    -0.392 A  
HETATM   24  C   UNL     1     -13.171   9.868  72.051  1.00  0.00    -0.555 A  
ENDBRANCH   7  18
ENDBRANCH   6   7
ENDBRANCH   5   6
ENDBRANCH   4   5
ENDBRANCH   2   4
TORSDOF 5
ENDMDL
MODEL       63
REMARK 921   NORMALIZED FREE ENERGY PREDICTED BY IDOCK:   -4.85 KCAL/MOL
REMARK 922        TOTAL FREE ENERGY PREDICTED BY IDOCK:   -7.14 KCAL/MOL
REMARK 923 INTER-LIGAND FREE ENERGY PREDICTED BY IDOCK:   -5.97 KCAL/MOL
REMARK 924 INTRA-LIGAND FREE ENERGY PREDICTED BY IDOCK:   -1.17 KCAL/MOL
REMARK 927      BINDING AFFINITY PREDICTED BY RF-SCORE:    0.00 PKD
ROOT
HETATM    1  C   UNL     1     -10.129   5.945  66.722  1.00  0.00    -0.192 C  
HETATM    2  N   UNL     1      -9.432   7.094  67.306  1.00  0.00    -0.135 NA 
HETATM    3  C   UNL     1      -8.041   6.731  67.586  1.00  0.00    -0.116 C  
ENDROOT
BRANCH   2   4
HETATM    4  C   UNL     1      -9.544   8.261  66.413  1.00  0.00    -0.230 C  
BRANCH   4   5
HETATM    5  C   UNL     1     -10.765   9.146  66.716  1.00  0.00    -0.108 C  
BRANCH   5   6
HETATM    6  C   UNL     1     -10.373  10.626  66.849  1.00  0.00    -0.288 C  
BRANCH   6   7
HETATM    7  C   UNL     1     -10.595  11.217  68.265  1.00  0.00    -0.190 C  
HETATM    8  O   UNL     1     -12.043  11.303  68.447  1.00  0.00    -0.598 OA 
HETATM    9  N   UNL     1      -9.527   7.420  73.901  1.00  0.00    -0.273 NA 
HETATM   10  C   UNL     1     -11.103   9.328  71.406  1.00  0.00    -0.437 A  
HETATM   11  C   UNL     1     -12.446  10.732  69.705  1.00  0.00    -0.162 C  
HETATM   12  C   UNL     1     -11.230  10.083  70.246  1.00  0.00    -0.379 A  
HETATM   13  C   UNL     1      -9.670   8.040  72.931  1.00  0.00    -0.283 C  
HETATM   14  C   UNL     1     -10.150  10.337  69.409  1.00  0.00    -0.255 A  
HETATM   15  C   UNL     1      -9.846   8.809  71.731  1.00  0.00    -0.391 A  
HETATM   16  C   UNL     1      -8.751   9.048  70.884  1.00  0.00    -0.280 A  
HETATM   17  C   UNL     1      -8.902   9.803  69.712  1.00  0.00    -0.241 A  
BRANCH   7  18
HETATM   18  C   UNL     1      -9.993  12.634  68.327  1.00  0.00    -0.229 A  
HETATM   19  C   UNL     1      -8.735  12.913  67.753  1.00  0.00    -0.188 A  
HETATM   20  F   UNL     1      -8.402  16.468  68.388  1.00  0.00    -0.171 F  
HETATM   21  C   UNL     1      -8.913  15.230  68.371  1.00  0.00    -0.184 A  
HETATM   22  C   UNL     1     -10.158  14.995  68.935  1.00  0.00    -0.234 A  
HETATM   23  C   UNL     1     -10.695  13.704  68.915  1.00  0.00    -0.237 A  
HETATM   24  C   UNL     1      -8.194  14.201  67.783  1.00  0.00    -0.172 A  
ENDBRANCH   7  18
ENDBRANCH   6   7
ENDBRANCH   5   6
ENDBRANCH   4   5
ENDBRANCH   2   4
TORSDOF 5
ENDMDL
MODEL       64
REMARK 921   NORMALIZED FREE ENERGY PREDICTED BY IDOCK:   -4.85 KCAL/MOL
REMARK 922        TOTAL FREE ENERGY PREDICTED BY IDOCK:   -7.14 KCAL/MOL
REMARK 923 INTER-LIGAND FREE ENERGY PREDICTED BY IDOCK:   -6.34 KCAL/MOL
REMARK 924 INTRA-LIGAND FREE ENERGY PREDICTED BY IDOCK:   -0.80 KCAL/MOL
REMARK 927      BINDING AFFINITY PREDICTED BY RF-SCORE:    0.00 PKD
ROOT
HETATM    1  C   UNL     1     -12.367  13.022  64.227  1.00  0.00    -0.366 C  
HETATM    2  N   UNL     1     -10.971  13.231  63.832  1.00  0.00    -0.288 NA 
HETATM    3  C   UNL     1     -10.297  14.057  64.836  1.00  0.00    -0.409 C  
ENDROOT
BRANCH   2   4
HETATM    4  C   UNL     1     -10.304  11.932  63.626  1.00  0.00    -0.441 C  
BRANCH   4   5
HETATM    5  C   UNL     1     -10.749  10.854  64.628  1.00  0.00    -0.254 C  
BRANCH   5   6
HETATM    6  C   UNL     1      -9.547  10.104  65.224  1.00  0.00    -0.338 C  
BRANCH   6   7
HETATM    7  C   UNL     1      -9.393  10.268  66.758  1.00  0.00    -0.160 C  
HETATM    8  O   UNL     1      -7.998  10.640  66.988  1.00  0.00    -0.115 OA 
HETATM    9  N   UNL     1     -11.999  15.734  70.022  1.00  0.00    -0.354 NA 
HETATM   10  C   UNL     1      -9.729  13.398  68.703  1.00  0.00    -0.084 A  
HETATM   11  C   UNL     1      -7.900  11.784  67.857  1.00  0.00    -0.135 C  
HETATM   12  C   UNL     1      -9.288  12.272  68.017  1.00  0.00    -0.195 A  
HETATM   13  C   UNL     1     -11.597  14.811  69.444  1.00  0.00    -0.310 C  
HETATM   14  C   UNL     1     -10.167  11.414  67.366  1.00  0.00    -0.221 A  
HETATM   15  C   UNL     1     -11.101  13.669  68.730  1.00  0.00    -0.302 A  
HETATM   16  C   UNL     1     -11.995  12.816  68.062  1.00  0.00    -0.315 A  
HETATM   17  C   UNL     1     -11.529  11.690  67.367  1.00  0.00    -0.357 A  
BRANCH   7  18
HETATM   18  C   UNL     1      -9.677   8.919  67.446  1.00  0.00    -0.227 A  
HETATM   19  C   UNL     1      -9.221   8.663  68.756  1.00  0.00    -0.142 A  
HETATM   20  F   UNL     1     -10.525   5.333  69.359  1.00  0.00    -0.295 F  
HETATM   21  C   UNL     1     -10.248   6.488  68.741  1.00  0.00    -0.171 A  
HETATM   22  C   UNL     1     -10.723   6.710  67.456  1.00  0.00    -0.387 A  
HETATM   23  C   UNL     1     -10.437   7.918  66.812  1.00  0.00    -0.317 A  
HETATM   24  C   UNL     1      -9.497   7.452  69.396  1.00  0.00    -0.155 A  
ENDBRANCH   7  18
ENDBRANCH   6   7
ENDBRANCH   5   6
ENDBRANCH   4   5
ENDBRANCH   2   4
TORSDOF 5
ENDMDL
MODEL       65
REMARK 921   NORMALIZED FREE ENERGY PREDICTED BY IDOCK:   -4.84 KCAL/MOL
REMARK 922        TOTAL FREE ENERGY PREDICTED BY IDOCK:   -7.13 KCAL/MOL
REMARK 923 INTER-LIGAND FREE ENERGY PREDICTED BY IDOCK:   -6.06 KCAL/MOL
REMARK 924 INTRA-LIGAND FREE ENERGY PREDICTED BY IDOCK:   -1.07 KCAL/MOL
REMARK 927      BINDING AFFINITY PREDICTED BY RF-SCORE:    0.00 PKD
ROOT
HETATM    1  C   UNL     1     -13.016  13.770  65.496  1.00  0.00    -0.315 C  
HETATM    2  N   UNL     1     -12.472  14.141  64.186  1.00  0.00    -0.696 NA 
HETATM    3  C   UNL     1     -11.568  15.282  64.337  1.00  0.00    -0.263 C  
ENDROOT
BRANCH   2   4
HETATM    4  C   UNL     1     -11.816  12.977  63.563  1.00  0.00    -0.516 C  
BRANCH   4   5
HETATM    5  C   UNL     1     -11.832  11.721  64.451  1.00  0.00    -0.274 C  
BRANCH   5   6
HETATM    6  C   UNL     1     -10.434  11.091  64.566  1.00  0.00    -0.411 C  
BRANCH   6   7
HETATM    7  C   UNL     1      -9.645  11.523  65.829  1.00  0.00    -0.235 C  
HETATM    8  O   UNL     1      -9.206  12.895  65.584  1.00  0.00     0.091 OA 
HETATM    9  N   UNL     1     -12.892  12.995  71.712  1.00  0.00    -0.287 NA 
HETATM   10  C   UNL     1     -10.981  13.311  68.781  1.00  0.00    -0.294 A  
HETATM   11  C   UNL     1      -9.515  13.750  66.700  1.00  0.00    -0.279 C  
HETATM   12  C   UNL     1     -10.359  12.928  67.598  1.00  0.00    -0.218 A  
HETATM   13  C   UNL     1     -12.375  12.712  70.713  1.00  0.00    -0.283 C  
HETATM   14  C   UNL     1     -10.463  11.637  67.094  1.00  0.00    -0.252 A  
HETATM   15  C   UNL     1     -11.734  12.361  69.477  1.00  0.00    -0.388 A  
HETATM   16  C   UNL     1     -11.857  11.057  68.969  1.00  0.00    -0.399 A  
HETATM   17  C   UNL     1     -11.230  10.694  67.767  1.00  0.00    -0.383 A  
BRANCH   7  18
HETATM   18  C   UNL     1      -8.409  10.617  65.992  1.00  0.00    -0.160 A  
HETATM   19  C   UNL     1      -8.033  10.124  67.259  1.00  0.00    -0.110 A  
HETATM   20  F   UNL     1      -5.146   8.089  66.438  1.00  0.00    -0.023 F  
HETATM   21  C   UNL     1      -6.196   8.908  66.295  1.00  0.00    -0.064 A  
HETATM   22  C   UNL     1      -6.544   9.364  65.032  1.00  0.00    -0.084 A  
HETATM   23  C   UNL     1      -7.643  10.215  64.881  1.00  0.00    -0.138 A  
HETATM   24  C   UNL     1      -6.929   9.282  67.411  1.00  0.00    -0.078 A  
ENDBRANCH   7  18
ENDBRANCH   6   7
ENDBRANCH   5   6
ENDBRANCH   4   5
ENDBRANCH   2   4
TORSDOF 5
ENDMDL
MODEL       66
REMARK 921   NORMALIZED FREE ENERGY PREDICTED BY IDOCK:   -4.81 KCAL/MOL
REMARK 922        TOTAL FREE ENERGY PREDICTED BY IDOCK:   -7.09 KCAL/MOL
REMARK 923 INTER-LIGAND FREE ENERGY PREDICTED BY IDOCK:   -5.93 KCAL/MOL
REMARK 924 INTRA-LIGAND FREE ENERGY PREDICTED BY IDOCK:   -1.16 KCAL/MOL
REMARK 927      BINDING AFFINITY PREDICTED BY RF-SCORE:    0.00 PKD
ROOT
HETATM    1  C   UNL     1      -8.693  15.279  69.235  1.00  0.00    -0.237 C  
HETATM    2  N   UNL     1      -8.059  14.483  68.179  1.00  0.00    -0.129 NA 
HETATM    3  C   UNL     1      -7.308  15.367  67.286  1.00  0.00    -0.204 C  
ENDROOT
BRANCH   2   4
HETATM    4  C   UNL     1      -7.216  13.432  68.776  1.00  0.00    -0.092 C  
BRANCH   4   5
HETATM    5  C   UNL     1      -7.319  12.081  68.048  1.00  0.00    -0.102 C  
BRANCH   5   6
HETATM    6  C   UNL     1      -8.778  11.724  67.721  1.00  0.00    -0.155 C  
BRANCH   6   7
HETATM    7  C   UNL     1      -8.951  10.878  66.433  1.00  0.00    -0.175 C  
HETATM    8  O   UNL     1      -7.632  10.820  65.805  1.00  0.00    -0.145 OA 
HETATM    9  N   UNL     1      -9.743   4.052  66.750  1.00  0.00    -0.213 NA 
HETATM   10  C   UNL     1      -8.412   7.234  66.079  1.00  0.00    -0.148 A  
HETATM   11  C   UNL     1      -7.280   9.469  65.454  1.00  0.00    -0.095 C  
HETATM   12  C   UNL     1      -8.330   8.622  66.064  1.00  0.00    -0.135 A  
HETATM   13  C   UNL     1      -9.636   5.207  66.735  1.00  0.00    -0.151 C  
HETATM   14  C   UNL     1      -9.297   9.425  66.656  1.00  0.00    -0.211 A  
HETATM   15  C   UNL     1      -9.505   6.637  66.715  1.00  0.00    -0.194 A  
HETATM   16  C   UNL     1     -10.480   7.440  67.330  1.00  0.00    -0.366 A  
HETATM   17  C   UNL     1     -10.373   8.838  67.313  1.00  0.00    -0.360 A  
BRANCH   7  18
HETATM   18  C   UNL     1      -9.933  11.591  65.483  1.00  0.00    -0.282 A  
HETATM   19  C   UNL     1     -10.277  12.944  65.678  1.00  0.00    -0.295 A  
HETATM   20  F   UNL     1     -12.491  13.559  62.871  1.00  0.00    -0.521 F  
HETATM   21  C   UNL     1     -11.668  12.923  63.716  1.00  0.00    -0.492 A  
HETATM   22  C   UNL     1     -11.342  11.594  63.487  1.00  0.00    -0.447 A  
HETATM   23  C   UNL     1     -10.481  10.931  64.366  1.00  0.00    -0.403 A  
HETATM   24  C   UNL     1     -11.146  13.604  64.805  1.00  0.00    -0.375 A  
ENDBRANCH   7  18
ENDBRANCH   6   7
ENDBRANCH   5   6
ENDBRANCH   4   5
ENDBRANCH   2   4
TORSDOF 5
ENDMDL
MODEL       67
REMARK 921   NORMALIZED FREE ENERGY PREDICTED BY IDOCK:   -4.81 KCAL/MOL
REMARK 922        TOTAL FREE ENERGY PREDICTED BY IDOCK:   -7.08 KCAL/MOL
REMARK 923 INTER-LIGAND FREE ENERGY PREDICTED BY IDOCK:   -6.84 KCAL/MOL
REMARK 924 INTRA-LIGAND FREE ENERGY PREDICTED BY IDOCK:   -0.25 KCAL/MOL
REMARK 927      BINDING AFFINITY PREDICTED BY RF-SCORE:    0.00 PKD
ROOT
HETATM    1  C   UNL     1     -10.253  18.640  66.739  1.00  0.00    -0.393 C  
HETATM    2  N   UNL     1     -10.041  17.387  66.009  1.00  0.00    -0.497 NA 
HETATM    3  C   UNL     1      -8.635  16.993  66.111  1.00  0.00    -0.217 C  
ENDROOT
BRANCH   2   4
HETATM    4  C   UNL     1     -10.959  16.348  66.512  1.00  0.00     0.037 C  
BRANCH   4   5
HETATM    5  C   UNL     1     -10.701  14.960  65.902  1.00  0.00    -0.329 C  
BRANCH   5   6
HETATM    6  C   UNL     1     -11.340  13.843  66.742  1.00  0.00    -0.347 C  
BRANCH   6   7
HETATM    7  C   UNL     1     -10.888  13.827  68.225  1.00  0.00    -0.250 C  
HETATM    8  O   UNL     1     -11.544  14.968  68.862  1.00  0.00    -0.294 OA 
HETATM    9  N   UNL     1     -13.383   9.184  72.645  1.00  0.00    -0.412 NA 
HETATM   10  C   UNL     1     -12.645  12.235  71.067  1.00  0.00    -0.352 A  
HETATM   11  C   UNL     1     -12.190  14.581  70.089  1.00  0.00    -0.342 C  
HETATM   12  C   UNL     1     -12.107  13.104  70.124  1.00  0.00    -0.392 A  
HETATM   13  C   UNL     1     -12.961   9.934  71.867  1.00  0.00    -0.448 C  
HETATM   14  C   UNL     1     -11.373  12.648  69.036  1.00  0.00    -0.345 A  
HETATM   15  C   UNL     1     -12.438  10.862  70.904  1.00  0.00    -0.507 A  
HETATM   16  C   UNL     1     -11.710  10.390  69.799  1.00  0.00    -0.310 A  
HETATM   17  C   UNL     1     -11.184  11.283  68.853  1.00  0.00    -0.315 A  
BRANCH   7  18
HETATM   18  C   UNL     1      -9.361  14.018  68.295  1.00  0.00    -0.208 A  
HETATM   19  C   UNL     1      -8.789  14.980  69.153  1.00  0.00    -0.184 A  
HETATM   20  F   UNL     1      -5.244  14.473  68.580  1.00  0.00    -0.083 F  
HETATM   21  C   UNL     1      -6.572  14.329  68.485  1.00  0.00    -0.095 A  
HETATM   22  C   UNL     1      -7.100  13.364  67.640  1.00  0.00    -0.168 A  
HETATM   23  C   UNL     1      -8.486  13.210  67.544  1.00  0.00    -0.198 A  
HETATM   24  C   UNL     1      -7.404  15.141  69.241  1.00  0.00    -0.188 A  
ENDBRANCH   7  18
ENDBRANCH   6   7
ENDBRANCH   5   6
ENDBRANCH   4   5
ENDBRANCH   2   4
TORSDOF 5
ENDMDL
MODEL       68
REMARK 921   NORMALIZED FREE ENERGY PREDICTED BY IDOCK:   -4.75 KCAL/MOL
REMARK 922        TOTAL FREE ENERGY PREDICTED BY IDOCK:   -7.01 KCAL/MOL
REMARK 923 INTER-LIGAND FREE ENERGY PREDICTED BY IDOCK:   -5.91 KCAL/MOL
REMARK 924 INTRA-LIGAND FREE ENERGY PREDICTED BY IDOCK:   -1.10 KCAL/MOL
REMARK 927      BINDING AFFINITY PREDICTED BY RF-SCORE:    0.00 PKD
ROOT
HETATM    1  C   UNL     1      -6.667   3.050  71.639  1.00  0.00    -0.023 C  
HETATM    2  N   UNL     1      -7.980   3.551  72.058  1.00  0.00    -0.062 NA 
HETATM    3  C   UNL     1      -8.836   2.424  72.432  1.00  0.00    -0.066 C  
ENDROOT
BRANCH   2   4
HETATM    4  C   UNL     1      -7.823   4.530  73.149  1.00  0.00    -0.091 C  
BRANCH   4   5
HETATM    5  C   UNL     1      -8.590   5.841  72.906  1.00  0.00    -0.122 C  
BRANCH   5   6
HETATM    6  C   UNL     1      -8.665   6.184  71.409  1.00  0.00    -0.135 C  
BRANCH   6   7
HETATM    7  C   UNL     1     -10.108   6.355  70.869  1.00  0.00    -0.187 C  
HETATM    8  O   UNL     1     -10.965   5.556  71.742  1.00  0.00    -0.240 OA 
HETATM    9  N   UNL     1     -13.590  12.209  71.830  1.00  0.00    -0.210 NA 
HETATM   10  C   UNL     1     -12.619   8.835  71.980  1.00  0.00    -0.447 A  
HETATM   11  C   UNL     1     -12.106   6.313  72.187  1.00  0.00    -0.252 C  
HETATM   12  C   UNL     1     -11.852   7.701  71.739  1.00  0.00    -0.324 A  
HETATM   13  C   UNL     1     -12.964  11.247  71.661  1.00  0.00    -0.432 C  
HETATM   14  C   UNL     1     -10.683   7.746  70.989  1.00  0.00    -0.241 A  
HETATM   15  C   UNL     1     -12.190  10.056  71.450  1.00  0.00    -0.510 A  
HETATM   16  C   UNL     1     -11.000  10.115  70.704  1.00  0.00    -0.357 A  
HETATM   17  C   UNL     1     -10.236   8.961  70.481  1.00  0.00    -0.247 A  
BRANCH   7  18
HETATM   18  C   UNL     1     -10.185   5.795  69.435  1.00  0.00    -0.301 A  
HETATM   19  C   UNL     1     -10.852   6.504  68.415  1.00  0.00    -0.357 A  
HETATM   20  F   UNL     1     -10.310   4.358  65.542  1.00  0.00    -0.221 F  
HETATM   21  C   UNL     1     -10.273   4.820  66.799  1.00  0.00    -0.213 A  
HETATM   22  C   UNL     1      -9.597   4.102  67.775  1.00  0.00    -0.208 A  
HETATM   23  C   UNL     1      -9.554   4.585  69.085  1.00  0.00    -0.251 A  
HETATM   24  C   UNL     1     -10.904   6.015  67.107  1.00  0.00    -0.414 A  
ENDBRANCH   7  18
ENDBRANCH   6   7
ENDBRANCH   5   6
ENDBRANCH   4   5
ENDBRANCH   2   4
TORSDOF 5
ENDMDL
MODEL       69
REMARK 921   NORMALIZED FREE ENERGY PREDICTED BY IDOCK:   -4.66 KCAL/MOL
REMARK 922        TOTAL FREE ENERGY PREDICTED BY IDOCK:   -6.89 KCAL/MOL
REMARK 923 INTER-LIGAND FREE ENERGY PREDICTED BY IDOCK:   -5.87 KCAL/MOL
REMARK 924 INTRA-LIGAND FREE ENERGY PREDICTED BY IDOCK:   -1.02 KCAL/MOL
REMARK 927      BINDING AFFINITY PREDICTED BY RF-SCORE:    0.00 PKD
ROOT
HETATM    1  C   UNL     1      -8.553   5.930  71.061  1.00  0.00    -0.131 C  
HETATM    2  N   UNL     1      -8.108   5.320  69.804  1.00  0.00    -0.086 NA 
HETATM    3  C   UNL     1      -8.293   3.870  69.873  1.00  0.00    -0.056 C  
ENDROOT
BRANCH   2   4
HETATM    4  C   UNL     1      -8.821   5.929  68.667  1.00  0.00    -0.111 C  
BRANCH   4   5
HETATM    5  C   UNL     1      -8.532   7.431  68.500  1.00  0.00    -0.125 C  
BRANCH   5   6
HETATM    6  C   UNL     1      -9.778   8.199  68.032  1.00  0.00    -0.186 C  
BRANCH   6   7
HETATM    7  C   UNL     1      -9.962   9.583  68.706  1.00  0.00    -0.174 C  
HETATM    8  O   UNL     1      -8.666   9.925  69.289  1.00  0.00    -0.144 OA 
HETATM    9  N   UNL     1     -10.444  15.326  64.950  1.00  0.00    -0.365 NA 
HETATM   10  C   UNL     1      -9.278  12.895  67.204  1.00  0.00    -0.225 A  
HETATM   11  C   UNL     1      -8.269  11.262  68.931  1.00  0.00    -0.079 C  
HETATM   12  C   UNL     1      -9.257  11.704  67.921  1.00  0.00    -0.171 A  
HETATM   13  C   UNL     1     -10.388  14.335  65.551  1.00  0.00    -0.355 C  
HETATM   14  C   UNL     1     -10.236  10.730  67.762  1.00  0.00    -0.212 A  
HETATM   15  C   UNL     1     -10.320  13.109  66.296  1.00  0.00    -0.291 A  
HETATM   16  C   UNL     1     -11.306  12.124  66.117  1.00  0.00    -0.414 A  
HETATM   17  C   UNL     1     -11.260  10.925  66.843  1.00  0.00    -0.162 A  
BRANCH   7  18
HETATM   18  C   UNL     1     -11.008   9.467  69.831  1.00  0.00    -0.263 A  
HETATM   19  C   UNL     1     -11.394   8.208  70.336  1.00  0.00    -0.181 A  
HETATM   20  F   UNL     1     -13.744   9.139  72.937  1.00  0.00    -0.477 F  
HETATM   21  C   UNL     1     -12.865   9.245  71.932  1.00  0.00    -0.404 A  
HETATM   22  C   UNL     1     -12.500  10.500  71.468  1.00  0.00    -0.493 A  
HETATM   23  C   UNL     1     -11.578  10.611  70.423  1.00  0.00    -0.441 A  
HETATM   24  C   UNL     1     -12.323   8.097  71.374  1.00  0.00    -0.323 A  
ENDBRANCH   7  18
ENDBRANCH   6   7
ENDBRANCH   5   6
ENDBRANCH   4   5
ENDBRANCH   2   4
TORSDOF 5
ENDMDL
MODEL       70
REMARK 921   NORMALIZED FREE ENERGY PREDICTED BY IDOCK:   -4.65 KCAL/MOL
REMARK 922        TOTAL FREE ENERGY PREDICTED BY IDOCK:   -6.89 KCAL/MOL
REMARK 923 INTER-LIGAND FREE ENERGY PREDICTED BY IDOCK:   -5.76 KCAL/MOL
REMARK 924 INTRA-LIGAND FREE ENERGY PREDICTED BY IDOCK:   -1.12 KCAL/MOL
REMARK 927      BINDING AFFINITY PREDICTED BY RF-SCORE:    0.00 PKD
ROOT
HETATM    1  C   UNL     1      -8.877   4.171  66.549  1.00  0.00    -0.118 C  
HETATM    2  N   UNL     1      -8.140   5.228  67.248  1.00  0.00    -0.101 NA 
HETATM    3  C   UNL     1      -7.199   5.863  66.323  1.00  0.00    -0.080 C  
ENDROOT
BRANCH   2   4
HETATM    4  C   UNL     1      -9.083   6.191  67.846  1.00  0.00    -0.117 C  
BRANCH   4   5
HETATM    5  C   UNL     1     -10.070   6.788  66.829  1.00  0.00    -0.250 C  
BRANCH   5   6
HETATM    6  C   UNL     1     -10.529   8.196  67.244  1.00  0.00    -0.379 C  
BRANCH   6   7
HETATM    7  C   UNL     1      -9.665   9.343  66.660  1.00  0.00    -0.219 C  
HETATM    8  O   UNL     1      -9.138   8.848  65.390  1.00  0.00    -0.206 OA 
HETATM    9  N   UNL     1     -12.583  14.943  63.930  1.00  0.00    -0.760 NA 
HETATM   10  C   UNL     1     -10.761  11.959  64.283  1.00  0.00    -0.388 A  
HETATM   11  C   UNL     1      -9.344   9.801  64.331  1.00  0.00    -0.215 C  
HETATM   12  C   UNL     1     -10.212  10.849  64.914  1.00  0.00    -0.381 A  
HETATM   13  C   UNL     1     -12.124  13.999  64.423  1.00  0.00    -0.458 C  
HETATM   14  C   UNL     1     -10.426  10.586  66.262  1.00  0.00    -0.250 A  
HETATM   15  C   UNL     1     -11.555  12.831  65.035  1.00  0.00    -0.372 A  
HETATM   16  C   UNL     1     -11.790  12.565  66.394  1.00  0.00    -0.445 A  
HETATM   17  C   UNL     1     -11.235  11.434  67.010  1.00  0.00    -0.350 A  
BRANCH   7  18
HETATM   18  C   UNL     1      -8.493   9.636  67.615  1.00  0.00    -0.125 A  
HETATM   19  C   UNL     1      -8.707   9.794  69.000  1.00  0.00    -0.148 A  
HETATM   20  F   UNL     1      -5.332  10.318  70.220  1.00  0.00    -0.038 F  
HETATM   21  C   UNL     1      -6.352  10.102  69.379  1.00  0.00    -0.048 A  
HETATM   22  C   UNL     1      -6.103   9.940  68.024  1.00  0.00    -0.053 A  
HETATM   23  C   UNL     1      -7.166   9.710  67.147  1.00  0.00    -0.087 A  
HETATM   24  C   UNL     1      -7.646  10.035  69.875  1.00  0.00    -0.177 A  
ENDBRANCH   7  18
ENDBRANCH   6   7
ENDBRANCH   5   6
ENDBRANCH   4   5
ENDBRANCH   2   4
TORSDOF 5
ENDMDL
MODEL       71
REMARK 921   NORMALIZED FREE ENERGY PREDICTED BY IDOCK:   -4.64 KCAL/MOL
REMARK 922        TOTAL FREE ENERGY PREDICTED BY IDOCK:   -6.87 KCAL/MOL
REMARK 923 INTER-LIGAND FREE ENERGY PREDICTED BY IDOCK:   -6.22 KCAL/MOL
REMARK 924 INTRA-LIGAND FREE ENERGY PREDICTED BY IDOCK:   -0.65 KCAL/MOL
REMARK 927      BINDING AFFINITY PREDICTED BY RF-SCORE:    0.00 PKD
ROOT
HETATM    1  C   UNL     1     -11.894   6.987  70.906  1.00  0.00    -0.356 C  
HETATM    2  N   UNL     1     -11.978   7.825  72.106  1.00  0.00    -0.310 NA 
HETATM    3  C   UNL     1     -10.961   7.401  73.070  1.00  0.00    -0.374 C  
ENDROOT
BRANCH   2   4
HETATM    4  C   UNL     1     -11.853   9.248  71.739  1.00  0.00    -0.384 C  
BRANCH   4   5
HETATM    5  C   UNL     1     -11.586   9.469  70.240  1.00  0.00    -0.219 C  
BRANCH   5   6
HETATM    6  C   UNL     1     -10.251  10.193  70.003  1.00  0.00    -0.271 C  
BRANCH   6   7
HETATM    7  C   UNL     1      -9.804  10.231  68.519  1.00  0.00    -0.164 C  
HETATM    8  O   UNL     1      -8.409  10.667  68.526  1.00  0.00    -0.116 OA 
HETATM    9  N   UNL     1      -8.583   4.430  65.029  1.00  0.00    -0.123 NA 
HETATM   10  C   UNL     1      -8.130   7.525  66.631  1.00  0.00    -0.123 A  
HETATM   11  C   UNL     1      -7.589   9.805  67.717  1.00  0.00    -0.090 C  
HETATM   12  C   UNL     1      -8.463   8.668  67.348  1.00  0.00    -0.123 A  
HETATM   13  C   UNL     1      -8.825   5.388  65.639  1.00  0.00    -0.153 C  
HETATM   14  C   UNL     1      -9.749   8.890  67.826  1.00  0.00    -0.196 A  
HETATM   15  C   UNL     1      -9.125   6.573  66.392  1.00  0.00    -0.172 A  
HETATM   16  C   UNL     1     -10.425   6.781  66.884  1.00  0.00    -0.350 A  
HETATM   17  C   UNL     1     -10.738   7.937  67.614  1.00  0.00    -0.215 A  
BRANCH   7  18
HETATM   18  C   UNL     1     -10.654  11.267  67.757  1.00  0.00    -0.239 A  
HETATM   19  C   UNL     1     -11.306  12.314  68.441  1.00  0.00    -0.340 A  
HETATM   20  F   UNL     1     -12.858  14.130  65.712  1.00  0.00    -0.508 F  
HETATM   21  C   UNL     1     -12.150  13.204  66.372  1.00  0.00    -0.382 A  
HETATM   22  C   UNL     1     -11.512  12.195  65.666  1.00  0.00    -0.408 A  
HETATM   23  C   UNL     1     -10.770  11.231  66.354  1.00  0.00    -0.320 A  
HETATM   24  C   UNL     1     -12.057  13.271  67.754  1.00  0.00    -0.281 A  
ENDBRANCH   7  18
ENDBRANCH   6   7
ENDBRANCH   5   6
ENDBRANCH   4   5
ENDBRANCH   2   4
TORSDOF 5
ENDMDL
MODEL       72
REMARK 921   NORMALIZED FREE ENERGY PREDICTED BY IDOCK:   -4.63 KCAL/MOL
REMARK 922        TOTAL FREE ENERGY PREDICTED BY IDOCK:   -6.85 KCAL/MOL
REMARK 923 INTER-LIGAND FREE ENERGY PREDICTED BY IDOCK:   -5.84 KCAL/MOL
REMARK 924 INTRA-LIGAND FREE ENERGY PREDICTED BY IDOCK:   -1.01 KCAL/MOL
REMARK 927      BINDING AFFINITY PREDICTED BY RF-SCORE:    0.00 PKD
ROOT
HETATM    1  C   UNL     1     -12.623  14.046  71.015  1.00  0.00    -0.366 C  
HETATM    2  N   UNL     1     -12.119  14.145  69.641  1.00  0.00    -0.334 NA 
HETATM    3  C   UNL     1     -10.732  14.611  69.662  1.00  0.00    -0.147 C  
ENDROOT
BRANCH   2   4
HETATM    4  C   UNL     1     -12.272  12.851  68.952  1.00  0.00    -0.006 C  
BRANCH   4   5
HETATM    5  C   UNL     1     -11.077  11.905  69.161  1.00  0.00    -0.285 C  
BRANCH   5   6
HETATM    6  C   UNL     1     -10.782  11.077  67.899  1.00  0.00    -0.263 C  
BRANCH   6   7
HETATM    7  C   UNL     1      -9.769  11.737  66.929  1.00  0.00    -0.198 C  
HETATM    8  O   UNL     1      -8.719  12.312  67.768  1.00  0.00    -0.157 OA 
HETATM    9  N   UNL     1      -5.468   7.920  63.153  1.00  0.00    -0.050 NA 
HETATM   10  C   UNL     1      -6.712  10.197  65.524  1.00  0.00    -0.122 A  
HETATM   11  C   UNL     1      -7.411  11.938  67.298  1.00  0.00    -0.151 C  
HETATM   12  C   UNL     1      -7.651  10.927  66.244  1.00  0.00    -0.136 A  
HETATM   13  C   UNL     1      -6.227   8.532  63.783  1.00  0.00    -0.072 C  
HETATM   14  C   UNL     1      -9.017  10.782  66.032  1.00  0.00    -0.196 A  
HETATM   15  C   UNL     1      -7.166   9.290  64.561  1.00  0.00    -0.101 A  
HETATM   16  C   UNL     1      -8.546   9.126  64.351  1.00  0.00    -0.204 A  
HETATM   17  C   UNL     1      -9.477   9.864  65.095  1.00  0.00    -0.338 A  
BRANCH   7  18
HETATM   18  C   UNL     1     -10.470  12.867  66.151  1.00  0.00    -0.283 A  
HETATM   19  C   UNL     1      -9.935  14.172  66.129  1.00  0.00    -0.328 A  
HETATM   20  F   UNL     1     -12.282  15.900  63.970  1.00  0.00    -0.442 F  
HETATM   21  C   UNL     1     -11.699  14.923  64.676  1.00  0.00    -0.404 A  
HETATM   22  C   UNL     1     -12.246  13.648  64.666  1.00  0.00    -0.448 A  
HETATM   23  C   UNL     1     -11.636  12.627  65.399  1.00  0.00    -0.400 A  
HETATM   24  C   UNL     1     -10.551  15.196  65.404  1.00  0.00    -0.410 A  
ENDBRANCH   7  18
ENDBRANCH   6   7
ENDBRANCH   5   6
ENDBRANCH   4   5
ENDBRANCH   2   4
TORSDOF 5
ENDMDL
MODEL       73
REMARK 921   NORMALIZED FREE ENERGY PREDICTED BY IDOCK:   -4.63 KCAL/MOL
REMARK 922        TOTAL FREE ENERGY PREDICTED BY IDOCK:   -6.85 KCAL/MOL
REMARK 923 INTER-LIGAND FREE ENERGY PREDICTED BY IDOCK:   -6.23 KCAL/MOL
REMARK 924 INTRA-LIGAND FREE ENERGY PREDICTED BY IDOCK:   -0.62 KCAL/MOL
REMARK 927      BINDING AFFINITY PREDICTED BY RF-SCORE:    0.00 PKD
ROOT
HETATM    1  C   UNL     1     -12.842  11.801  71.684  1.00  0.00    -0.328 C  
HETATM    2  N   UNL     1     -13.118  13.167  71.230  1.00  0.00    -0.248 NA 
HETATM    3  C   UNL     1     -13.561  13.979  72.365  1.00  0.00    -0.557 C  
ENDROOT
BRANCH   2   4
HETATM    4  C   UNL     1     -11.929  13.727  70.562  1.00  0.00    -0.296 C  
BRANCH   4   5
HETATM    5  C   UNL     1     -12.260  14.487  69.266  1.00  0.00    -0.264 C  
BRANCH   5   6
HETATM    6  C   UNL     1     -12.158  13.575  68.033  1.00  0.00    -0.298 C  
BRANCH   6   7
HETATM    7  C   UNL     1     -11.032  13.969  67.043  1.00  0.00    -0.297 C  
HETATM    8  O   UNL     1     -11.702  14.455  65.839  1.00  0.00    -0.360 OA 
HETATM    9  N   UNL     1      -7.317  19.682  67.986  1.00  0.00    -0.278 NA 
HETATM   10  C   UNL     1      -9.527  17.322  66.609  1.00  0.00    -0.278 A  
HETATM   11  C   UNL     1     -11.157  15.717  65.411  1.00  0.00    -0.228 C  
HETATM   12  C   UNL     1     -10.247  16.137  66.500  1.00  0.00    -0.304 A  
HETATM   13  C   UNL     1      -7.943  18.711  67.873  1.00  0.00    -0.259 C  
HETATM   14  C   UNL     1     -10.180  15.142  67.468  1.00  0.00    -0.238 A  
HETATM   15  C   UNL     1      -8.716  17.510  67.733  1.00  0.00    -0.230 A  
HETATM   16  C   UNL     1      -8.654  16.515  68.724  1.00  0.00    -0.262 A  
HETATM   17  C   UNL     1      -9.396  15.332  68.600  1.00  0.00    -0.201 A  
BRANCH   7  18
HETATM   18  C   UNL     1     -10.202  12.720  66.691  1.00  0.00    -0.246 A  
HETATM   19  C   UNL     1     -10.045  12.308  65.351  1.00  0.00    -0.292 A  
HETATM   20  F   UNL     1      -7.880   9.420  65.711  1.00  0.00    -0.095 F  
HETATM   21  C   UNL     1      -8.632  10.482  66.027  1.00  0.00    -0.160 A  
HETATM   22  C   UNL     1      -8.755  10.866  67.355  1.00  0.00    -0.130 A  
HETATM   23  C   UNL     1      -9.536  11.977  67.685  1.00  0.00    -0.188 A  
HETATM   24  C   UNL     1      -9.272  11.191  65.022  1.00  0.00    -0.190 A  
ENDBRANCH   7  18
ENDBRANCH   6   7
ENDBRANCH   5   6
ENDBRANCH   4   5
ENDBRANCH   2   4
TORSDOF 5
ENDMDL
MODEL       74
REMARK 921   NORMALIZED FREE ENERGY PREDICTED BY IDOCK:   -4.61 KCAL/MOL
REMARK 922        TOTAL FREE ENERGY PREDICTED BY IDOCK:   -6.83 KCAL/MOL
REMARK 923 INTER-LIGAND FREE ENERGY PREDICTED BY IDOCK:   -6.07 KCAL/MOL
REMARK 924 INTRA-LIGAND FREE ENERGY PREDICTED BY IDOCK:   -0.76 KCAL/MOL
REMARK 927      BINDING AFFINITY PREDICTED BY RF-SCORE:    0.00 PKD
ROOT
HETATM    1  C   UNL     1      -5.920  15.969  70.028  1.00  0.00    -0.161 C  
HETATM    2  N   UNL     1      -6.173  16.287  68.619  1.00  0.00    -0.119 NA 
HETATM    3  C   UNL     1      -5.186  15.605  67.779  1.00  0.00    -0.109 C  
ENDROOT
BRANCH   2   4
HETATM    4  C   UNL     1      -7.559  15.934  68.263  1.00  0.00    -0.135 C  
BRANCH   4   5
HETATM    5  C   UNL     1      -7.677  14.583  67.538  1.00  0.00    -0.208 C  
BRANCH   5   6
HETATM    6  C   UNL     1      -8.273  13.500  68.452  1.00  0.00    -0.141 C  
BRANCH   6   7
HETATM    7  C   UNL     1      -9.680  13.010  68.023  1.00  0.00    -0.224 C  
HETATM    8  O   UNL     1      -9.840  13.410  66.626  1.00  0.00    -0.262 OA 
HETATM    9  N   UNL     1     -10.916   6.343  66.863  1.00  0.00    -0.380 NA 
HETATM   10  C   UNL     1     -10.510   9.800  66.380  1.00  0.00    -0.190 A  
HETATM   11  C   UNL     1     -10.302  12.312  65.818  1.00  0.00    -0.258 C  
HETATM   12  C   UNL     1     -10.238  11.125  66.701  1.00  0.00    -0.274 A  
HETATM   13  C   UNL     1     -10.680   7.456  67.095  1.00  0.00    -0.330 C  
HETATM   14  C   UNL     1      -9.857  11.511  67.981  1.00  0.00    -0.192 A  
HETATM   15  C   UNL     1     -10.390   8.832  67.382  1.00  0.00    -0.349 A  
HETATM   16  C   UNL     1      -9.990   9.210  68.675  1.00  0.00    -0.185 A  
HETATM   17  C   UNL     1      -9.711  10.551  68.976  1.00  0.00    -0.221 A  
BRANCH   7  18
HETATM   18  C   UNL     1     -10.749  13.718  68.878  1.00  0.00    -0.249 A  
HETATM   19  C   UNL     1     -10.928  15.115  68.805  1.00  0.00    -0.257 A  
HETATM   20  F   UNL     1     -13.697  15.630  71.090  1.00  0.00    -0.548 F  
HETATM   21  C   UNL     1     -12.744  15.014  70.379  1.00  0.00    -0.325 A  
HETATM   22  C   UNL     1     -12.604  13.636  70.466  1.00  0.00    -0.337 A  
HETATM   23  C   UNL     1     -11.612  12.992  69.721  1.00  0.00    -0.286 A  
HETATM   24  C   UNL     1     -11.913  15.760  69.557  1.00  0.00    -0.326 A  
ENDBRANCH   7  18
ENDBRANCH   6   7
ENDBRANCH   5   6
ENDBRANCH   4   5
ENDBRANCH   2   4
TORSDOF 5
ENDMDL
MODEL       75
REMARK 921   NORMALIZED FREE ENERGY PREDICTED BY IDOCK:   -4.60 KCAL/MOL
REMARK 922        TOTAL FREE ENERGY PREDICTED BY IDOCK:   -6.82 KCAL/MOL
REMARK 923 INTER-LIGAND FREE ENERGY PREDICTED BY IDOCK:   -5.69 KCAL/MOL
REMARK 924 INTRA-LIGAND FREE ENERGY PREDICTED BY IDOCK:   -1.13 KCAL/MOL
REMARK 927      BINDING AFFINITY PREDICTED BY RF-SCORE:    0.00 PKD
ROOT
HETATM    1  C   UNL     1      -6.585   5.605  68.715  1.00  0.00    -0.048 C  
HETATM    2  N   UNL     1      -7.334   6.015  67.523  1.00  0.00    -0.076 NA 
HETATM    3  C   UNL     1      -8.461   5.103  67.317  1.00  0.00    -0.106 C  
ENDROOT
BRANCH   2   4
HETATM    4  C   UNL     1      -7.759   7.420  67.652  1.00  0.00    -0.112 C  
BRANCH   4   5
HETATM    5  C   UNL     1      -7.816   7.908  69.110  1.00  0.00    -0.109 C  
BRANCH   5   6
HETATM    6  C   UNL     1      -9.021   8.832  69.352  1.00  0.00    -0.145 C  
BRANCH   6   7
HETATM    7  C   UNL     1     -10.201   8.155  70.095  1.00  0.00    -0.199 C  
HETATM    8  O   UNL     1     -10.887   7.331  69.102  1.00  0.00    -0.208 OA 
HETATM    9  N   UNL     1      -9.123   2.981  74.499  1.00  0.00    -0.078 NA 
HETATM   10  C   UNL     1     -10.196   4.823  71.705  1.00  0.00    -0.249 A  
HETATM   11  C   UNL     1     -11.112   5.997  69.595  1.00  0.00    -0.404 C  
HETATM   12  C   UNL     1     -10.362   5.922  70.869  1.00  0.00    -0.288 A  
HETATM   13  C   UNL     1      -9.266   3.874  73.772  1.00  0.00    -0.092 C  
HETATM   14  C   UNL     1      -9.808   7.162  71.163  1.00  0.00    -0.180 A  
HETATM   15  C   UNL     1      -9.444   4.980  72.874  1.00  0.00    -0.153 A  
HETATM   16  C   UNL     1      -8.867   6.226  73.172  1.00  0.00    -0.129 A  
HETATM   17  C   UNL     1      -9.038   7.319  72.310  1.00  0.00    -0.152 A  
BRANCH   7  18
HETATM   18  C   UNL     1     -11.169   9.238  70.609  1.00  0.00    -0.333 A  
HETATM   19  C   UNL     1     -12.059   8.972  71.670  1.00  0.00    -0.422 A  
HETATM   20  F   UNL     1     -13.707  12.176  72.080  1.00  0.00    -0.503 F  
HETATM   21  C   UNL     1     -12.891  11.227  71.603  1.00  0.00    -0.405 A  
HETATM   22  C   UNL     1     -12.021  11.528  70.566  1.00  0.00    -0.439 A  
HETATM   23  C   UNL     1     -11.166  10.540  70.070  1.00  0.00    -0.386 A  
HETATM   24  C   UNL     1     -12.921   9.957  72.158  1.00  0.00    -0.471 A  
ENDBRANCH   7  18
ENDBRANCH   6   7
ENDBRANCH   5   6
ENDBRANCH   4   5
ENDBRANCH   2   4
TORSDOF 5
ENDMDL
MODEL       76
REMARK 921   NORMALIZED FREE ENERGY PREDICTED BY IDOCK:   -4.60 KCAL/MOL
REMARK 922        TOTAL FREE ENERGY PREDICTED BY IDOCK:   -6.81 KCAL/MOL
REMARK 923 INTER-LIGAND FREE ENERGY PREDICTED BY IDOCK:   -5.73 KCAL/MOL
REMARK 924 INTRA-LIGAND FREE ENERGY PREDICTED BY IDOCK:   -1.08 KCAL/MOL
REMARK 927      BINDING AFFINITY PREDICTED BY RF-SCORE:    0.00 PKD
ROOT
HETATM    1  C   UNL     1      -9.256   4.394  64.882  1.00  0.00    -0.157 C  
HETATM    2  N   UNL     1      -8.660   5.012  66.071  1.00  0.00    -0.118 NA 
HETATM    3  C   UNL     1      -7.526   5.847  65.671  1.00  0.00    -0.081 C  
ENDROOT
BRANCH   2   4
HETATM    4  C   UNL     1      -9.684   5.767  66.815  1.00  0.00    -0.153 C  
BRANCH   4   5
HETATM    5  C   UNL     1      -9.487   7.291  66.748  1.00  0.00    -0.218 C  
BRANCH   5   6
HETATM    6  C   UNL     1     -10.585   8.039  67.522  1.00  0.00    -0.302 C  
BRANCH   6   7
HETATM    7  C   UNL     1     -10.049   8.993  68.620  1.00  0.00    -0.189 C  
HETATM    8  O   UNL     1      -8.603   9.070  68.421  1.00  0.00    -0.128 OA 
HETATM    9  N   UNL     1     -11.056  15.786  68.222  1.00  0.00    -0.326 NA 
HETATM   10  C   UNL     1      -9.496  12.639  68.320  1.00  0.00    -0.203 A  
HETATM   11  C   UNL     1      -8.150  10.437  68.410  1.00  0.00    -0.112 C  
HETATM   12  C   UNL     1      -9.384  11.256  68.403  1.00  0.00    -0.181 A  
HETATM   13  C   UNL     1     -10.929  14.634  68.272  1.00  0.00    -0.252 C  
HETATM   14  C   UNL     1     -10.497  10.430  68.502  1.00  0.00    -0.210 A  
HETATM   15  C   UNL     1     -10.773  13.208  68.336  1.00  0.00    -0.270 A  
HETATM   16  C   UNL     1     -11.906  12.381  68.420  1.00  0.00    -0.361 A  
HETATM   17  C   UNL     1     -11.771  10.986  68.492  1.00  0.00    -0.348 A  
BRANCH   7  18
HETATM   18  C   UNL     1     -10.337   8.386  70.007  1.00  0.00    -0.211 A  
HETATM   19  C   UNL     1     -10.961   7.127  70.133  1.00  0.00    -0.293 A  
HETATM   20  F   UNL     1     -11.021   6.684  73.732  1.00  0.00    -0.279 F  
HETATM   21  C   UNL     1     -10.804   7.234  72.530  1.00  0.00    -0.272 A  
HETATM   22  C   UNL     1     -10.176   8.469  72.444  1.00  0.00    -0.369 A  
HETATM   23  C   UNL     1      -9.945   9.042  71.190  1.00  0.00    -0.365 A  
HETATM   24  C   UNL     1     -11.202   6.559  71.386  1.00  0.00    -0.331 A  
ENDBRANCH   7  18
ENDBRANCH   6   7
ENDBRANCH   5   6
ENDBRANCH   4   5
ENDBRANCH   2   4
TORSDOF 5
ENDMDL
MODEL       77
REMARK 921   NORMALIZED FREE ENERGY PREDICTED BY IDOCK:   -4.57 KCAL/MOL
REMARK 922        TOTAL FREE ENERGY PREDICTED BY IDOCK:   -6.78 KCAL/MOL
REMARK 923 INTER-LIGAND FREE ENERGY PREDICTED BY IDOCK:   -6.39 KCAL/MOL
REMARK 924 INTRA-LIGAND FREE ENERGY PREDICTED BY IDOCK:   -0.39 KCAL/MOL
REMARK 927      BINDING AFFINITY PREDICTED BY RF-SCORE:    0.00 PKD
ROOT
HETATM    1  C   UNL     1      -6.729   6.855  67.506  1.00  0.00    -0.067 C  
HETATM    2  N   UNL     1      -7.450   6.776  66.232  1.00  0.00    -0.076 NA 
HETATM    3  C   UNL     1      -8.238   5.542  66.192  1.00  0.00    -0.112 C  
ENDROOT
BRANCH   2   4
HETATM    4  C   UNL     1      -8.277   7.982  66.044  1.00  0.00    -0.120 C  
BRANCH   4   5
HETATM    5  C   UNL     1      -8.802   8.573  67.363  1.00  0.00    -0.140 C  
BRANCH   5   6
HETATM    6  C   UNL     1      -8.100   9.896  67.711  1.00  0.00    -0.109 C  
BRANCH   6   7
HETATM    7  C   UNL     1      -9.046  10.986  68.277  1.00  0.00    -0.158 C  
HETATM    8  O   UNL     1      -8.182  12.052  68.780  1.00  0.00    -0.091 OA 
HETATM    9  N   UNL     1     -12.645  15.086  64.085  1.00  0.00    -0.736 NA 
HETATM   10  C   UNL     1     -10.340  13.954  66.484  1.00  0.00    -0.286 A  
HETATM   11  C   UNL     1      -8.608  13.340  68.298  1.00  0.00    -0.169 C  
HETATM   12  C   UNL     1      -9.658  13.054  67.294  1.00  0.00    -0.225 A  
HETATM   13  C   UNL     1     -12.046  14.359  64.763  1.00  0.00    -0.452 C  
HETATM   14  C   UNL     1      -9.909  11.687  67.254  1.00  0.00    -0.203 A  
HETATM   15  C   UNL     1     -11.306  13.459  65.602  1.00  0.00    -0.316 A  
HETATM   16  C   UNL     1     -11.556  12.078  65.543  1.00  0.00    -0.352 A  
HETATM   17  C   UNL     1     -10.849  11.185  66.361  1.00  0.00    -0.284 A  
BRANCH   7  18
HETATM   18  C   UNL     1      -9.859  10.399  69.447  1.00  0.00    -0.235 A  
HETATM   19  C   UNL     1     -11.209  10.756  69.643  1.00  0.00    -0.355 A  
HETATM   20  F   UNL     1     -12.097   8.746  72.528  1.00  0.00    -0.425 F  
HETATM   21  C   UNL     1     -11.374   9.282  71.536  1.00  0.00    -0.385 A  
HETATM   22  C   UNL     1     -10.052   8.899  71.366  1.00  0.00    -0.379 A  
HETATM   23  C   UNL     1      -9.298   9.455  70.328  1.00  0.00    -0.294 A  
HETATM   24  C   UNL     1     -11.960  10.209  70.687  1.00  0.00    -0.423 A  
ENDBRANCH   7  18
ENDBRANCH   6   7
ENDBRANCH   5   6
ENDBRANCH   4   5
ENDBRANCH   2   4
TORSDOF 5
ENDMDL
MODEL       78
REMARK 921   NORMALIZED FREE ENERGY PREDICTED BY IDOCK:   -4.56 KCAL/MOL
REMARK 922        TOTAL FREE ENERGY PREDICTED BY IDOCK:   -6.76 KCAL/MOL
REMARK 923 INTER-LIGAND FREE ENERGY PREDICTED BY IDOCK:   -5.78 KCAL/MOL
REMARK 924 INTRA-LIGAND FREE ENERGY PREDICTED BY IDOCK:   -0.98 KCAL/MOL
REMARK 927      BINDING AFFINITY PREDICTED BY RF-SCORE:    0.00 PKD
ROOT
HETATM    1  C   UNL     1      -8.334  20.466  67.201  1.00  0.00    -0.318 C  
HETATM    2  N   UNL     1      -7.364  19.367  67.237  1.00  0.00    -0.219 NA 
HETATM    3  C   UNL     1      -6.295  19.691  68.184  1.00  0.00    -0.234 C  
ENDROOT
BRANCH   2   4
HETATM    4  C   UNL     1      -8.046  18.102  67.564  1.00  0.00    -0.238 C  
BRANCH   4   5
HETATM    5  C   UNL     1      -9.577  18.234  67.629  1.00  0.00    -0.287 C  
BRANCH   5   6
HETATM    6  C   UNL     1     -10.142  17.643  68.931  1.00  0.00    -0.351 C  
BRANCH   6   7
HETATM    7  C   UNL     1     -10.577  16.159  68.817  1.00  0.00    -0.279 C  
HETATM    8  O   UNL     1     -11.324  16.049  67.566  1.00  0.00    -0.200 OA 
HETATM    9  N   UNL     1      -6.038  11.244  67.214  1.00  0.00    -0.066 NA 
HETATM   10  C   UNL     1      -8.775  13.443  67.064  1.00  0.00    -0.195 A  
HETATM   11  C   UNL     1     -10.860  14.939  66.776  1.00  0.00    -0.320 C  
HETATM   12  C   UNL     1      -9.642  14.454  67.463  1.00  0.00    -0.215 A  
HETATM   13  C   UNL     1      -6.771  12.094  67.510  1.00  0.00    -0.129 C  
HETATM   14  C   UNL     1      -9.450  15.168  68.641  1.00  0.00    -0.206 A  
HETATM   15  C   UNL     1      -7.678  13.144  67.878  1.00  0.00    -0.147 A  
HETATM   16  C   UNL     1      -7.468  13.870  69.063  1.00  0.00    -0.032 A  
HETATM   17  C   UNL     1      -8.348  14.893  69.442  1.00  0.00    -0.069 A  
BRANCH   7  18
HETATM   18  C   UNL     1     -11.507  15.808  69.995  1.00  0.00    -0.359 A  
HETATM   19  C   UNL     1     -11.124  16.076  71.326  1.00  0.00    -0.126 A  
HETATM   20  F   UNL     1     -14.043  14.972  73.174  1.00  0.00    -0.377 F  
HETATM   21  C   UNL     1     -13.223  15.238  72.149  1.00  0.00    -0.395 A  
HETATM   22  C   UNL     1     -13.637  14.973  70.851  1.00  0.00    -0.363 A  
HETATM   23  C   UNL     1     -12.784  15.255  69.781  1.00  0.00    -0.055 A  
HETATM   24  C   UNL     1     -11.972  15.784  72.396  1.00  0.00    -0.600 A  
ENDBRANCH   7  18
ENDBRANCH   6   7
ENDBRANCH   5   6
ENDBRANCH   4   5
ENDBRANCH   2   4
TORSDOF 5
ENDMDL
MODEL       79
REMARK 921   NORMALIZED FREE ENERGY PREDICTED BY IDOCK:   -4.55 KCAL/MOL
REMARK 922        TOTAL FREE ENERGY PREDICTED BY IDOCK:   -6.75 KCAL/MOL
REMARK 923 INTER-LIGAND FREE ENERGY PREDICTED BY IDOCK:   -6.22 KCAL/MOL
REMARK 924 INTRA-LIGAND FREE ENERGY PREDICTED BY IDOCK:   -0.53 KCAL/MOL
REMARK 927      BINDING AFFINITY PREDICTED BY RF-SCORE:    0.00 PKD
ROOT
HETATM    1  C   UNL     1      -7.982  19.158  68.382  1.00  0.00    -0.341 C  
HETATM    2  N   UNL     1      -9.368  18.808  68.709  1.00  0.00    -0.335 NA 
HETATM    3  C   UNL     1     -10.171  18.797  67.484  1.00  0.00    -0.393 C  
ENDROOT
BRANCH   2   4
HETATM    4  C   UNL     1      -9.408  17.520  69.424  1.00  0.00     0.288 C  
BRANCH   4   5
HETATM    5  C   UNL     1     -10.095  16.400  68.624  1.00  0.00    -0.244 C  
BRANCH   5   6
HETATM    6  C   UNL     1      -9.212  15.145  68.534  1.00  0.00    -0.192 C  
BRANCH   6   7
HETATM    7  C   UNL     1      -9.943  13.893  67.984  1.00  0.00    -0.241 C  
HETATM    8  O   UNL     1      -8.897  12.959  67.574  1.00  0.00    -0.171 OA 
HETATM    9  N   UNL     1     -13.054   9.455  72.221  1.00  0.00    -0.428 NA 
HETATM   10  C   UNL     1     -10.839  10.837  69.869  1.00  0.00    -0.264 A  
HETATM   11  C   UNL     1      -9.136  11.641  68.103  1.00  0.00    -0.183 C  
HETATM   12  C   UNL     1     -10.268  11.799  69.044  1.00  0.00    -0.044 A  
HETATM   13  C   UNL     1     -12.544  10.238  71.534  1.00  0.00    -0.440 C  
HETATM   14  C   UNL     1     -10.735  13.107  69.004  1.00  0.00    -0.144 A  
HETATM   15  C   UNL     1     -11.915  11.208  70.682  1.00  0.00    -0.459 A  
HETATM   16  C   UNL     1     -12.384  12.532  70.660  1.00  0.00    -0.369 A  
HETATM   17  C   UNL     1     -11.787  13.490  69.828  1.00  0.00    -0.395 A  
BRANCH   7  18
HETATM   18  C   UNL     1     -10.778  14.290  66.752  1.00  0.00    -0.287 A  
HETATM   19  C   UNL     1     -10.319  15.272  65.850  1.00  0.00    -0.346 A  
HETATM   20  F   UNL     1     -12.961  15.295  63.366  1.00  0.00     0.457 F  
HETATM   21  C   UNL     1     -12.259  14.973  64.460  1.00  0.00    -0.331 A  
HETATM   22  C   UNL     1     -12.735  13.994  65.319  1.00  0.00    -0.468 A  
HETATM   23  C   UNL     1     -12.001  13.655  66.459  1.00  0.00    -0.465 A  
HETATM   24  C   UNL     1     -11.058  15.619  64.717  1.00  0.00    -0.426 A  
ENDBRANCH   7  18
ENDBRANCH   6   7
ENDBRANCH   5   6
ENDBRANCH   4   5
ENDBRANCH   2   4
TORSDOF 5
ENDMDL
MODEL       80
REMARK 921   NORMALIZED FREE ENERGY PREDICTED BY IDOCK:   -4.52 KCAL/MOL
REMARK 922        TOTAL FREE ENERGY PREDICTED BY IDOCK:   -6.72 KCAL/MOL
REMARK 923 INTER-LIGAND FREE ENERGY PREDICTED BY IDOCK:   -5.83 KCAL/MOL
REMARK 924 INTRA-LIGAND FREE ENERGY PREDICTED BY IDOCK:   -0.89 KCAL/MOL
REMARK 927      BINDING AFFINITY PREDICTED BY RF-SCORE:    0.00 PKD
ROOT
HETATM    1  C   UNL     1      -9.997   6.180  68.957  1.00  0.00    -0.153 C  
HETATM    2  N   UNL     1      -9.464   6.917  67.807  1.00  0.00    -0.123 NA 
HETATM    3  C   UNL     1      -8.737   5.997  66.931  1.00  0.00    -0.112 C  
ENDROOT
BRANCH   2   4
HETATM    4  C   UNL     1     -10.556   7.621  67.109  1.00  0.00    -0.340 C  
BRANCH   4   5
HETATM    5  C   UNL     1     -10.305   9.130  66.953  1.00  0.00    -0.321 C  
BRANCH   5   6
HETATM    6  C   UNL     1     -11.247   9.956  67.844  1.00  0.00    -0.108 C  
BRANCH   6   7
HETATM    7  C   UNL     1     -10.548  11.110  68.608  1.00  0.00    -0.193 C  
HETATM    8  O   UNL     1     -10.234  12.128  67.608  1.00  0.00    -0.193 OA 
HETATM    9  N   UNL     1     -14.127  15.361  72.662  1.00  0.00    -0.495 NA 
HETATM   10  C   UNL     1     -12.152  14.125  70.032  1.00  0.00    -0.409 A  
HETATM   11  C   UNL     1     -10.663  13.433  68.039  1.00  0.00    -0.248 C  
HETATM   12  C   UNL     1     -11.455  13.197  69.267  1.00  0.00    -0.348 A  
HETATM   13  C   UNL     1     -13.550  14.609  71.994  1.00  0.00    -0.400 C  
HETATM   14  C   UNL     1     -11.417  11.848  69.599  1.00  0.00    -0.337 A  
HETATM   15  C   UNL     1     -12.835  13.678  71.167  1.00  0.00    -0.399 A  
HETATM   16  C   UNL     1     -12.814  12.313  71.503  1.00  0.00    -0.384 A  
HETATM   17  C   UNL     1     -12.114  11.391  70.712  1.00  0.00    -0.433 A  
BRANCH   7  18
HETATM   18  C   UNL     1      -9.237  10.590  69.229  1.00  0.00    -0.164 A  
HETATM   19  C   UNL     1      -9.254   9.750  70.362  1.00  0.00    -0.169 A  
HETATM   20  F   UNL     1      -5.722   9.089  70.851  1.00  0.00    -0.030 F  
HETATM   21  C   UNL     1      -6.856   9.576  70.330  1.00  0.00    -0.092 A  
HETATM   22  C   UNL     1      -6.802  10.390  69.207  1.00  0.00    -0.073 A  
HETATM   23  C   UNL     1      -7.985  10.895  68.661  1.00  0.00    -0.140 A  
HETATM   24  C   UNL     1      -8.071   9.254  70.915  1.00  0.00    -0.168 A  
ENDBRANCH   7  18
ENDBRANCH   6   7
ENDBRANCH   5   6
ENDBRANCH   4   5
ENDBRANCH   2   4
TORSDOF 5
ENDMDL
MODEL       81
REMARK 921   NORMALIZED FREE ENERGY PREDICTED BY IDOCK:   -4.52 KCAL/MOL
REMARK 922        TOTAL FREE ENERGY PREDICTED BY IDOCK:   -6.72 KCAL/MOL
REMARK 923 INTER-LIGAND FREE ENERGY PREDICTED BY IDOCK:   -5.99 KCAL/MOL
REMARK 924 INTRA-LIGAND FREE ENERGY PREDICTED BY IDOCK:   -0.73 KCAL/MOL
REMARK 927      BINDING AFFINITY PREDICTED BY RF-SCORE:    0.00 PKD
ROOT
HETATM    1  C   UNL     1      -6.018  10.736  65.886  1.00  0.00    -0.135 C  
HETATM    2  N   UNL     1      -6.723   9.635  66.549  1.00  0.00    -0.078 NA 
HETATM    3  C   UNL     1      -6.375   8.370  65.899  1.00  0.00    -0.052 C  
ENDROOT
BRANCH   2   4
HETATM    4  C   UNL     1      -6.417   9.634  67.991  1.00  0.00    -0.057 C  
BRANCH   4   5
HETATM    5  C   UNL     1      -7.650   9.381  68.875  1.00  0.00    -0.075 C  
BRANCH   5   6
HETATM    6  C   UNL     1      -8.545  10.627  68.969  1.00  0.00    -0.150 C  
BRANCH   6   7
HETATM    7  C   UNL     1      -9.979  10.422  68.416  1.00  0.00    -0.162 C  
HETATM    8  O   UNL     1     -10.888  10.866  69.471  1.00  0.00    -0.239 OA 
HETATM    9  N   UNL     1     -12.566  14.617  63.616  1.00  0.00    -0.652 NA 
HETATM   10  C   UNL     1     -12.060  12.923  66.653  1.00  0.00    -0.360 A  
HETATM   11  C   UNL     1     -11.888  11.764  68.954  1.00  0.00    -0.320 C  
HETATM   12  C   UNL     1     -11.471  12.053  67.563  1.00  0.00    -0.403 A  
HETATM   13  C   UNL     1     -12.088  13.911  64.404  1.00  0.00    -0.443 C  
HETATM   14  C   UNL     1     -10.350  11.297  67.242  1.00  0.00    -0.236 A  
HETATM   15  C   UNL     1     -11.498  13.037  65.378  1.00  0.00    -0.344 A  
HETATM   16  C   UNL     1     -10.355  12.289  65.049  1.00  0.00    -0.321 A  
HETATM   17  C   UNL     1      -9.770  11.424  65.985  1.00  0.00    -0.253 A  
BRANCH   7  18
HETATM   18  C   UNL     1     -10.212   8.923  68.145  1.00  0.00    -0.245 A  
HETATM   19  C   UNL     1     -10.579   8.047  69.187  1.00  0.00    -0.181 A  
HETATM   20  F   UNL     1     -10.950   4.903  67.417  1.00  0.00    -0.073 F  
HETATM   21  C   UNL     1     -10.708   6.199  67.653  1.00  0.00    -0.308 A  
HETATM   22  C   UNL     1     -10.360   7.035  66.602  1.00  0.00    -0.215 A  
HETATM   23  C   UNL     1     -10.112   8.388  66.846  1.00  0.00    -0.364 A  
HETATM   24  C   UNL     1     -10.817   6.692  68.945  1.00  0.00    -0.326 A  
ENDBRANCH   7  18
ENDBRANCH   6   7
ENDBRANCH   5   6
ENDBRANCH   4   5
ENDBRANCH   2   4
TORSDOF 5
ENDMDL
MODEL       82
REMARK 921   NORMALIZED FREE ENERGY PREDICTED BY IDOCK:   -4.51 KCAL/MOL
REMARK 922        TOTAL FREE ENERGY PREDICTED BY IDOCK:   -6.70 KCAL/MOL
REMARK 923 INTER-LIGAND FREE ENERGY PREDICTED BY IDOCK:   -5.35 KCAL/MOL
REMARK 924 INTRA-LIGAND FREE ENERGY PREDICTED BY IDOCK:   -1.34 KCAL/MOL
REMARK 927      BINDING AFFINITY PREDICTED BY RF-SCORE:    0.00 PKD
ROOT
HETATM    1  C   UNL     1      -7.363   6.217  72.997  1.00  0.00    -0.091 C  
HETATM    2  N   UNL     1      -7.406   7.276  74.010  1.00  0.00    -0.100 NA 
HETATM    3  C   UNL     1      -6.399   8.292  73.698  1.00  0.00    -0.115 C  
ENDROOT
BRANCH   2   4
HETATM    4  C   UNL     1      -8.767   7.835  74.099  1.00  0.00    -0.238 C  
BRANCH   4   5
HETATM    5  C   UNL     1      -9.686   7.387  72.950  1.00  0.00    -0.231 C  
BRANCH   5   6
HETATM    6  C   UNL     1     -10.294   8.588  72.209  1.00  0.00    -0.402 C  
BRANCH   6   7
HETATM    7  C   UNL     1      -9.812   8.739  70.743  1.00  0.00    -0.205 C  
HETATM    8  O   UNL     1      -8.375   8.999  70.813  1.00  0.00    -0.158 OA 
HETATM    9  N   UNL     1      -9.211   3.264  66.622  1.00  0.00    -0.166 NA 
HETATM   10  C   UNL     1      -8.428   6.080  68.573  1.00  0.00    -0.113 A  
HETATM   11  C   UNL     1      -7.645   8.140  69.918  1.00  0.00    -0.089 C  
HETATM   12  C   UNL     1      -8.640   7.167  69.413  1.00  0.00    -0.134 A  
HETATM   13  C   UNL     1      -9.350   4.169  67.335  1.00  0.00    -0.175 C  
HETATM   14  C   UNL     1      -9.901   7.488  69.901  1.00  0.00    -0.187 A  
HETATM   15  C   UNL     1      -9.525   5.289  68.216  1.00  0.00    -0.155 A  
HETATM   16  C   UNL     1     -10.801   5.596  68.717  1.00  0.00    -0.210 A  
HETATM   17  C   UNL     1     -10.991   6.692  69.571  1.00  0.00    -0.367 A  
BRANCH   7  18
HETATM   18  C   UNL     1     -10.513   9.949  70.097  1.00  0.00    -0.339 A  
HETATM   19  C   UNL     1     -11.586  10.597  70.745  1.00  0.00    -0.388 A  
HETATM   20  F   UNL     1     -12.347  13.278  68.425  1.00  0.00    -0.342 F  
HETATM   21  C   UNL     1     -11.758  12.202  68.963  1.00  0.00    -0.322 A  
HETATM   22  C   UNL     1     -10.698  11.598  68.303  1.00  0.00    -0.246 A  
HETATM   23  C   UNL     1     -10.080  10.477  68.865  1.00  0.00    -0.215 A  
HETATM   24  C   UNL     1     -12.210  11.710  70.178  1.00  0.00    -0.367 A  
ENDBRANCH   7  18
ENDBRANCH   6   7
ENDBRANCH   5   6
ENDBRANCH   4   5
ENDBRANCH   2   4
TORSDOF 5
ENDMDL
MODEL       83
REMARK 921   NORMALIZED FREE ENERGY PREDICTED BY IDOCK:   -4.50 KCAL/MOL
REMARK 922        TOTAL FREE ENERGY PREDICTED BY IDOCK:   -6.69 KCAL/MOL
REMARK 923 INTER-LIGAND FREE ENERGY PREDICTED BY IDOCK:   -5.70 KCAL/MOL
REMARK 924 INTRA-LIGAND FREE ENERGY PREDICTED BY IDOCK:   -0.99 KCAL/MOL
REMARK 927      BINDING AFFINITY PREDICTED BY RF-SCORE:    0.00 PKD
ROOT
HETATM    1  C   UNL     1      -5.953  10.226  65.788  1.00  0.00    -0.105 C  
HETATM    2  N   UNL     1      -6.913  10.317  66.893  1.00  0.00    -0.088 NA 
HETATM    3  C   UNL     1      -7.236  11.723  67.144  1.00  0.00    -0.147 C  
ENDROOT
BRANCH   2   4
HETATM    4  C   UNL     1      -8.108   9.507  66.593  1.00  0.00    -0.108 C  
BRANCH   4   5
HETATM    5  C   UNL     1      -8.415   8.453  67.671  1.00  0.00    -0.130 C  
BRANCH   5   6
HETATM    6  C   UNL     1      -9.001   9.094  68.939  1.00  0.00    -0.139 C  
BRANCH   6   7
HETATM    7  C   UNL     1     -10.162   8.290  69.578  1.00  0.00    -0.210 C  
HETATM    8  O   UNL     1     -10.886   7.671  68.470  1.00  0.00    -0.102 OA 
HETATM    9  N   UNL     1      -8.981   2.369  72.876  1.00  0.00    -0.070 NA 
HETATM   10  C   UNL     1     -10.130   4.711  70.522  1.00  0.00    -0.263 A  
HETATM   11  C   UNL     1     -11.105   6.268  68.707  1.00  0.00    -0.346 C  
HETATM   12  C   UNL     1     -10.314   5.950  69.918  1.00  0.00    -0.307 A  
HETATM   13  C   UNL     1      -9.141   3.384  72.338  1.00  0.00    -0.100 C  
HETATM   14  C   UNL     1      -9.741   7.110  70.424  1.00  0.00    -0.176 A  
HETATM   15  C   UNL     1      -9.339   4.642  71.673  1.00  0.00    -0.195 A  
HETATM   16  C   UNL     1      -8.743   5.807  72.184  1.00  0.00    -0.133 A  
HETATM   17  C   UNL     1      -8.933   7.045  71.553  1.00  0.00    -0.139 A  
BRANCH   7  18
HETATM   18  C   UNL     1     -11.104   9.256  70.321  1.00  0.00    -0.289 A  
HETATM   19  C   UNL     1     -11.223  10.604  69.922  1.00  0.00    -0.378 A  
HETATM   20  F   UNL     1     -13.718  11.849  72.241  1.00  0.00    -0.505 F  
HETATM   21  C   UNL     1     -12.872  11.014  71.624  1.00  0.00    -0.435 A  
HETATM   22  C   UNL     1     -12.790   9.691  72.036  1.00  0.00    -0.497 A  
HETATM   23  C   UNL     1     -11.910   8.818  71.390  1.00  0.00    -0.369 A  
HETATM   24  C   UNL     1     -12.094  11.479  70.574  1.00  0.00    -0.472 A  
ENDBRANCH   7  18
ENDBRANCH   6   7
ENDBRANCH   5   6
ENDBRANCH   4   5
ENDBRANCH   2   4
TORSDOF 5
ENDMDL
MODEL       84
REMARK 921   NORMALIZED FREE ENERGY PREDICTED BY IDOCK:   -4.49 KCAL/MOL
REMARK 922        TOTAL FREE ENERGY PREDICTED BY IDOCK:   -6.68 KCAL/MOL
REMARK 923 INTER-LIGAND FREE ENERGY PREDICTED BY IDOCK:   -5.94 KCAL/MOL
REMARK 924 INTRA-LIGAND FREE ENERGY PREDICTED BY IDOCK:   -0.74 KCAL/MOL
REMARK 927      BINDING AFFINITY PREDICTED BY RF-SCORE:    0.00 PKD
ROOT
HETATM    1  C   UNL     1     -11.526   4.743  72.992  1.00  0.00    -0.209 C  
HETATM    2  N   UNL     1     -10.413   5.280  72.202  1.00  0.00    -0.215 NA 
HETATM    3  C   UNL     1      -9.267   4.373  72.295  1.00  0.00    -0.122 C  
ENDROOT
BRANCH   2   4
HETATM    4  C   UNL     1     -10.844   5.508  70.811  1.00  0.00    -0.179 C  
BRANCH   4   5
HETATM    5  C   UNL     1     -11.692   6.779  70.637  1.00  0.00    -0.440 C  
BRANCH   5   6
HETATM    6  C   UNL     1     -11.109   7.706  69.558  1.00  0.00    -0.031 C  
BRANCH   6   7
HETATM    7  C   UNL     1     -10.468   9.003  70.114  1.00  0.00    -0.214 C  
HETATM    8  O   UNL     1      -9.838   9.666  68.974  1.00  0.00    -0.169 OA 
HETATM    9  N   UNL     1     -14.344  14.412  71.859  1.00  0.00    -0.525 NA 
HETATM   10  C   UNL     1     -12.000  12.370  70.221  1.00  0.00    -0.371 A  
HETATM   11  C   UNL     1     -10.204  11.057  68.910  1.00  0.00    -0.203 C  
HETATM   12  C   UNL     1     -11.261  11.228  69.932  1.00  0.00    -0.264 A  
HETATM   13  C   UNL     1     -13.723  13.472  71.582  1.00  0.00    -0.199 C  
HETATM   14  C   UNL     1     -11.443  10.038  70.626  1.00  0.00    -0.425 A  
HETATM   15  C   UNL     1     -12.954  12.308  71.241  1.00  0.00    -0.299 A  
HETATM   16  C   UNL     1     -13.155  11.105  71.938  1.00  0.00    -0.513 A  
HETATM   17  C   UNL     1     -12.407   9.961  71.624  1.00  0.00    -0.496 A  
BRANCH   7  18
HETATM   18  C   UNL     1      -9.385   8.635  71.147  1.00  0.00    -0.274 A  
HETATM   19  C   UNL     1      -8.090   8.257  70.736  1.00  0.00    -0.109 A  
HETATM   20  F   UNL     1      -6.421   7.746  73.915  1.00  0.00    -0.075 F  
HETATM   21  C   UNL     1      -7.378   8.029  73.022  1.00  0.00    -0.110 A  
HETATM   22  C   UNL     1      -8.638   8.410  73.462  1.00  0.00    -0.174 A  
HETATM   23  C   UNL     1      -9.635   8.710  72.530  1.00  0.00    -0.257 A  
HETATM   24  C   UNL     1      -7.095   7.947  71.667  1.00  0.00    -0.067 A  
ENDBRANCH   7  18
ENDBRANCH   6   7
ENDBRANCH   5   6
ENDBRANCH   4   5
ENDBRANCH   2   4
TORSDOF 5
ENDMDL
MODEL       85
REMARK 921   NORMALIZED FREE ENERGY PREDICTED BY IDOCK:   -4.47 KCAL/MOL
REMARK 922        TOTAL FREE ENERGY PREDICTED BY IDOCK:   -6.65 KCAL/MOL
REMARK 923 INTER-LIGAND FREE ENERGY PREDICTED BY IDOCK:   -6.04 KCAL/MOL
REMARK 924 INTRA-LIGAND FREE ENERGY PREDICTED BY IDOCK:   -0.61 KCAL/MOL
REMARK 927      BINDING AFFINITY PREDICTED BY RF-SCORE:    0.00 PKD
ROOT
HETATM    1  C   UNL     1      -8.864   7.761  69.797  1.00  0.00    -0.139 C  
HETATM    2  N   UNL     1      -9.069   8.705  68.694  1.00  0.00    -0.139 NA 
HETATM    3  C   UNL     1     -10.323   8.390  68.008  1.00  0.00    -0.215 C  
ENDROOT
BRANCH   2   4
HETATM    4  C   UNL     1      -9.032  10.089  69.200  1.00  0.00    -0.169 C  
BRANCH   4   5
HETATM    5  C   UNL     1      -9.538  11.124  68.181  1.00  0.00    -0.181 C  
BRANCH   5   6
HETATM    6  C   UNL     1     -10.654  12.002  68.771  1.00  0.00    -0.237 C  
BRANCH   6   7
HETATM    7  C   UNL     1     -10.683  13.449  68.217  1.00  0.00    -0.258 C  
HETATM    8  O   UNL     1     -11.669  14.171  69.019  1.00  0.00    -0.281 OA 
HETATM    9  N   UNL     1      -5.552  17.845  69.512  1.00  0.00    -0.206 NA 
HETATM   10  C   UNL     1      -8.726  16.339  69.450  1.00  0.00    -0.044 A  
HETATM   11  C   UNL     1     -11.140  15.423  69.495  1.00  0.00    -0.284 C  
HETATM   12  C   UNL     1      -9.702  15.396  69.146  1.00  0.00    -0.252 A  
HETATM   13  C   UNL     1      -6.386  17.070  69.289  1.00  0.00    -0.229 C  
HETATM   14  C   UNL     1      -9.415  14.244  68.422  1.00  0.00    -0.213 A  
HETATM   15  C   UNL     1      -7.418  16.111  69.012  1.00  0.00    -0.210 A  
HETATM   16  C   UNL     1      -7.115  14.942  68.293  1.00  0.00    -0.112 A  
HETATM   17  C   UNL     1      -8.112  13.998  68.005  1.00  0.00    -0.152 A  
BRANCH   7  18
HETATM   18  C   UNL     1     -11.146  13.425  66.748  1.00  0.00    -0.308 A  
HETATM   19  C   UNL     1     -10.700  14.399  65.831  1.00  0.00    -0.308 A  
HETATM   20  F   UNL     1     -12.296  13.313  62.760  1.00  0.00    -0.496 F  
HETATM   21  C   UNL     1     -11.928  13.351  64.047  1.00  0.00    -0.464 A  
HETATM   22  C   UNL     1     -12.376  12.370  64.919  1.00  0.00    -0.475 A  
HETATM   23  C   UNL     1     -11.989  12.407  66.262  1.00  0.00    -0.369 A  
HETATM   24  C   UNL     1     -11.096  14.368  64.491  1.00  0.00    -0.301 A  
ENDBRANCH   7  18
ENDBRANCH   6   7
ENDBRANCH   5   6
ENDBRANCH   4   5
ENDBRANCH   2   4
TORSDOF 5
ENDMDL
MODEL       86
REMARK 921   NORMALIZED FREE ENERGY PREDICTED BY IDOCK:   -4.44 KCAL/MOL
REMARK 922        TOTAL FREE ENERGY PREDICTED BY IDOCK:   -6.61 KCAL/MOL
REMARK 923 INTER-LIGAND FREE ENERGY PREDICTED BY IDOCK:   -5.56 KCAL/MOL
REMARK 924 INTRA-LIGAND FREE ENERGY PREDICTED BY IDOCK:   -1.04 KCAL/MOL
REMARK 927      BINDING AFFINITY PREDICTED BY RF-SCORE:    0.00 PKD
ROOT
HETATM    1  C   UNL     1     -10.073   4.352  72.132  1.00  0.00    -0.195 C  
HETATM    2  N   UNL     1      -9.058   4.646  71.116  1.00  0.00    -0.129 NA 
HETATM    3  C   UNL     1      -8.815   3.450  70.307  1.00  0.00    -0.080 C  
ENDROOT
BRANCH   2   4
HETATM    4  C   UNL     1      -9.475   5.804  70.305  1.00  0.00    -0.161 C  
BRANCH   4   5
HETATM    5  C   UNL     1     -10.211   6.883  71.117  1.00  0.00    -0.211 C  
BRANCH   5   6
HETATM    6  C   UNL     1     -11.073   7.781  70.215  1.00  0.00    -0.242 C  
BRANCH   6   7
HETATM    7  C   UNL     1     -10.434   9.156  69.891  1.00  0.00    -0.223 C  
HETATM    8  O   UNL     1      -9.150   9.181  70.589  1.00  0.00    -0.216 OA 
HETATM    9  N   UNL     1      -7.751  10.450  63.690  1.00  0.00    -0.101 NA 
HETATM   10  C   UNL     1      -8.068   9.916  67.149  1.00  0.00    -0.117 A  
HETATM   11  C   UNL     1      -8.087   9.596  69.711  1.00  0.00    -0.155 C  
HETATM   12  C   UNL     1      -8.692   9.641  68.361  1.00  0.00    -0.120 A  
HETATM   13  C   UNL     1      -8.238  10.208  64.715  1.00  0.00    -0.161 C  
HETATM   14  C   UNL     1     -10.051   9.366  68.445  1.00  0.00    -0.208 A  
HETATM   15  C   UNL     1      -8.841   9.910  65.984  1.00  0.00    -0.166 A  
HETATM   16  C   UNL     1     -10.214   9.618  66.057  1.00  0.00    -0.255 A  
HETATM   17  C   UNL     1     -10.821   9.333  67.288  1.00  0.00    -0.140 A  
BRANCH   7  18
HETATM   18  C   UNL     1     -11.332  10.279  70.444  1.00  0.00    -0.410 A  
HETATM   19  C   UNL     1     -11.234  11.596  69.949  1.00  0.00    -0.140 A  
HETATM   20  F   UNL     1     -13.818  13.295  71.844  1.00  0.00    -0.462 F  
HETATM   21  C   UNL     1     -13.014  12.323  71.395  1.00  0.00    -0.256 A  
HETATM   22  C   UNL     1     -13.146  11.036  71.896  1.00  0.00    -0.525 A  
HETATM   23  C   UNL     1     -12.309  10.021  71.425  1.00  0.00    -0.512 A  
HETATM   24  C   UNL     1     -12.063  12.614  70.428  1.00  0.00    -0.381 A  
ENDBRANCH   7  18
ENDBRANCH   6   7
ENDBRANCH   5   6
ENDBRANCH   4   5
ENDBRANCH   2   4
TORSDOF 5
ENDMDL
MODEL       87
REMARK 921   NORMALIZED FREE ENERGY PREDICTED BY IDOCK:   -4.41 KCAL/MOL
REMARK 922        TOTAL FREE ENERGY PREDICTED BY IDOCK:   -6.58 KCAL/MOL
REMARK 923 INTER-LIGAND FREE ENERGY PREDICTED BY IDOCK:   -6.16 KCAL/MOL
REMARK 924 INTRA-LIGAND FREE ENERGY PREDICTED BY IDOCK:   -0.42 KCAL/MOL
REMARK 927      BINDING AFFINITY PREDICTED BY RF-SCORE:    0.00 PKD
ROOT
HETATM    1  C   UNL     1     -12.414  12.433  63.370  1.00  0.00    -0.446 C  
HETATM    2  N   UNL     1     -11.311  12.188  64.304  1.00  0.00    -0.338 NA 
HETATM    3  C   UNL     1     -10.333  11.293  63.683  1.00  0.00    -0.408 C  
ENDROOT
BRANCH   2   4
HETATM    4  C   UNL     1     -10.716  13.468  64.730  1.00  0.00    -0.401 C  
BRANCH   4   5
HETATM    5  C   UNL     1     -11.723  14.411  65.410  1.00  0.00    -0.362 C  
BRANCH   5   6
HETATM    6  C   UNL     1     -12.448  13.720  66.576  1.00  0.00    -0.356 C  
BRANCH   6   7
HETATM    7  C   UNL     1     -11.646  13.705  67.903  1.00  0.00    -0.341 C  
HETATM    8  O   UNL     1     -12.632  13.828  68.975  1.00  0.00    -0.031 OA 
HETATM    9  N   UNL     1      -8.887   7.883  70.315  1.00  0.00    -0.139 NA 
HETATM   10  C   UNL     1     -10.886  10.756  70.006  1.00  0.00    -0.218 A  
HETATM   11  C   UNL     1     -12.422  12.832  69.993  1.00  0.00     0.001 C  
HETATM   12  C   UNL     1     -11.391  11.923  69.444  1.00  0.00    -0.327 A  
HETATM   13  C   UNL     1      -9.341   8.851  69.865  1.00  0.00    -0.166 C  
HETATM   14  C   UNL     1     -10.945  12.404  68.219  1.00  0.00    -0.269 A  
HETATM   15  C   UNL     1      -9.901  10.050  69.308  1.00  0.00    -0.227 A  
HETATM   16  C   UNL     1      -9.455  10.521  68.061  1.00  0.00    -0.157 A  
HETATM   17  C   UNL     1      -9.985  11.695  67.507  1.00  0.00    -0.202 A  
BRANCH   7  18
HETATM   18  C   UNL     1     -10.702  14.922  67.942  1.00  0.00    -0.265 A  
HETATM   19  C   UNL     1     -11.205  16.223  68.147  1.00  0.00    -0.298 A  
HETATM   20  F   UNL     1      -8.164  18.201  68.160  1.00  0.00    -0.243 F  
HETATM   21  C   UNL     1      -8.983  17.143  68.086  1.00  0.00    -0.240 A  
HETATM   22  C   UNL     1      -8.453  15.876  67.896  1.00  0.00    -0.164 A  
HETATM   23  C   UNL     1      -9.307  14.772  67.822  1.00  0.00    -0.199 A  
HETATM   24  C   UNL     1     -10.352  17.328  68.209  1.00  0.00    -0.361 A  
ENDBRANCH   7  18
ENDBRANCH   6   7
ENDBRANCH   5   6
ENDBRANCH   4   5
ENDBRANCH   2   4
TORSDOF 5
ENDMDL
MODEL       88
REMARK 921   NORMALIZED FREE ENERGY PREDICTED BY IDOCK:   -4.41 KCAL/MOL
REMARK 922        TOTAL FREE ENERGY PREDICTED BY IDOCK:   -6.58 KCAL/MOL
REMARK 923 INTER-LIGAND FREE ENERGY PREDICTED BY IDOCK:   -5.46 KCAL/MOL
REMARK 924 INTRA-LIGAND FREE ENERGY PREDICTED BY IDOCK:   -1.11 KCAL/MOL
REMARK 927      BINDING AFFINITY PREDICTED BY RF-SCORE:    0.00 PKD
ROOT
HETATM    1  C   UNL     1      -7.408   5.493  68.280  1.00  0.00    -0.073 C  
HETATM    2  N   UNL     1      -7.200   5.595  66.832  1.00  0.00    -0.077 NA 
HETATM    3  C   UNL     1      -8.224   4.815  66.135  1.00  0.00    -0.107 C  
ENDROOT
BRANCH   2   4
HETATM    4  C   UNL     1      -7.189   7.012  66.423  1.00  0.00    -0.075 C  
BRANCH   4   5
HETATM    5  C   UNL     1      -7.355   7.987  67.600  1.00  0.00    -0.093 C  
BRANCH   5   6
HETATM    6  C   UNL     1      -8.295   9.150  67.244  1.00  0.00    -0.121 C  
BRANCH   6   7
HETATM    7  C   UNL     1      -9.748   8.971  67.756  1.00  0.00    -0.156 C  
HETATM    8  O   UNL     1     -10.414   8.099  66.791  1.00  0.00    -0.326 OA 
HETATM    9  N   UNL     1     -11.128   4.986  73.191  1.00  0.00    -0.303 NA 
HETATM   10  C   UNL     1     -11.023   6.248  69.913  1.00  0.00    -0.435 A  
HETATM   11  C   UNL     1     -11.105   7.022  67.451  1.00  0.00    -0.195 C  
HETATM   12  C   UNL     1     -10.692   7.106  68.870  1.00  0.00    -0.199 A  
HETATM   13  C   UNL     1     -10.856   5.672  72.296  1.00  0.00    -0.242 C  
HETATM   14  C   UNL     1      -9.885   8.221  69.060  1.00  0.00    -0.176 A  
HETATM   15  C   UNL     1     -10.521   6.523  71.189  1.00  0.00    -0.257 A  
HETATM   16  C   UNL     1      -9.691   7.640  71.388  1.00  0.00    -0.183 A  
HETATM   17  C   UNL     1      -9.361   8.486  70.320  1.00  0.00    -0.171 A  
BRANCH   7  18
HETATM   18  C   UNL     1     -10.455  10.340  67.773  1.00  0.00    -0.269 A  
HETATM   19  C   UNL     1     -11.175  10.770  68.907  1.00  0.00    -0.328 A  
HETATM   20  F   UNL     1     -12.276  14.070  67.881  1.00  0.00    -0.381 F  
HETATM   21  C   UNL     1     -11.692  12.865  67.845  1.00  0.00    -0.357 A  
HETATM   22  C   UNL     1     -10.981  12.479  66.717  1.00  0.00    -0.304 A  
HETATM   23  C   UNL     1     -10.368  11.224  66.681  1.00  0.00    -0.279 A  
HETATM   24  C   UNL     1     -11.797  12.020  68.940  1.00  0.00    -0.356 A  
ENDBRANCH   7  18
ENDBRANCH   6   7
ENDBRANCH   5   6
ENDBRANCH   4   5
ENDBRANCH   2   4
TORSDOF 5
ENDMDL
MODEL       89
REMARK 921   NORMALIZED FREE ENERGY PREDICTED BY IDOCK:   -4.41 KCAL/MOL
REMARK 922        TOTAL FREE ENERGY PREDICTED BY IDOCK:   -6.58 KCAL/MOL
REMARK 923 INTER-LIGAND FREE ENERGY PREDICTED BY IDOCK:   -5.63 KCAL/MOL
REMARK 924 INTRA-LIGAND FREE ENERGY PREDICTED BY IDOCK:   -0.94 KCAL/MOL
REMARK 927      BINDING AFFINITY PREDICTED BY RF-SCORE:    0.00 PKD
ROOT
HETATM    1  C   UNL     1      -9.615  15.365  67.650  1.00  0.00    -0.210 C  
HETATM    2  N   UNL     1     -10.064  14.268  66.787  1.00  0.00    -0.259 NA 
HETATM    3  C   UNL     1     -10.215  14.757  65.415  1.00  0.00    -0.387 C  
ENDROOT
BRANCH   2   4
HETATM    4  C   UNL     1      -9.129  13.133  66.885  1.00  0.00    -0.229 C  
BRANCH   4   5
HETATM    5  C   UNL     1      -9.832  11.783  67.106  1.00  0.00    -0.207 C  
BRANCH   5   6
HETATM    6  C   UNL     1      -9.441  11.153  68.453  1.00  0.00    -0.189 C  
BRANCH   6   7
HETATM    7  C   UNL     1     -10.054   9.751  68.700  1.00  0.00    -0.169 C  
HETATM    8  O   UNL     1     -10.720   9.374  67.455  1.00  0.00    -0.280 OA 
HETATM    9  N   UNL     1      -6.086   4.138  68.957  1.00  0.00    -0.026 NA 
HETATM   10  C   UNL     1      -8.499   6.480  67.939  1.00  0.00    -0.118 A  
HETATM   11  C   UNL     1     -10.349   8.045  67.046  1.00  0.00    -0.344 C  
HETATM   12  C   UNL     1      -9.254   7.647  67.960  1.00  0.00    -0.138 A  
HETATM   13  C   UNL     1      -6.722   5.108  68.936  1.00  0.00    -0.050 C  
HETATM   14  C   UNL     1      -9.055   8.638  68.914  1.00  0.00    -0.145 A  
HETATM   15  C   UNL     1      -7.510   6.308  68.912  1.00  0.00    -0.087 A  
HETATM   16  C   UNL     1      -7.290   7.311  69.872  1.00  0.00    -0.084 A  
HETATM   17  C   UNL     1      -8.056   8.486  69.868  1.00  0.00    -0.118 A  
BRANCH   7  18
HETATM   18  C   UNL     1     -11.101   9.844  69.827  1.00  0.00    -0.294 A  
HETATM   19  C   UNL     1     -11.768  11.056  70.098  1.00  0.00    -0.442 A  
HETATM   20  F   UNL     1     -14.004  10.088  72.785  1.00  0.00    -0.237 F  
HETATM   21  C   UNL     1     -13.065  10.010  71.833  1.00  0.00    -0.460 A  
HETATM   22  C   UNL     1     -12.437   8.798  71.585  1.00  0.00    -0.392 A  
HETATM   23  C   UNL     1     -11.460   8.716  70.589  1.00  0.00    -0.256 A  
HETATM   24  C   UNL     1     -12.737  11.142  71.101  1.00  0.00    -0.510 A  
ENDBRANCH   7  18
ENDBRANCH   6   7
ENDBRANCH   5   6
ENDBRANCH   4   5
ENDBRANCH   2   4
TORSDOF 5
ENDMDL
MODEL       90
REMARK 921   NORMALIZED FREE ENERGY PREDICTED BY IDOCK:   -4.38 KCAL/MOL
REMARK 922        TOTAL FREE ENERGY PREDICTED BY IDOCK:   -6.53 KCAL/MOL
REMARK 923 INTER-LIGAND FREE ENERGY PREDICTED BY IDOCK:   -5.97 KCAL/MOL
REMARK 924 INTRA-LIGAND FREE ENERGY PREDICTED BY IDOCK:   -0.56 KCAL/MOL
REMARK 927      BINDING AFFINITY PREDICTED BY RF-SCORE:    0.00 PKD
ROOT
HETATM    1  C   UNL     1     -13.027   8.886  71.956  1.00  0.00    -0.399 C  
HETATM    2  N   UNL     1     -11.840   8.091  71.623  1.00  0.00    -0.277 NA 
HETATM    3  C   UNL     1     -11.127   7.740  72.852  1.00  0.00    -0.398 C  
ENDROOT
BRANCH   2   4
HETATM    4  C   UNL     1     -12.230   6.907  70.836  1.00  0.00    -0.353 C  
BRANCH   4   5
HETATM    5  C   UNL     1     -11.059   6.277  70.062  1.00  0.00    -0.455 C  
BRANCH   5   6
HETATM    6  C   UNL     1     -11.073   6.688  68.581  1.00  0.00    -0.288 C  
BRANCH   6   7
HETATM    7  C   UNL     1      -9.853   7.542  68.148  1.00  0.00    -0.159 C  
HETATM    8  O   UNL     1      -9.191   6.793  67.081  1.00  0.00    -0.128 OA 
HETATM    9  N   UNL     1     -10.669  13.265  64.419  1.00  0.00    -0.403 NA 
HETATM   10  C   UNL     1      -9.737  10.023  65.405  1.00  0.00    -0.368 A  
HETATM   11  C   UNL     1      -8.924   7.632  65.942  1.00  0.00    -0.103 C  
HETATM   12  C   UNL     1      -9.623   8.906  66.225  1.00  0.00    -0.328 A  
HETATM   13  C   UNL     1     -10.570  12.311  65.072  1.00  0.00    -0.287 C  
HETATM   14  C   UNL     1     -10.187   8.862  67.494  1.00  0.00    -0.309 A  
HETATM   15  C   UNL     1     -10.446  11.131  65.881  1.00  0.00    -0.310 A  
HETATM   16  C   UNL     1     -11.033  11.090  67.157  1.00  0.00    -0.344 A  
HETATM   17  C   UNL     1     -10.915   9.949  67.964  1.00  0.00    -0.269 A  
BRANCH   7  18
HETATM   18  C   UNL     1      -8.885   7.689  69.338  1.00  0.00    -0.139 A  
HETATM   19  C   UNL     1      -7.951   6.677  69.642  1.00  0.00    -0.124 A  
HETATM   20  F   UNL     1      -6.195   8.113  72.473  1.00  0.00    -0.049 F  
HETATM   21  C   UNL     1      -7.065   7.974  71.464  1.00  0.00    -0.069 A  
HETATM   22  C   UNL     1      -7.963   8.995  71.185  1.00  0.00    -0.169 A  
HETATM   23  C   UNL     1      -8.868   8.853  70.130  1.00  0.00    -0.172 A  
HETATM   24  C   UNL     1      -7.053   6.814  70.704  1.00  0.00    -0.068 A  
ENDBRANCH   7  18
ENDBRANCH   6   7
ENDBRANCH   5   6
ENDBRANCH   4   5
ENDBRANCH   2   4
TORSDOF 5
ENDMDL
MODEL       91
REMARK 921   NORMALIZED FREE ENERGY PREDICTED BY IDOCK:   -4.36 KCAL/MOL
REMARK 922        TOTAL FREE ENERGY PREDICTED BY IDOCK:   -6.50 KCAL/MOL
REMARK 923 INTER-LIGAND FREE ENERGY PREDICTED BY IDOCK:   -6.21 KCAL/MOL
REMARK 924 INTRA-LIGAND FREE ENERGY PREDICTED BY IDOCK:   -0.29 KCAL/MOL
REMARK 927      BINDING AFFINITY PREDICTED BY RF-SCORE:    0.00 PKD
ROOT
HETATM    1  C   UNL     1      -5.683  13.426  71.371  1.00  0.00    -0.057 C  
HETATM    2  N   UNL     1      -5.725  13.278  69.913  1.00  0.00    -0.112 NA 
HETATM    3  C   UNL     1      -5.137  11.991  69.535  1.00  0.00    -0.065 C  
ENDROOT
BRANCH   2   4
HETATM    4  C   UNL     1      -7.109  13.432  69.428  1.00  0.00     0.134 C  
BRANCH   4   5
HETATM    5  C   UNL     1      -7.401  14.829  68.854  1.00  0.00    -0.130 C  
BRANCH   5   6
HETATM    6  C   UNL     1      -8.533  15.531  69.621  1.00  0.00    -0.119 C  
BRANCH   6   7
HETATM    7  C   UNL     1      -9.903  15.502  68.897  1.00  0.00    -0.219 C  
HETATM    8  O   UNL     1     -10.051  16.806  68.254  1.00  0.00    -0.251 OA 
HETATM    9  N   UNL     1     -10.779  11.897  63.104  1.00  0.00    -0.318 NA 
HETATM   10  C   UNL     1     -10.534  14.570  65.371  1.00  0.00    -0.399 A  
HETATM   11  C   UNL     1     -10.438  16.667  66.874  1.00  0.00    -0.271 C  
HETATM   12  C   UNL     1     -10.336  15.219  66.585  1.00  0.00    -0.281 A  
HETATM   13  C   UNL     1     -10.604  12.470  64.097  1.00  0.00    -0.398 C  
HETATM   14  C   UNL     1     -10.005  14.529  67.745  1.00  0.00    -0.225 A  
HETATM   15  C   UNL     1     -10.390  13.179  65.327  1.00  0.00    -0.319 A  
HETATM   16  C   UNL     1     -10.039  12.475  66.491  1.00  0.00    -0.250 A  
HETATM   17  C   UNL     1      -9.834  13.151  67.703  1.00  0.00    -0.219 A  
BRANCH   7  18
HETATM   18  C   UNL     1     -11.026  15.320  69.936  1.00  0.00    -0.303 A  
HETATM   19  C   UNL     1     -11.912  14.226  69.863  1.00  0.00    -0.397 A  
HETATM   20  F   UNL     1     -13.989  14.754  72.789  1.00  0.00    -0.501 F  
HETATM   21  C   UNL     1     -13.035  14.939  71.867  1.00  0.00    -0.333 A  
HETATM   22  C   UNL     1     -12.174  16.021  71.977  1.00  0.00    -0.582 A  
HETATM   23  C   UNL     1     -11.176  16.211  71.017  1.00  0.00    -0.297 A  
HETATM   24  C   UNL     1     -12.916  14.041  70.817  1.00  0.00    -0.298 A  
ENDBRANCH   7  18
ENDBRANCH   6   7
ENDBRANCH   5   6
ENDBRANCH   4   5
ENDBRANCH   2   4
TORSDOF 5
ENDMDL
MODEL       92
REMARK 921   NORMALIZED FREE ENERGY PREDICTED BY IDOCK:   -4.34 KCAL/MOL
REMARK 922        TOTAL FREE ENERGY PREDICTED BY IDOCK:   -6.48 KCAL/MOL
REMARK 923 INTER-LIGAND FREE ENERGY PREDICTED BY IDOCK:   -5.47 KCAL/MOL
REMARK 924 INTRA-LIGAND FREE ENERGY PREDICTED BY IDOCK:   -1.01 KCAL/MOL
REMARK 927      BINDING AFFINITY PREDICTED BY RF-SCORE:    0.00 PKD
ROOT
HETATM    1  C   UNL     1     -12.249  13.249  65.494  1.00  0.00    -0.457 C  
HETATM    2  N   UNL     1     -11.430  13.423  66.698  1.00  0.00    -0.330 NA 
HETATM    3  C   UNL     1     -11.534  14.808  67.163  1.00  0.00    -0.364 C  
ENDROOT
BRANCH   2   4
HETATM    4  C   UNL     1     -11.833  12.448  67.728  1.00  0.00    -0.298 C  
BRANCH   4   5
HETATM    5  C   UNL     1     -10.666  11.588  68.241  1.00  0.00    -0.247 C  
BRANCH   5   6
HETATM    6  C   UNL     1     -10.853  10.106  67.880  1.00  0.00    -0.336 C  
BRANCH   6   7
HETATM    7  C   UNL     1      -9.745   9.173  68.433  1.00  0.00    -0.152 C  
HETATM    8  O   UNL     1      -8.885  10.012  69.265  1.00  0.00    -0.153 OA 
HETATM    9  N   UNL     1     -11.099   4.621  73.411  1.00  0.00    -0.314 NA 
HETATM   10  C   UNL     1      -9.771   7.365  71.662  1.00  0.00    -0.169 A  
HETATM   11  C   UNL     1      -8.651   9.409  70.550  1.00  0.00    -0.223 C  
HETATM   12  C   UNL     1      -9.559   8.241  70.604  1.00  0.00    -0.190 A  
HETATM   13  C   UNL     1     -10.912   5.380  72.553  1.00  0.00    -0.256 C  
HETATM   14  C   UNL     1     -10.220   8.103  69.389  1.00  0.00    -0.211 A  
HETATM   15  C   UNL     1     -10.681   6.317  71.490  1.00  0.00    -0.292 A  
HETATM   16  C   UNL     1     -11.364   6.178  70.270  1.00  0.00    -0.414 A  
HETATM   17  C   UNL     1     -11.144   7.079  69.218  1.00  0.00    -0.166 A  
BRANCH   7  18
HETATM   18  C   UNL     1      -8.920   8.608  67.261  1.00  0.00    -0.145 A  
HETATM   19  C   UNL     1      -7.929   7.629  67.477  1.00  0.00    -0.120 A  
HETATM   20  F   UNL     1      -6.762   6.996  64.101  1.00  0.00    -0.042 F  
HETATM   21  C   UNL     1      -7.456   7.519  65.121  1.00  0.00    -0.085 A  
HETATM   22  C   UNL     1      -8.432   8.472  64.870  1.00  0.00    -0.166 A  
HETATM   23  C   UNL     1      -9.159   9.015  65.933  1.00  0.00    -0.264 A  
HETATM   24  C   UNL     1      -7.195   7.094  66.415  1.00  0.00    -0.078 A  
ENDBRANCH   7  18
ENDBRANCH   6   7
ENDBRANCH   5   6
ENDBRANCH   4   5
ENDBRANCH   2   4
TORSDOF 5
ENDMDL
MODEL       93
REMARK 921   NORMALIZED FREE ENERGY PREDICTED BY IDOCK:   -4.32 KCAL/MOL
REMARK 922        TOTAL FREE ENERGY PREDICTED BY IDOCK:   -6.46 KCAL/MOL
REMARK 923 INTER-LIGAND FREE ENERGY PREDICTED BY IDOCK:   -5.80 KCAL/MOL
REMARK 924 INTRA-LIGAND FREE ENERGY PREDICTED BY IDOCK:   -0.66 KCAL/MOL
REMARK 927      BINDING AFFINITY PREDICTED BY RF-SCORE:    0.00 PKD
ROOT
HETATM    1  C   UNL     1     -11.162   5.909  72.055  1.00  0.00    -0.273 C  
HETATM    2  N   UNL     1     -10.243   6.340  70.997  1.00  0.00    -0.188 NA 
HETATM    3  C   UNL     1      -9.164   5.360  70.858  1.00  0.00    -0.150 C  
ENDROOT
BRANCH   2   4
HETATM    4  C   UNL     1     -10.983   6.549  69.739  1.00  0.00    -0.338 C  
BRANCH   4   5
HETATM    5  C   UNL     1     -10.764   7.944  69.129  1.00  0.00    -0.130 C  
BRANCH   5   6
HETATM    6  C   UNL     1     -10.552   7.870  67.608  1.00  0.00    -0.276 C  
BRANCH   6   7
HETATM    7  C   UNL     1      -9.674   9.011  67.033  1.00  0.00    -0.189 C  
HETATM    8  O   UNL     1      -9.144   8.515  65.764  1.00  0.00    -0.193 OA 
HETATM    9  N   UNL     1     -12.518  14.653  64.313  1.00  0.00    -0.738 NA 
HETATM   10  C   UNL     1     -10.729  11.649  64.662  1.00  0.00    -0.371 A  
HETATM   11  C   UNL     1      -9.335   9.475  64.708  1.00  0.00    -0.169 C  
HETATM   12  C   UNL     1     -10.195  10.530  65.292  1.00  0.00    -0.352 A  
HETATM   13  C   UNL     1     -12.071  13.701  64.805  1.00  0.00    -0.402 C  
HETATM   14  C   UNL     1     -10.420  10.263  66.637  1.00  0.00    -0.260 A  
HETATM   15  C   UNL     1     -11.518  12.525  65.414  1.00  0.00    -0.383 A  
HETATM   16  C   UNL     1     -11.763  12.256  66.771  1.00  0.00    -0.411 A  
HETATM   17  C   UNL     1     -11.223  11.116  67.385  1.00  0.00    -0.363 A  
BRANCH   7  18
HETATM   18  C   UNL     1      -8.503   9.288  67.996  1.00  0.00    -0.120 A  
HETATM   19  C   UNL     1      -8.362  10.542  68.624  1.00  0.00    -0.132 A  
HETATM   20  F   UNL     1      -5.418  10.019  70.677  1.00  0.00    -0.038 F  
HETATM   21  C   UNL     1      -6.411   9.784  69.809  1.00  0.00    -0.053 A  
HETATM   22  C   UNL     1      -6.526   8.534  69.219  1.00  0.00    -0.042 A  
HETATM   23  C   UNL     1      -7.565   8.287  68.317  1.00  0.00    -0.101 A  
HETATM   24  C   UNL     1      -7.318  10.792  69.518  1.00  0.00    -0.125 A  
ENDBRANCH   7  18
ENDBRANCH   6   7
ENDBRANCH   5   6
ENDBRANCH   4   5
ENDBRANCH   2   4
TORSDOF 5
ENDMDL
MODEL       94
REMARK 921   NORMALIZED FREE ENERGY PREDICTED BY IDOCK:   -4.31 KCAL/MOL
REMARK 922        TOTAL FREE ENERGY PREDICTED BY IDOCK:   -6.45 KCAL/MOL
REMARK 923 INTER-LIGAND FREE ENERGY PREDICTED BY IDOCK:   -5.34 KCAL/MOL
REMARK 924 INTRA-LIGAND FREE ENERGY PREDICTED BY IDOCK:   -1.10 KCAL/MOL
REMARK 927      BINDING AFFINITY PREDICTED BY RF-SCORE:    0.00 PKD
ROOT
HETATM    1  C   UNL     1     -11.635   8.186  72.232  1.00  0.00    -0.374 C  
HETATM    2  N   UNL     1     -10.198   8.414  72.051  1.00  0.00    -0.265 NA 
HETATM    3  C   UNL     1      -9.460   7.757  73.132  1.00  0.00    -0.264 C  
ENDROOT
BRANCH   2   4
HETATM    4  C   UNL     1      -9.777   7.953  70.716  1.00  0.00    -0.172 C  
BRANCH   4   5
HETATM    5  C   UNL     1      -9.539   9.102  69.722  1.00  0.00    -0.191 C  
BRANCH   5   6
HETATM    6  C   UNL     1     -10.308   8.884  68.409  1.00  0.00    -0.237 C  
BRANCH   6   7
HETATM    7  C   UNL     1      -9.423   8.412  67.226  1.00  0.00    -0.154 C  
HETATM    8  O   UNL     1      -8.039   8.532  67.681  1.00  0.00    -0.106 OA 
HETATM    9  N   UNL     1      -8.928   1.745  65.604  1.00  0.00    -0.124 NA 
HETATM   10  C   UNL     1      -8.114   4.998  66.654  1.00  0.00    -0.108 A  
HETATM   11  C   UNL     1      -7.298   7.326  67.420  1.00  0.00    -0.092 C  
HETATM   12  C   UNL     1      -8.304   6.340  66.964  1.00  0.00    -0.109 A  
HETATM   13  C   UNL     1      -9.056   2.863  65.887  1.00  0.00    -0.132 C  
HETATM   14  C   UNL     1      -9.550   6.950  66.868  1.00  0.00    -0.205 A  
HETATM   15  C   UNL     1      -9.216   4.247  66.235  1.00  0.00    -0.146 A  
HETATM   16  C   UNL     1     -10.482   4.851  66.149  1.00  0.00    -0.346 A  
HETATM   17  C   UNL     1     -10.655   6.203  66.477  1.00  0.00    -0.214 A  
BRANCH   7  18
HETATM   18  C   UNL     1      -9.642   9.347  66.021  1.00  0.00    -0.328 A  
HETATM   19  C   UNL     1     -10.451  10.497  66.132  1.00  0.00    -0.237 A  
HETATM   20  F   UNL     1     -10.155  11.938  62.817  1.00  0.00    -0.362 F  
HETATM   21  C   UNL     1      -9.992  11.100  63.850  1.00  0.00    -0.329 A  
HETATM   22  C   UNL     1      -9.179   9.985  63.708  1.00  0.00    -0.314 A  
HETATM   23  C   UNL     1      -9.006   9.113  64.786  1.00  0.00    -0.177 A  
HETATM   24  C   UNL     1     -10.633  11.363  65.051  1.00  0.00    -0.359 A  
ENDBRANCH   7  18
ENDBRANCH   6   7
ENDBRANCH   5   6
ENDBRANCH   4   5
ENDBRANCH   2   4
TORSDOF 5
ENDMDL
MODEL       95
REMARK 921   NORMALIZED FREE ENERGY PREDICTED BY IDOCK:   -4.30 KCAL/MOL
REMARK 922        TOTAL FREE ENERGY PREDICTED BY IDOCK:   -6.43 KCAL/MOL
REMARK 923 INTER-LIGAND FREE ENERGY PREDICTED BY IDOCK:   -5.86 KCAL/MOL
REMARK 924 INTRA-LIGAND FREE ENERGY PREDICTED BY IDOCK:   -0.57 KCAL/MOL
REMARK 927      BINDING AFFINITY PREDICTED BY RF-SCORE:    0.00 PKD
ROOT
HETATM    1  C   UNL     1     -12.114  12.768  63.363  1.00  0.00    -0.534 C  
HETATM    2  N   UNL     1     -11.774  13.707  64.436  1.00  0.00    -0.396 NA 
HETATM    3  C   UNL     1     -12.282  15.039  64.099  1.00  0.00    -0.211 C  
ENDROOT
BRANCH   2   4
HETATM    4  C   UNL     1     -12.292  13.212  65.724  1.00  0.00    -0.435 C  
BRANCH   4   5
HETATM    5  C   UNL     1     -11.475  12.044  66.301  1.00  0.00    -0.408 C  
BRANCH   5   6
HETATM    6  C   UNL     1     -11.564  11.992  67.835  1.00  0.00    -0.405 C  
BRANCH   6   7
HETATM    7  C   UNL     1     -10.442  11.161  68.508  1.00  0.00    -0.191 C  
HETATM    8  O   UNL     1     -10.810  11.050  69.918  1.00  0.00    -0.206 OA 
HETATM    9  N   UNL     1      -9.960   4.374  67.498  1.00  0.00    -0.120 NA 
HETATM   10  C   UNL     1     -10.404   7.499  69.041  1.00  0.00    -0.217 A  
HETATM   11  C   UNL     1     -10.726   9.687  70.374  1.00  0.00    -0.298 C  
HETATM   12  C   UNL     1     -10.489   8.882  69.155  1.00  0.00    -0.236 A  
HETATM   13  C   UNL     1     -10.054   5.523  67.624  1.00  0.00    -0.178 C  
HETATM   14  C   UNL     1     -10.344   9.723  68.057  1.00  0.00    -0.250 A  
HETATM   15  C   UNL     1     -10.168   6.946  67.779  1.00  0.00    -0.224 A  
HETATM   16  C   UNL     1     -10.035   7.787  66.661  1.00  0.00    -0.299 A  
HETATM   17  C   UNL     1     -10.135   9.179  66.795  1.00  0.00    -0.341 A  
BRANCH   7  18
HETATM   18  C   UNL     1      -9.106  11.920  68.392  1.00  0.00    -0.167 A  
HETATM   19  C   UNL     1      -7.876  11.230  68.417  1.00  0.00    -0.136 A  
HETATM   20  F   UNL     1      -5.499  13.933  67.971  1.00  0.00    -0.093 F  
HETATM   21  C   UNL     1      -6.663  13.283  68.110  1.00  0.00    -0.114 A  
HETATM   22  C   UNL     1      -7.854  13.993  68.070  1.00  0.00    -0.152 A  
HETATM   23  C   UNL     1      -9.068  13.316  68.211  1.00  0.00    -0.184 A  
HETATM   24  C   UNL     1      -6.662  11.908  68.286  1.00  0.00    -0.063 A  
ENDBRANCH   7  18
ENDBRANCH   6   7
ENDBRANCH   5   6
ENDBRANCH   4   5
ENDBRANCH   2   4
TORSDOF 5
ENDMDL
MODEL       96
REMARK 921   NORMALIZED FREE ENERGY PREDICTED BY IDOCK:   -4.30 KCAL/MOL
REMARK 922        TOTAL FREE ENERGY PREDICTED BY IDOCK:   -6.43 KCAL/MOL
REMARK 923 INTER-LIGAND FREE ENERGY PREDICTED BY IDOCK:   -5.81 KCAL/MOL
REMARK 924 INTRA-LIGAND FREE ENERGY PREDICTED BY IDOCK:   -0.61 KCAL/MOL
REMARK 927      BINDING AFFINITY PREDICTED BY RF-SCORE:    0.00 PKD
ROOT
HETATM    1  C   UNL     1      -5.957  13.991  70.009  1.00  0.00    -0.142 C  
HETATM    2  N   UNL     1      -5.712  12.688  69.383  1.00  0.00    -0.080 NA 
HETATM    3  C   UNL     1      -6.077  11.621  70.317  1.00  0.00    -0.128 C  
ENDROOT
BRANCH   2   4
HETATM    4  C   UNL     1      -6.441  12.596  68.105  1.00  0.00    -0.080 C  
BRANCH   4   5
HETATM    5  C   UNL     1      -7.093  11.222  67.873  1.00  0.00    -0.078 C  
BRANCH   5   6
HETATM    6  C   UNL     1      -7.673  11.102  66.454  1.00  0.00    -0.124 C  
BRANCH   6   7
HETATM    7  C   UNL     1      -9.078  10.450  66.396  1.00  0.00    -0.157 C  
HETATM    8  O   UNL     1      -8.903   9.167  65.719  1.00  0.00    -0.152 OA 
HETATM    9  N   UNL     1     -11.971   7.745  72.021  1.00  0.00    -0.296 NA 
HETATM   10  C   UNL     1     -10.528   8.073  68.834  1.00  0.00    -0.207 A  
HETATM   11  C   UNL     1      -9.529   8.099  66.452  1.00  0.00    -0.218 C  
HETATM   12  C   UNL     1      -9.942   8.701  67.740  1.00  0.00    -0.240 A  
HETATM   13  C   UNL     1     -11.466   8.236  71.098  1.00  0.00    -0.273 C  
HETATM   14  C   UNL     1      -9.667  10.064  67.733  1.00  0.00    -0.174 A  
HETATM   15  C   UNL     1     -10.843   8.844  69.957  1.00  0.00    -0.239 A  
HETATM   16  C   UNL     1     -10.554  10.219  69.965  1.00  0.00    -0.321 A  
HETATM   17  C   UNL     1      -9.954  10.832  68.855  1.00  0.00    -0.213 A  
BRANCH   7  18
HETATM   18  C   UNL     1     -10.019  11.340  65.560  1.00  0.00    -0.293 A  
HETATM   19  C   UNL     1     -10.334  12.651  65.973  1.00  0.00    -0.287 A  
HETATM   20  F   UNL     1     -12.463  13.789  63.267  1.00  0.00    -0.532 F  
HETATM   21  C   UNL     1     -11.678  12.998  64.009  1.00  0.00    -0.436 A  
HETATM   22  C   UNL     1     -11.379  11.718  63.566  1.00  0.00    -0.496 A  
HETATM   23  C   UNL     1     -10.556  10.893  64.337  1.00  0.00    -0.343 A  
HETATM   24  C   UNL     1     -11.166  13.472  65.207  1.00  0.00    -0.304 A  
ENDBRANCH   7  18
ENDBRANCH   6   7
ENDBRANCH   5   6
ENDBRANCH   4   5
ENDBRANCH   2   4
TORSDOF 5
ENDMDL
MODEL       97
REMARK 921   NORMALIZED FREE ENERGY PREDICTED BY IDOCK:   -4.23 KCAL/MOL
REMARK 922        TOTAL FREE ENERGY PREDICTED BY IDOCK:   -6.34 KCAL/MOL
REMARK 923 INTER-LIGAND FREE ENERGY PREDICTED BY IDOCK:   -5.49 KCAL/MOL
REMARK 924 INTRA-LIGAND FREE ENERGY PREDICTED BY IDOCK:   -0.85 KCAL/MOL
REMARK 927      BINDING AFFINITY PREDICTED BY RF-SCORE:    0.00 PKD
ROOT
HETATM    1  C   UNL     1      -5.409   7.772  68.285  1.00  0.00    -0.031 C  
HETATM    2  N   UNL     1      -5.467   7.466  66.852  1.00  0.00    -0.023 NA 
HETATM    3  C   UNL     1      -5.520   6.014  66.665  1.00  0.00    -0.009 C  
ENDROOT
BRANCH   2   4
HETATM    4  C   UNL     1      -6.611   8.159  66.233  1.00  0.00    -0.047 C  
BRANCH   4   5
HETATM    5  C   UNL     1      -7.057   9.410  67.009  1.00  0.00    -0.086 C  
BRANCH   5   6
HETATM    6  C   UNL     1      -8.107  10.217  66.228  1.00  0.00    -0.129 C  
BRANCH   6   7
HETATM    7  C   UNL     1      -9.565   9.992  66.704  1.00  0.00    -0.186 C  
HETATM    8  O   UNL     1     -10.016   8.760  66.060  1.00  0.00    -0.256 OA 
HETATM    9  N   UNL     1     -10.918   7.834  73.094  1.00  0.00    -0.381 NA 
HETATM   10  C   UNL     1     -10.670   7.958  69.591  1.00  0.00    -0.218 A  
HETATM   11  C   UNL     1     -10.620   7.864  67.011  1.00  0.00    -0.311 C  
HETATM   12  C   UNL     1     -10.357   8.469  68.337  1.00  0.00    -0.241 A  
HETATM   13  C   UNL     1     -10.655   8.224  72.034  1.00  0.00    -0.296 C  
HETATM   14  C   UNL     1      -9.725   9.696  68.177  1.00  0.00    -0.164 A  
HETATM   15  C   UNL     1     -10.332   8.709  70.721  1.00  0.00    -0.249 A  
HETATM   16  C   UNL     1      -9.678   9.944  70.571  1.00  0.00    -0.077 A  
HETATM   17  C   UNL     1      -9.362  10.436  69.296  1.00  0.00    -0.202 A  
BRANCH   7  18
HETATM   18  C   UNL     1     -10.444  11.164  66.227  1.00  0.00    -0.312 A  
HETATM   19  C   UNL     1     -11.374  11.773  67.095  1.00  0.00    -0.387 A  
HETATM   20  F   UNL     1     -12.744  14.394  64.996  1.00  0.00    -0.442 F  
HETATM   21  C   UNL     1     -12.005  13.349  65.392  1.00  0.00    -0.387 A  
HETATM   22  C   UNL     1     -11.091  12.783  64.515  1.00  0.00    -0.365 A  
HETATM   23  C   UNL     1     -10.317  11.696  64.929  1.00  0.00    -0.331 A  
HETATM   24  C   UNL     1     -12.156  12.853  66.678  1.00  0.00    -0.360 A  
ENDBRANCH   7  18
ENDBRANCH   6   7
ENDBRANCH   5   6
ENDBRANCH   4   5
ENDBRANCH   2   4
TORSDOF 5
ENDMDL
MODEL       98
REMARK 921   NORMALIZED FREE ENERGY PREDICTED BY IDOCK:   -4.23 KCAL/MOL
REMARK 922        TOTAL FREE ENERGY PREDICTED BY IDOCK:   -6.34 KCAL/MOL
REMARK 923 INTER-LIGAND FREE ENERGY PREDICTED BY IDOCK:   -5.52 KCAL/MOL
REMARK 924 INTRA-LIGAND FREE ENERGY PREDICTED BY IDOCK:   -0.82 KCAL/MOL
REMARK 927      BINDING AFFINITY PREDICTED BY RF-SCORE:    0.00 PKD
ROOT
HETATM    1  C   UNL     1     -10.888   4.521  73.236  1.00  0.00    -0.269 C  
HETATM    2  N   UNL     1     -10.031   4.434  72.049  1.00  0.00    -0.179 NA 
HETATM    3  C   UNL     1     -10.087   3.076  71.504  1.00  0.00     0.066 C  
ENDROOT
BRANCH   2   4
HETATM    4  C   UNL     1     -10.426   5.457  71.064  1.00  0.00    -0.232 C  
BRANCH   4   5
HETATM    5  C   UNL     1     -10.405   6.887  71.630  1.00  0.00    -0.216 C  
BRANCH   5   6
HETATM    6  C   UNL     1     -11.096   7.882  70.683  1.00  0.00    -0.263 C  
BRANCH   6   7
HETATM    7  C   UNL     1     -10.238   8.296  69.461  1.00  0.00    -0.210 C  
HETATM    8  O   UNL     1      -8.877   8.477  69.963  1.00  0.00    -0.135 OA 
HETATM    9  N   UNL     1      -8.476   3.713  64.643  1.00  0.00    -0.096 NA 
HETATM   10  C   UNL     1      -8.286   6.057  67.254  1.00  0.00    -0.106 A  
HETATM   11  C   UNL     1      -7.921   7.780  69.143  1.00  0.00    -0.119 C  
HETATM   12  C   UNL     1      -8.730   6.967  68.206  1.00  0.00    -0.123 A  
HETATM   13  C   UNL     1      -8.815   4.466  65.458  1.00  0.00    -0.127 C  
HETATM   14  C   UNL     1     -10.080   7.239  68.393  1.00  0.00    -0.188 A  
HETATM   15  C   UNL     1      -9.235   5.398  66.466  1.00  0.00    -0.139 A  
HETATM   16  C   UNL     1     -10.603   5.655  66.658  1.00  0.00    -0.361 A  
HETATM   17  C   UNL     1     -11.031   6.569  67.632  1.00  0.00    -0.426 A  
BRANCH   7  18
HETATM   18  C   UNL     1     -10.754   9.638  68.906  1.00  0.00    -0.230 A  
HETATM   19  C   UNL     1     -11.421  10.559  69.740  1.00  0.00    -0.365 A  
HETATM   20  F   UNL     1     -12.056  13.304  67.457  1.00  0.00    -0.379 F  
HETATM   21  C   UNL     1     -11.639  12.120  67.924  1.00  0.00    -0.347 A  
HETATM   22  C   UNL     1     -10.975  11.244  67.078  1.00  0.00    -0.352 A  
HETATM   23  C   UNL     1     -10.537  10.010  67.565  1.00  0.00    -0.336 A  
HETATM   24  C   UNL     1     -11.870  11.788  69.251  1.00  0.00    -0.389 A  
ENDBRANCH   7  18
ENDBRANCH   6   7
ENDBRANCH   5   6
ENDBRANCH   4   5
ENDBRANCH   2   4
TORSDOF 5
ENDMDL
MODEL       99
REMARK 921   NORMALIZED FREE ENERGY PREDICTED BY IDOCK:   -4.23 KCAL/MOL
REMARK 922        TOTAL FREE ENERGY PREDICTED BY IDOCK:   -6.34 KCAL/MOL
REMARK 923 INTER-LIGAND FREE ENERGY PREDICTED BY IDOCK:   -5.30 KCAL/MOL
REMARK 924 INTRA-LIGAND FREE ENERGY PREDICTED BY IDOCK:   -1.04 KCAL/MOL
REMARK 927      BINDING AFFINITY PREDICTED BY RF-SCORE:    0.00 PKD
ROOT
HETATM    1  C   UNL     1      -7.143  16.698  69.200  1.00  0.00    -0.226 C  
HETATM    2  N   UNL     1      -8.277  16.729  68.271  1.00  0.00    -0.196 NA 
HETATM    3  C   UNL     1      -7.820  16.357  66.930  1.00  0.00    -0.238 C  
ENDROOT
BRANCH   2   4
HETATM    4  C   UNL     1      -9.358  15.857  68.763  1.00  0.00    -0.220 C  
BRANCH   4   5
HETATM    5  C   UNL     1      -9.015  14.360  68.689  1.00  0.00    -0.172 C  
BRANCH   5   6
HETATM    6  C   UNL     1     -10.234  13.519  68.277  1.00  0.00    -0.250 C  
BRANCH   6   7
HETATM    7  C   UNL     1      -9.908  12.368  67.291  1.00  0.00    -0.207 C  
HETATM    8  O   UNL     1      -8.477  12.469  67.009  1.00  0.00    -0.181 OA 
HETATM    9  N   UNL     1      -9.619   5.837  69.431  1.00  0.00    -0.136 NA 
HETATM   10  C   UNL     1      -8.699   8.978  68.154  1.00  0.00    -0.130 A  
HETATM   11  C   UNL     1      -7.825  11.194  67.157  1.00  0.00    -0.139 C  
HETATM   12  C   UNL     1      -8.846  10.300  67.748  1.00  0.00    -0.125 A  
HETATM   13  C   UNL     1      -9.704   6.945  69.099  1.00  0.00    -0.155 C  
HETATM   14  C   UNL     1     -10.057  10.974  67.853  1.00  0.00    -0.199 A  
HETATM   15  C   UNL     1      -9.810   8.316  68.686  1.00  0.00    -0.186 A  
HETATM   16  C   UNL     1     -11.035   8.994  68.811  1.00  0.00     0.030 A  
HETATM   17  C   UNL     1     -11.159  10.330  68.405  1.00  0.00    -0.302 A  
BRANCH   7  18
HETATM   18  C   UNL     1     -10.697  12.576  65.984  1.00  0.00    -0.292 A  
HETATM   19  C   UNL     1     -10.195  12.109  64.752  1.00  0.00    -0.310 A  
HETATM   20  F   UNL     1     -12.858  13.031  62.468  1.00  0.00     0.184 F  
HETATM   21  C   UNL     1     -12.159  12.887  63.602  1.00  0.00    -0.535 A  
HETATM   22  C   UNL     1     -12.688  13.349  64.798  1.00  0.00    -0.310 A  
HETATM   23  C   UNL     1     -11.961  13.196  65.982  1.00  0.00    -0.488 A  
HETATM   24  C   UNL     1     -10.917  12.271  63.567  1.00  0.00    -0.521 A  
ENDBRANCH   7  18
ENDBRANCH   6   7
ENDBRANCH   5   6
ENDBRANCH   4   5
ENDBRANCH   2   4
TORSDOF 5
ENDMDL
MODEL      100
REMARK 921   NORMALIZED FREE ENERGY PREDICTED BY IDOCK:   -4.22 KCAL/MOL
REMARK 922        TOTAL FREE ENERGY PREDICTED BY IDOCK:   -6.33 KCAL/MOL
REMARK 923 INTER-LIGAND FREE ENERGY PREDICTED BY IDOCK:   -5.22 KCAL/MOL
REMARK 924 INTRA-LIGAND FREE ENERGY PREDICTED BY IDOCK:   -1.11 KCAL/MOL
REMARK 927      BINDING AFFINITY PREDICTED BY RF-SCORE:    0.00 PKD
ROOT
HETATM    1  C   UNL     1     -12.223  14.518  71.382  1.00  0.00    -0.358 C  
HETATM    2  N   UNL     1     -12.299  14.656  69.925  1.00  0.00    -0.316 NA 
HETATM    3  C   UNL     1     -11.396  15.723  69.488  1.00  0.00    -0.328 C  
ENDROOT
BRANCH   2   4
HETATM    4  C   UNL     1     -12.004  13.364  69.279  1.00  0.00    -0.317 C  
BRANCH   4   5
HETATM    5  C   UNL     1     -10.724  13.388  68.427  1.00  0.00    -0.271 C  
BRANCH   5   6
HETATM    6  C   UNL     1     -10.754  12.312  67.328  1.00  0.00    -0.263 C  
BRANCH   6   7
HETATM    7  C   UNL     1      -9.676  11.210  67.489  1.00  0.00    -0.176 C  
HETATM    8  O   UNL     1      -8.469  11.888  67.958  1.00  0.00    -0.146 OA 
HETATM    9  N   UNL     1      -9.910   6.755  72.726  1.00  0.00    -0.164 NA 
HETATM   10  C   UNL     1      -8.866   9.326  70.570  1.00  0.00    -0.285 A  
HETATM   11  C   UNL     1      -7.903  11.217  69.098  1.00  0.00    -0.063 C  
HETATM   12  C   UNL     1      -8.901  10.194  69.484  1.00  0.00    -0.198 A  
HETATM   13  C   UNL     1      -9.917   7.504  71.840  1.00  0.00    -0.171 C  
HETATM   14  C   UNL     1      -9.950  10.192  68.572  1.00  0.00    -0.177 A  
HETATM   15  C   UNL     1      -9.925   8.429  70.742  1.00  0.00    -0.222 A  
HETATM   16  C   UNL     1     -10.997   8.430  69.833  1.00  0.00    -0.166 A  
HETATM   17  C   UNL     1     -11.018   9.321  68.750  1.00  0.00    -0.047 A  
BRANCH   7  18
HETATM   18  C   UNL     1      -9.395  10.567  66.117  1.00  0.00    -0.210 A  
HETATM   19  C   UNL     1      -8.650   9.374  66.015  1.00  0.00    -0.154 A  
HETATM   20  F   UNL     1      -8.720   8.760  62.441  1.00  0.00    -0.202 F  
HETATM   21  C   UNL     1      -8.935   9.345  63.627  1.00  0.00    -0.115 A  
HETATM   22  C   UNL     1      -9.683  10.512  63.692  1.00  0.00    -0.375 A  
HETATM   23  C   UNL     1      -9.911  11.120  64.929  1.00  0.00    -0.316 A  
HETATM   24  C   UNL     1      -8.413   8.772  64.776  1.00  0.00    -0.179 A  
ENDBRANCH   7  18
ENDBRANCH   6   7
ENDBRANCH   5   6
ENDBRANCH   4   5
ENDBRANCH   2   4
TORSDOF 5
ENDMDL
MODEL      101
REMARK 921   NORMALIZED FREE ENERGY PREDICTED BY IDOCK:   -4.20 KCAL/MOL
REMARK 922        TOTAL FREE ENERGY PREDICTED BY IDOCK:   -6.30 KCAL/MOL
REMARK 923 INTER-LIGAND FREE ENERGY PREDICTED BY IDOCK:   -5.01 KCAL/MOL
REMARK 924 INTRA-LIGAND FREE ENERGY PREDICTED BY IDOCK:   -1.28 KCAL/MOL
REMARK 927      BINDING AFFINITY PREDICTED BY RF-SCORE:    0.00 PKD
ROOT
HETATM    1  C   UNL     1      -7.337   6.624  71.073  1.00  0.00    -0.079 C  
HETATM    2  N   UNL     1      -7.651   7.774  71.928  1.00  0.00    -0.081 NA 
HETATM    3  C   UNL     1      -6.686   8.846  71.678  1.00  0.00    -0.061 C  
ENDROOT
BRANCH   2   4
HETATM    4  C   UNL     1      -9.044   8.203  71.706  1.00  0.00    -0.174 C  
BRANCH   4   5
HETATM    5  C   UNL     1      -9.639   7.683  70.387  1.00  0.00    -0.168 C  
BRANCH   5   6
HETATM    6  C   UNL     1     -10.070   8.836  69.466  1.00  0.00    -0.202 C  
BRANCH   6   7
HETATM    7  C   UNL     1      -9.531   8.726  68.017  1.00  0.00    -0.143 C  
HETATM    8  O   UNL     1      -8.076   8.820  68.116  1.00  0.00    -0.105 OA 
HETATM    9  N   UNL     1      -9.495   2.703  64.692  1.00  0.00    -0.151 NA 
HETATM   10  C   UNL     1      -8.426   5.648  66.284  1.00  0.00    -0.124 A  
HETATM   11  C   UNL     1      -7.432   7.766  67.377  1.00  0.00    -0.093 C  
HETATM   12  C   UNL     1      -8.525   6.858  66.962  1.00  0.00    -0.121 A  
HETATM   13  C   UNL     1      -9.543   3.708  65.271  1.00  0.00    -0.160 C  
HETATM   14  C   UNL     1      -9.750   7.390  67.346  1.00  0.00    -0.196 A  
HETATM   15  C   UNL     1      -9.602   4.951  65.987  1.00  0.00    -0.185 A  
HETATM   16  C   UNL     1     -10.844   5.474  66.384  1.00  0.00    -0.195 A  
HETATM   17  C   UNL     1     -10.921   6.691  67.076  1.00  0.00    -0.463 A  
BRANCH   7  18
HETATM   18  C   UNL     1     -10.058   9.910  67.185  1.00  0.00    -0.270 A  
HETATM   19  C   UNL     1      -9.806   9.993  65.800  1.00  0.00    -0.345 A  
HETATM   20  F   UNL     1     -11.564  13.037  64.905  1.00  0.00    -0.321 F  
HETATM   21  C   UNL     1     -11.075  12.030  65.641  1.00  0.00    -0.313 A  
HETATM   22  C   UNL     1     -11.354  11.974  66.999  1.00  0.00    -0.396 A  
HETATM   23  C   UNL     1     -10.847  10.921  67.767  1.00  0.00    -0.309 A  
HETATM   24  C   UNL     1     -10.303  11.051  65.034  1.00  0.00    -0.360 A  
ENDBRANCH   7  18
ENDBRANCH   6   7
ENDBRANCH   5   6
ENDBRANCH   4   5
ENDBRANCH   2   4
TORSDOF 5
ENDMDL
MODEL      102
REMARK 921   NORMALIZED FREE ENERGY PREDICTED BY IDOCK:   -4.18 KCAL/MOL
REMARK 922        TOTAL FREE ENERGY PREDICTED BY IDOCK:   -6.27 KCAL/MOL
REMARK 923 INTER-LIGAND FREE ENERGY PREDICTED BY IDOCK:   -6.50 KCAL/MOL
REMARK 924 INTRA-LIGAND FREE ENERGY PREDICTED BY IDOCK:    0.22 KCAL/MOL
REMARK 927      BINDING AFFINITY PREDICTED BY RF-SCORE:    0.00 PKD
ROOT
HETATM    1  C   UNL     1     -13.637  13.575  72.496  1.00  0.00    -0.569 C  
HETATM    2  N   UNL     1     -13.170  14.962  72.396  1.00  0.00    -0.351 NA 
HETATM    3  C   UNL     1     -12.599  15.379  73.678  1.00  0.00    -0.591 C  
ENDROOT
BRANCH   2   4
HETATM    4  C   UNL     1     -12.215  15.093  71.280  1.00  0.00    -0.333 C  
BRANCH   4   5
HETATM    5  C   UNL     1     -11.528  13.769  70.907  1.00  0.00     0.445 C  
BRANCH   5   6
HETATM    6  C   UNL     1     -11.728  13.425  69.422  1.00  0.00    -0.382 C  
BRANCH   6   7
HETATM    7  C   UNL     1     -11.278  14.542  68.446  1.00  0.00    -0.271 C  
HETATM    8  O   UNL     1     -12.083  15.717  68.776  1.00  0.00    -0.314 OA 
HETATM    9  N   UNL     1      -5.235  17.731  69.243  1.00  0.00    -0.175 NA 
HETATM   10  C   UNL     1      -8.690  17.116  69.055  1.00  0.00    -0.103 A  
HETATM   11  C   UNL     1     -11.259  16.889  68.924  1.00  0.00    -0.016 C  
HETATM   12  C   UNL     1      -9.865  16.392  68.883  1.00  0.00    -0.260 A  
HETATM   13  C   UNL     1      -6.234  17.153  69.121  1.00  0.00    -0.212 C  
HETATM   14  C   UNL     1      -9.859  15.026  68.628  1.00  0.00    -0.222 A  
HETATM   15  C   UNL     1      -7.470  16.438  68.969  1.00  0.00    -0.227 A  
HETATM   16  C   UNL     1      -7.454  15.054  68.727  1.00  0.00    -0.133 A  
HETATM   17  C   UNL     1      -8.651  14.341  68.567  1.00  0.00    -0.175 A  
BRANCH   7  18
HETATM   18  C   UNL     1     -11.585  14.110  66.999  1.00  0.00    -0.404 A  
HETATM   19  C   UNL     1     -12.096  12.825  66.720  1.00  0.00    -0.290 A  
HETATM   20  F   UNL     1     -12.521  12.963  63.120  1.00  0.00    -0.564 F  
HETATM   21  C   UNL     1     -12.215  13.331  64.371  1.00  0.00    -0.390 A  
HETATM   22  C   UNL     1     -11.726  14.607  64.611  1.00  0.00    -0.431 A  
HETATM   23  C   UNL     1     -11.412  14.994  65.917  1.00  0.00    -0.224 A  
HETATM   24  C   UNL     1     -12.400  12.435  65.413  1.00  0.00    -0.308 A  
ENDBRANCH   7  18
ENDBRANCH   6   7
ENDBRANCH   5   6
ENDBRANCH   4   5
ENDBRANCH   2   4
TORSDOF 5
ENDMDL
MODEL      103
REMARK 921   NORMALIZED FREE ENERGY PREDICTED BY IDOCK:   -4.18 KCAL/MOL
REMARK 922        TOTAL FREE ENERGY PREDICTED BY IDOCK:   -6.27 KCAL/MOL
REMARK 923 INTER-LIGAND FREE ENERGY PREDICTED BY IDOCK:   -6.27 KCAL/MOL
REMARK 924 INTRA-LIGAND FREE ENERGY PREDICTED BY IDOCK:    0.00 KCAL/MOL
REMARK 927      BINDING AFFINITY PREDICTED BY RF-SCORE:    0.00 PKD
ROOT
HETATM    1  C   UNL     1     -10.810  12.264  63.223  1.00  0.00    -0.303 C  
HETATM    2  N   UNL     1     -11.111  13.080  64.404  1.00  0.00    -0.350 NA 
HETATM    3  C   UNL     1     -12.519  12.912  64.767  1.00  0.00    -0.455 C  
ENDROOT
BRANCH   2   4
HETATM    4  C   UNL     1     -10.196  12.730  65.506  1.00  0.00    -0.279 C  
BRANCH   4   5
HETATM    5  C   UNL     1     -10.817  11.767  66.531  1.00  0.00    -0.323 C  
BRANCH   5   6
HETATM    6  C   UNL     1     -11.762  12.499  67.497  1.00  0.00    -0.439 C  
BRANCH   6   7
HETATM    7  C   UNL     1     -11.602  12.080  68.981  1.00  0.00    -0.313 C  
HETATM    8  O   UNL     1     -12.762  11.249  69.296  1.00  0.00    -0.202 OA 
HETATM    9  N   UNL     1      -6.974   7.347  70.852  1.00  0.00    -0.058 NA 
HETATM   10  C   UNL     1     -10.025   8.985  70.259  1.00  0.00    -0.229 A  
HETATM   11  C   UNL     1     -12.368  10.024  69.941  1.00  0.00     0.172 C  
HETATM   12  C   UNL     1     -10.891   9.993  69.849  1.00  0.00    -0.328 A  
HETATM   13  C   UNL     1      -7.724   8.161  70.506  1.00  0.00    -0.085 C  
HETATM   14  C   UNL     1     -10.430  11.172  69.273  1.00  0.00    -0.183 A  
HETATM   15  C   UNL     1      -8.651   9.171  70.078  1.00  0.00    -0.172 A  
HETATM   16  C   UNL     1      -8.177  10.352  69.483  1.00  0.00    -0.137 A  
HETATM   17  C   UNL     1      -9.068  11.352  69.067  1.00  0.00     0.069 A  
BRANCH   7  18
HETATM   18  C   UNL     1     -11.623  13.337  69.871  1.00  0.00    -0.260 A  
HETATM   19  C   UNL     1     -10.917  14.500  69.501  1.00  0.00    -0.253 A  
HETATM   20  F   UNL     1     -11.758  16.772  72.201  1.00  0.00    -0.546 F  
HETATM   21  C   UNL     1     -11.711  15.663  71.451  1.00  0.00    -0.428 A  
HETATM   22  C   UNL     1     -12.429  14.541  71.840  1.00  0.00    -0.406 A  
HETATM   23  C   UNL     1     -12.384  13.385  71.056  1.00  0.00    -0.401 A  
HETATM   24  C   UNL     1     -10.953  15.653  70.290  1.00  0.00    -0.363 A  
ENDBRANCH   7  18
ENDBRANCH   6   7
ENDBRANCH   5   6
ENDBRANCH   4   5
ENDBRANCH   2   4
TORSDOF 5
ENDMDL
MODEL      104
REMARK 921   NORMALIZED FREE ENERGY PREDICTED BY IDOCK:   -4.17 KCAL/MOL
REMARK 922        TOTAL FREE ENERGY PREDICTED BY IDOCK:   -6.27 KCAL/MOL
REMARK 923 INTER-LIGAND FREE ENERGY PREDICTED BY IDOCK:   -5.21 KCAL/MOL
REMARK 924 INTRA-LIGAND FREE ENERGY PREDICTED BY IDOCK:   -1.05 KCAL/MOL
REMARK 927      BINDING AFFINITY PREDICTED BY RF-SCORE:    0.00 PKD
ROOT
HETATM    1  C   UNL     1      -9.209   5.340  66.498  1.00  0.00    -0.139 C  
HETATM    2  N   UNL     1      -8.436   6.499  66.955  1.00  0.00    -0.112 NA 
HETATM    3  C   UNL     1      -7.124   6.498  66.306  1.00  0.00    -0.067 C  
ENDROOT
BRANCH   2   4
HETATM    4  C   UNL     1      -9.191   7.740  66.706  1.00  0.00    -0.163 C  
BRANCH   4   5
HETATM    5  C   UNL     1     -10.403   7.914  67.637  1.00  0.00    -0.307 C  
BRANCH   5   6
HETATM    6  C   UNL     1     -10.793   9.393  67.791  1.00  0.00    -0.223 C  
BRANCH   6   7
HETATM    7  C   UNL     1     -10.725   9.919  69.247  1.00  0.00    -0.224 C  
HETATM    8  O   UNL     1     -11.749   9.187  69.991  1.00  0.00    -0.041 OA 
HETATM    9  N   UNL     1      -5.570   8.126  73.434  1.00  0.00    -0.048 NA 
HETATM   10  C   UNL     1      -8.778   8.476  72.044  1.00  0.00    -0.265 A  
HETATM   11  C   UNL     1     -11.218   8.647  71.215  1.00  0.00    -0.276 C  
HETATM   12  C   UNL     1      -9.757   8.877  71.142  1.00  0.00    -0.344 A  
HETATM   13  C   UNL     1      -6.409   8.431  72.693  1.00  0.00    -0.083 C  
HETATM   14  C   UNL     1      -9.452   9.596  69.993  1.00  0.00    -0.277 A  
HETATM   15  C   UNL     1      -7.447   8.810  71.776  1.00  0.00    -0.080 A  
HETATM   16  C   UNL     1      -7.126   9.524  70.609  1.00  0.00    -0.128 A  
HETATM   17  C   UNL     1      -8.128   9.909  69.706  1.00  0.00    -0.185 A  
BRANCH   7  18
HETATM   18  C   UNL     1     -11.066  11.422  69.263  1.00  0.00    -0.313 A  
HETATM   19  C   UNL     1     -11.983  11.948  70.196  1.00  0.00    -0.413 A  
HETATM   20  F   UNL     1     -11.916  15.484  69.393  1.00  0.00    -0.314 F  
HETATM   21  C   UNL     1     -11.645  14.173  69.349  1.00  0.00    -0.304 A  
HETATM   22  C   UNL     1     -10.728  13.692  68.425  1.00  0.00    -0.272 A  
HETATM   23  C   UNL     1     -10.442  12.325  68.381  1.00  0.00    -0.244 A  
HETATM   24  C   UNL     1     -12.278  13.313  70.233  1.00  0.00    -0.391 A  
ENDBRANCH   7  18
ENDBRANCH   6   7
ENDBRANCH   5   6
ENDBRANCH   4   5
ENDBRANCH   2   4
TORSDOF 5
ENDMDL
MODEL      105
REMARK 921   NORMALIZED FREE ENERGY PREDICTED BY IDOCK:   -4.16 KCAL/MOL
REMARK 922        TOTAL FREE ENERGY PREDICTED BY IDOCK:   -6.26 KCAL/MOL
REMARK 923 INTER-LIGAND FREE ENERGY PREDICTED BY IDOCK:   -5.89 KCAL/MOL
REMARK 924 INTRA-LIGAND FREE ENERGY PREDICTED BY IDOCK:   -0.37 KCAL/MOL
REMARK 927      BINDING AFFINITY PREDICTED BY RF-SCORE:    0.00 PKD
ROOT
HETATM    1  C   UNL     1      -5.141  19.384  66.781  1.00  0.00    -0.161 C  
HETATM    2  N   UNL     1      -6.574  19.181  67.015  1.00  0.00    -0.196 NA 
HETATM    3  C   UNL     1      -7.259  20.475  67.008  1.00  0.00    -0.317 C  
ENDROOT
BRANCH   2   4
HETATM    4  C   UNL     1      -7.121  18.244  66.016  1.00  0.00    -0.271 C  
BRANCH   4   5
HETATM    5  C   UNL     1      -7.376  16.836  66.578  1.00  0.00    -0.306 C  
BRANCH   5   6
HETATM    6  C   UNL     1      -8.412  16.070  65.738  1.00  0.00     0.463 C  
BRANCH   6   7
HETATM    7  C   UNL     1      -9.842  16.073  66.337  1.00  0.00    -0.288 C  
HETATM    8  O   UNL     1     -10.756  15.942  65.204  1.00  0.00    -0.414 OA 
HETATM    9  N   UNL     1     -12.295  10.595  69.698  1.00  0.00    -0.226 NA 
HETATM   10  C   UNL     1     -11.857  13.121  67.294  1.00  0.00    -0.420 A  
HETATM   11  C   UNL     1     -11.733  14.912  65.438  1.00  0.00    -0.238 C  
HETATM   12  C   UNL     1     -11.295  14.233  66.678  1.00  0.00    -0.356 A  
HETATM   13  C   UNL     1     -11.840  11.511  69.150  1.00  0.00    -0.340 C  
HETATM   14  C   UNL     1     -10.183  14.882  67.202  1.00  0.00    -0.245 A  
HETATM   15  C   UNL     1     -11.277  12.646  68.475  1.00  0.00    -0.315 A  
HETATM   16  C   UNL     1     -10.143  13.287  69.003  1.00  0.00     0.126 A  
HETATM   17  C   UNL     1      -9.585  14.401  68.361  1.00  0.00    -0.219 A  
BRANCH   7  18
HETATM   18  C   UNL     1     -10.097  17.420  67.040  1.00  0.00    -0.313 A  
HETATM   19  C   UNL     1      -9.799  17.592  68.408  1.00  0.00    -0.325 A  
HETATM   20  F   UNL     1     -10.676  21.072  68.927  1.00  0.00    -0.046 F  
HETATM   21  C   UNL     1     -10.493  19.893  68.320  1.00  0.00    -0.300 A  
HETATM   22  C   UNL     1     -10.787  19.763  66.970  1.00  0.00    -0.465 A  
HETATM   23  C   UNL     1     -10.592  18.534  66.334  1.00  0.00    -0.365 A  
HETATM   24  C   UNL     1     -10.004  18.818  69.046  1.00  0.00    -0.348 A  
ENDBRANCH   7  18
ENDBRANCH   6   7
ENDBRANCH   5   6
ENDBRANCH   4   5
ENDBRANCH   2   4
TORSDOF 5
ENDMDL
MODEL      106
REMARK 921   NORMALIZED FREE ENERGY PREDICTED BY IDOCK:   -4.14 KCAL/MOL
REMARK 922        TOTAL FREE ENERGY PREDICTED BY IDOCK:   -6.23 KCAL/MOL
REMARK 923 INTER-LIGAND FREE ENERGY PREDICTED BY IDOCK:   -5.54 KCAL/MOL
REMARK 924 INTRA-LIGAND FREE ENERGY PREDICTED BY IDOCK:   -0.69 KCAL/MOL
REMARK 927      BINDING AFFINITY PREDICTED BY RF-SCORE:    0.00 PKD
ROOT
HETATM    1  C   UNL     1     -12.152  12.442  64.040  1.00  0.00    -0.475 C  
HETATM    2  N   UNL     1     -11.595  13.456  64.940  1.00  0.00    -0.319 NA 
HETATM    3  C   UNL     1     -11.937  14.790  64.444  1.00  0.00    -0.417 C  
ENDROOT
BRANCH   2   4
HETATM    4  C   UNL     1     -12.069  13.225  66.317  1.00  0.00    -0.414 C  
BRANCH   4   5
HETATM    5  C   UNL     1     -11.436  11.989  66.979  1.00  0.00    -0.402 C  
BRANCH   5   6
HETATM    6  C   UNL     1     -10.005  12.274  67.461  1.00  0.00    -0.201 C  
BRANCH   6   7
HETATM    7  C   UNL     1      -9.164  11.002  67.741  1.00  0.00    -0.155 C  
HETATM    8  O   UNL     1      -7.874  11.471  68.244  1.00  0.00    -0.122 OA 
HETATM    9  N   UNL     1     -10.486   7.001  73.179  1.00  0.00    -0.271 NA 
HETATM   10  C   UNL     1      -8.873   9.194  70.957  1.00  0.00    -0.267 A  
HETATM   11  C   UNL     1      -7.500  10.777  69.449  1.00  0.00    -0.124 C  
HETATM   12  C   UNL     1      -8.691   9.985  69.828  1.00  0.00    -0.198 A  
HETATM   13  C   UNL     1     -10.309   7.682  72.256  1.00  0.00    -0.224 C  
HETATM   14  C   UNL     1      -9.676  10.122  68.857  1.00  0.00    -0.189 A  
HETATM   15  C   UNL     1     -10.090   8.523  71.113  1.00  0.00    -0.263 A  
HETATM   16  C   UNL     1     -11.098   8.667  70.145  1.00  0.00    -0.199 A  
HETATM   17  C   UNL     1     -10.898   9.478  69.018  1.00  0.00    -0.184 A  
BRANCH   7  18
HETATM   18  C   UNL     1      -8.945  10.235  66.423  1.00  0.00    -0.166 A  
HETATM   19  C   UNL     1      -8.801   8.832  66.416  1.00  0.00    -0.175 A  
HETATM   20  F   UNL     1      -8.464   8.137  62.873  1.00  0.00    -0.166 F  
HETATM   21  C   UNL     1      -8.615   8.814  64.018  1.00  0.00    -0.054 A  
HETATM   22  C   UNL     1      -8.766  10.193  63.987  1.00  0.00    -0.224 A  
HETATM   23  C   UNL     1      -8.929  10.899  65.182  1.00  0.00    -0.195 A  
HETATM   24  C   UNL     1      -8.628   8.127  65.223  1.00  0.00    -0.132 A  
ENDBRANCH   7  18
ENDBRANCH   6   7
ENDBRANCH   5   6
ENDBRANCH   4   5
ENDBRANCH   2   4
TORSDOF 5
ENDMDL
MODEL      107
REMARK 921   NORMALIZED FREE ENERGY PREDICTED BY IDOCK:   -4.11 KCAL/MOL
REMARK 922        TOTAL FREE ENERGY PREDICTED BY IDOCK:   -6.18 KCAL/MOL
REMARK 923 INTER-LIGAND FREE ENERGY PREDICTED BY IDOCK:   -5.11 KCAL/MOL
REMARK 924 INTRA-LIGAND FREE ENERGY PREDICTED BY IDOCK:   -1.07 KCAL/MOL
REMARK 927      BINDING AFFINITY PREDICTED BY RF-SCORE:    0.00 PKD
ROOT
HETATM    1  C   UNL     1     -10.751  10.159  70.748  1.00  0.00    -0.093 C  
HETATM    2  N   UNL     1      -9.695  10.595  69.829  1.00  0.00     0.021 NA 
HETATM    3  C   UNL     1      -8.620   9.600  69.814  1.00  0.00    -0.199 C  
ENDROOT
BRANCH   2   4
HETATM    4  C   UNL     1     -10.259  10.839  68.490  1.00  0.00    -0.178 C  
BRANCH   4   5
HETATM    5  C   UNL     1      -9.632  12.049  67.777  1.00  0.00    -0.193 C  
BRANCH   5   6
HETATM    6  C   UNL     1     -10.556  13.277  67.826  1.00  0.00    -0.249 C  
BRANCH   6   7
HETATM    7  C   UNL     1      -9.956  14.493  68.578  1.00  0.00    -0.238 C  
HETATM    8  O   UNL     1      -8.759  14.000  69.257  1.00  0.00     0.200 OA 
HETATM    9  N   UNL     1      -6.676  19.498  65.184  1.00  0.00    -0.395 NA 
HETATM   10  C   UNL     1      -7.344  16.804  67.339  1.00  0.00    -0.187 A  
HETATM   11  C   UNL     1      -7.628  14.856  69.011  1.00  0.00    -0.151 C  
HETATM   12  C   UNL     1      -8.083  15.813  67.976  1.00  0.00    -0.143 A  
HETATM   13  C   UNL     1      -7.260  18.651  65.722  1.00  0.00    -0.193 C  
HETATM   14  C   UNL     1      -9.427  15.601  67.697  1.00  0.00    -0.211 A  
HETATM   15  C   UNL     1      -7.983  17.605  66.387  1.00  0.00    -0.309 A  
HETATM   16  C   UNL     1      -9.339  17.388  66.087  1.00  0.00    -0.176 A  
HETATM   17  C   UNL     1     -10.063  16.376  66.734  1.00  0.00    -0.287 A  
BRANCH   7  18
HETATM   18  C   UNL     1     -10.965  14.991  69.630  1.00  0.00    -0.294 A  
HETATM   19  C   UNL     1     -12.315  14.585  69.589  1.00  0.00    -0.284 A  
HETATM   20  F   UNL     1     -13.676  16.236  72.518  1.00  0.00    -0.434 F  
HETATM   21  C   UNL     1     -12.803  15.837  71.584  1.00  0.00    -0.448 A  
HETATM   22  C   UNL     1     -11.480  16.247  71.662  1.00  0.00    -0.324 A  
HETATM   23  C   UNL     1     -10.567  15.828  70.690  1.00  0.00    -0.089 A  
HETATM   24  C   UNL     1     -13.230  15.012  70.554  1.00  0.00    -0.255 A  
ENDBRANCH   7  18
ENDBRANCH   6   7
ENDBRANCH   5   6
ENDBRANCH   4   5
ENDBRANCH   2   4
TORSDOF 5
ENDMDL
MODEL      108
REMARK 921   NORMALIZED FREE ENERGY PREDICTED BY IDOCK:   -4.10 KCAL/MOL
REMARK 922        TOTAL FREE ENERGY PREDICTED BY IDOCK:   -6.17 KCAL/MOL
REMARK 923 INTER-LIGAND FREE ENERGY PREDICTED BY IDOCK:   -5.30 KCAL/MOL
REMARK 924 INTRA-LIGAND FREE ENERGY PREDICTED BY IDOCK:   -0.86 KCAL/MOL
REMARK 927      BINDING AFFINITY PREDICTED BY RF-SCORE:    0.00 PKD
ROOT
HETATM    1  C   UNL     1     -10.099  11.487  64.285  1.00  0.00    -0.291 C  
HETATM    2  N   UNL     1      -9.669  12.046  65.571  1.00  0.00    -0.229 NA 
HETATM    3  C   UNL     1     -10.041  13.461  65.637  1.00  0.00    -0.274 C  
ENDROOT
BRANCH   2   4
HETATM    4  C   UNL     1     -10.238  11.258  66.680  1.00  0.00    -0.229 C  
BRANCH   4   5
HETATM    5  C   UNL     1      -9.954   9.751  66.564  1.00  0.00    -0.304 C  
BRANCH   5   6
HETATM    6  C   UNL     1     -10.606   8.962  67.712  1.00  0.00    -0.266 C  
BRANCH   6   7
HETATM    7  C   UNL     1      -9.771   7.752  68.204  1.00  0.00    -0.155 C  
HETATM    8  O   UNL     1      -8.428   8.264  68.464  1.00  0.00    -0.124 OA 
HETATM    9  N   UNL     1     -10.645   5.172  74.520  1.00  0.00    -0.348 NA 
HETATM   10  C   UNL     1      -9.208   6.720  71.713  1.00  0.00    -0.147 A  
HETATM   11  C   UNL     1      -7.953   7.850  69.759  1.00  0.00    -0.114 C  
HETATM   12  C   UNL     1      -9.119   7.221  70.419  1.00  0.00    -0.155 A  
HETATM   13  C   UNL     1     -10.544   5.613  73.452  1.00  0.00    -0.258 C  
HETATM   14  C   UNL     1     -10.192   7.176  69.535  1.00  0.00    -0.201 A  
HETATM   15  C   UNL     1     -10.419   6.159  72.130  1.00  0.00    -0.237 A  
HETATM   16  C   UNL     1     -11.513   6.123  71.249  1.00  0.00    -0.311 A  
HETATM   17  C   UNL     1     -11.406   6.643  69.951  1.00  0.00    -0.422 A  
BRANCH   7  18
HETATM   18  C   UNL     1      -9.701   6.693  67.086  1.00  0.00    -0.178 A  
HETATM   19  C   UNL     1      -8.490   6.428  66.414  1.00  0.00    -0.123 A  
HETATM   20  F   UNL     1      -9.465   3.768  64.149  1.00  0.00    -0.126 F  
HETATM   21  C   UNL     1      -9.541   4.714  65.094  1.00  0.00    -0.128 A  
HETATM   22  C   UNL     1     -10.747   4.940  65.743  1.00  0.00    -0.194 A  
HETATM   23  C   UNL     1     -10.826   5.924  66.732  1.00  0.00    -0.347 A  
HETATM   24  C   UNL     1      -8.412   5.451  65.418  1.00  0.00    -0.144 A  
ENDBRANCH   7  18
ENDBRANCH   6   7
ENDBRANCH   5   6
ENDBRANCH   4   5
ENDBRANCH   2   4
TORSDOF 5
ENDMDL
MODEL      109
REMARK 921   NORMALIZED FREE ENERGY PREDICTED BY IDOCK:   -4.09 KCAL/MOL
REMARK 922        TOTAL FREE ENERGY PREDICTED BY IDOCK:   -6.16 KCAL/MOL
REMARK 923 INTER-LIGAND FREE ENERGY PREDICTED BY IDOCK:   -5.12 KCAL/MOL
REMARK 924 INTRA-LIGAND FREE ENERGY PREDICTED BY IDOCK:   -1.03 KCAL/MOL
REMARK 927      BINDING AFFINITY PREDICTED BY RF-SCORE:    0.00 PKD
ROOT
HETATM    1  C   UNL     1     -12.090   8.554  71.963  1.00  0.00    -0.364 C  
HETATM    2  N   UNL     1     -10.651   8.829  71.914  1.00  0.00    -0.336 NA 
HETATM    3  C   UNL     1      -9.955   7.958  72.863  1.00  0.00    -0.294 C  
ENDROOT
BRANCH   2   4
HETATM    4  C   UNL     1     -10.154   8.678  70.535  1.00  0.00    -0.196 C  
BRANCH   4   5
HETATM    5  C   UNL     1      -9.709  10.005  69.898  1.00  0.00    -0.245 C  
BRANCH   5   6
HETATM    6  C   UNL     1     -10.485  10.301  68.605  1.00  0.00    -0.215 C  
BRANCH   6   7
HETATM    7  C   UNL     1      -9.595  10.771  67.425  1.00  0.00    -0.159 C  
HETATM    8  O   UNL     1      -8.432  11.419  68.026  1.00  0.00    -0.133 OA 
HETATM    9  N   UNL     1      -5.915   6.272  63.745  1.00  0.00    -0.022 NA 
HETATM   10  C   UNL     1      -6.785   8.920  65.886  1.00  0.00    -0.068 A  
HETATM   11  C   UNL     1      -7.206  10.928  67.454  1.00  0.00    -0.094 C  
HETATM   12  C   UNL     1      -7.605   9.784  66.603  1.00  0.00    -0.098 A  
HETATM   13  C   UNL     1      -6.570   7.000  64.368  1.00  0.00    -0.045 C  
HETATM   14  C   UNL     1      -8.989   9.665  66.592  1.00  0.00    -0.166 A  
HETATM   15  C   UNL     1      -7.381   7.901  65.137  1.00  0.00    -0.071 A  
HETATM   16  C   UNL     1      -8.780   7.763  65.132  1.00  0.00     0.051 A  
HETATM   17  C   UNL     1      -9.589   8.639  65.871  1.00  0.00    -0.210 A  
BRANCH   7  18
HETATM   18  C   UNL     1     -10.370  11.802  66.581  1.00  0.00    -0.251 A  
HETATM   19  C   UNL     1     -11.659  12.229  66.962  1.00  0.00    -0.418 A  
HETATM   20  F   UNL     1     -12.428  14.661  64.383  1.00  0.00    -0.475 F  
HETATM   21  C   UNL     1     -11.766  13.736  65.090  1.00  0.00    -0.343 A  
HETATM   22  C   UNL     1     -10.494  13.348  64.693  1.00  0.00    -0.428 A  
HETATM   23  C   UNL     1      -9.801  12.386  65.433  1.00  0.00    -0.200 A  
HETATM   24  C   UNL     1     -12.356  13.183  66.216  1.00  0.00    -0.346 A  
ENDBRANCH   7  18
ENDBRANCH   6   7
ENDBRANCH   5   6
ENDBRANCH   4   5
ENDBRANCH   2   4
TORSDOF 5
ENDMDL
MODEL      110
REMARK 921   NORMALIZED FREE ENERGY PREDICTED BY IDOCK:   -4.07 KCAL/MOL
REMARK 922        TOTAL FREE ENERGY PREDICTED BY IDOCK:   -6.13 KCAL/MOL
REMARK 923 INTER-LIGAND FREE ENERGY PREDICTED BY IDOCK:   -5.66 KCAL/MOL
REMARK 924 INTRA-LIGAND FREE ENERGY PREDICTED BY IDOCK:   -0.48 KCAL/MOL
REMARK 927      BINDING AFFINITY PREDICTED BY RF-SCORE:    0.00 PKD
ROOT
HETATM    1  C   UNL     1     -12.112  16.132  70.459  1.00  0.00    -0.039 C  
HETATM    2  N   UNL     1     -11.272  14.954  70.216  1.00  0.00    -0.250 NA 
HETATM    3  C   UNL     1     -12.078  13.897  69.603  1.00  0.00    -0.349 C  
ENDROOT
BRANCH   2   4
HETATM    4  C   UNL     1     -10.105  15.327  69.396  1.00  0.00    -0.264 C  
BRANCH   4   5
HETATM    5  C   UNL     1      -9.260  14.119  68.957  1.00  0.00     0.093 C  
BRANCH   5   6
HETATM    6  C   UNL     1      -9.289  13.931  67.431  1.00  0.00    -0.228 C  
BRANCH   6   7
HETATM    7  C   UNL     1      -9.266  12.450  66.974  1.00  0.00    -0.208 C  
HETATM    8  O   UNL     1      -7.904  12.189  66.511  1.00  0.00     0.014 OA 
HETATM    9  N   UNL     1      -9.316   7.319  71.556  1.00  0.00    -0.149 NA 
HETATM   10  C   UNL     1      -8.299   9.512  69.005  1.00  0.00    -0.126 A  
HETATM   11  C   UNL     1      -7.378  10.982  67.093  1.00  0.00    -0.116 C  
HETATM   12  C   UNL     1      -8.371  10.575  68.113  1.00  0.00    -0.119 A  
HETATM   13  C   UNL     1      -9.337   8.208  70.810  1.00  0.00    -0.158 C  
HETATM   14  C   UNL     1      -9.465  11.432  68.072  1.00  0.00    -0.181 A  
HETATM   15  C   UNL     1      -9.365   9.307  69.887  1.00  0.00    -0.214 A  
HETATM   16  C   UNL     1     -10.469  10.177  69.864  1.00  0.00    -0.322 A  
HETATM   17  C   UNL     1     -10.517  11.250  68.962  1.00  0.00    -0.221 A  
BRANCH   7  18
HETATM   18  C   UNL     1     -10.244  12.264  65.798  1.00  0.00    -0.281 A  
HETATM   19  C   UNL     1     -11.546  12.804  65.845  1.00  0.00    -0.428 A  
HETATM   20  F   UNL     1     -12.856  11.868  62.595  1.00  0.00    -0.330 F  
HETATM   21  C   UNL     1     -12.015  11.992  63.630  1.00  0.00    -0.515 A  
HETATM   22  C   UNL     1     -10.737  11.459  63.544  1.00  0.00    -0.453 A  
HETATM   23  C   UNL     1      -9.858  11.592  64.622  1.00  0.00    -0.259 A  
HETATM   24  C   UNL     1     -12.429  12.661  64.772  1.00  0.00    -0.555 A  
ENDBRANCH   7  18
ENDBRANCH   6   7
ENDBRANCH   5   6
ENDBRANCH   4   5
ENDBRANCH   2   4
TORSDOF 5
ENDMDL
MODEL      111
REMARK 921   NORMALIZED FREE ENERGY PREDICTED BY IDOCK:   -4.05 KCAL/MOL
REMARK 922        TOTAL FREE ENERGY PREDICTED BY IDOCK:   -6.10 KCAL/MOL
REMARK 923 INTER-LIGAND FREE ENERGY PREDICTED BY IDOCK:   -5.11 KCAL/MOL
REMARK 924 INTRA-LIGAND FREE ENERGY PREDICTED BY IDOCK:   -0.99 KCAL/MOL
REMARK 927      BINDING AFFINITY PREDICTED BY RF-SCORE:    0.00 PKD
ROOT
HETATM    1  C   UNL     1      -7.799   3.319  73.841  1.00  0.00    -0.066 C  
HETATM    2  N   UNL     1      -8.569   4.493  73.418  1.00  0.00    -0.101 NA 
HETATM    3  C   UNL     1      -8.141   5.662  74.189  1.00  0.00    -0.105 C  
ENDROOT
BRANCH   2   4
HETATM    4  C   UNL     1      -8.430   4.692  71.964  1.00  0.00    -0.118 C  
BRANCH   4   5
HETATM    5  C   UNL     1      -9.778   4.841  71.238  1.00  0.00    -0.245 C  
BRANCH   5   6
HETATM    6  C   UNL     1     -10.316   6.278  71.332  1.00  0.00    -0.251 C  
BRANCH   6   7
HETATM    7  C   UNL     1      -9.852   7.206  70.180  1.00  0.00    -0.179 C  
HETATM    8  O   UNL     1      -8.446   7.508  70.442  1.00  0.00    -0.136 OA 
HETATM    9  N   UNL     1      -8.744   4.730  63.858  1.00  0.00    -0.140 NA 
HETATM   10  C   UNL     1      -8.228   6.180  67.017  1.00  0.00    -0.106 A  
HETATM   11  C   UNL     1      -7.640   7.301  69.268  1.00  0.00    -0.102 C  
HETATM   12  C   UNL     1      -8.539   6.653  68.287  1.00  0.00    -0.119 A  
HETATM   13  C   UNL     1      -8.967   5.119  64.928  1.00  0.00    -0.082 C  
HETATM   14  C   UNL     1      -9.824   6.570  68.810  1.00  0.00    -0.146 A  
HETATM   15  C   UNL     1      -9.245   5.602  66.251  1.00  0.00    -0.165 A  
HETATM   16  C   UNL     1     -10.544   5.500  66.777  1.00  0.00    -0.360 A  
HETATM   17  C   UNL     1     -10.835   5.974  68.065  1.00  0.00    -0.374 A  
BRANCH   7  18
HETATM   18  C   UNL     1     -10.666   8.513  70.219  1.00  0.00    -0.242 A  
HETATM   19  C   UNL     1     -11.435   8.856  71.351  1.00  0.00    -0.381 A  
HETATM   20  F   UNL     1     -12.780  12.083  70.387  1.00  0.00    -0.255 F  
HETATM   21  C   UNL     1     -12.101  10.930  70.331  1.00  0.00    -0.363 A  
HETATM   22  C   UNL     1     -11.346  10.631  69.207  1.00  0.00    -0.346 A  
HETATM   23  C   UNL     1     -10.634   9.430  69.150  1.00  0.00    -0.234 A  
HETATM   24  C   UNL     1     -12.155  10.052  71.403  1.00  0.00    -0.498 A  
ENDBRANCH   7  18
ENDBRANCH   6   7
ENDBRANCH   5   6
ENDBRANCH   4   5
ENDBRANCH   2   4
TORSDOF 5
ENDMDL
MODEL      112
REMARK 921   NORMALIZED FREE ENERGY PREDICTED BY IDOCK:   -4.03 KCAL/MOL
REMARK 922        TOTAL FREE ENERGY PREDICTED BY IDOCK:   -6.08 KCAL/MOL
REMARK 923 INTER-LIGAND FREE ENERGY PREDICTED BY IDOCK:   -6.07 KCAL/MOL
REMARK 924 INTRA-LIGAND FREE ENERGY PREDICTED BY IDOCK:   -0.02 KCAL/MOL
REMARK 927      BINDING AFFINITY PREDICTED BY RF-SCORE:    0.00 PKD
ROOT
HETATM    1  C   UNL     1      -9.813  10.196  64.329  1.00  0.00    -0.200 C  
HETATM    2  N   UNL     1      -9.897  11.018  65.540  1.00  0.00    -0.229 NA 
HETATM    3  C   UNL     1     -10.729  12.194  65.275  1.00  0.00    -0.288 C  
ENDROOT
BRANCH   2   4
HETATM    4  C   UNL     1     -10.400  10.210  66.666  1.00  0.00    -0.208 C  
BRANCH   4   5
HETATM    5  C   UNL     1     -10.729  11.045  67.915  1.00  0.00    -0.263 C  
BRANCH   5   6
HETATM    6  C   UNL     1     -12.144  10.747  68.439  1.00  0.00     0.180 C  
BRANCH   6   7
HETATM    7  C   UNL     1     -12.305  10.931  69.970  1.00  0.00    -0.313 C  
HETATM    8  O   UNL     1     -13.686  10.565  70.279  1.00  0.00     0.371 OA 
HETATM    9  N   UNL     1      -9.516   6.463  74.395  1.00  0.00    -0.212 NA 
HETATM   10  C   UNL     1     -11.864   8.342  72.578  1.00  0.00    -0.427 A  
HETATM   11  C   UNL     1     -13.747   9.646  71.385  1.00  0.00    -0.204 C  
HETATM   12  C   UNL     1     -12.342   9.264  71.653  1.00  0.00    -0.450 A  
HETATM   13  C   UNL     1      -9.948   7.212  73.622  1.00  0.00    -0.325 C  
HETATM   14  C   UNL     1     -11.492   9.986  70.823  1.00  0.00    -0.438 A  
HETATM   15  C   UNL     1     -10.483   8.141  72.666  1.00  0.00    -0.401 A  
HETATM   16  C   UNL     1      -9.616   8.855  71.821  1.00  0.00    -0.353 A  
HETATM   17  C   UNL     1     -10.120   9.772  70.887  1.00  0.00    -0.135 A  
BRANCH   7  18
HETATM   18  C   UNL     1     -12.081  12.412  70.333  1.00  0.00    -0.381 A  
HETATM   19  C   UNL     1     -12.612  12.955  71.521  1.00  0.00    -0.269 A  
HETATM   20  F   UNL     1     -11.397  16.370  71.382  1.00  0.00    -0.408 F  
HETATM   21  C   UNL     1     -11.621  15.094  71.042  1.00  0.00    -0.347 A  
HETATM   22  C   UNL     1     -11.073  14.589  69.871  1.00  0.00    -0.204 A  
HETATM   23  C   UNL     1     -11.303  13.257  69.518  1.00  0.00    -0.236 A  
HETATM   24  C   UNL     1     -12.391  14.290  71.869  1.00  0.00    -0.329 A  
ENDBRANCH   7  18
ENDBRANCH   6   7
ENDBRANCH   5   6
ENDBRANCH   4   5
ENDBRANCH   2   4
TORSDOF 5
ENDMDL
MODEL      113
REMARK 921   NORMALIZED FREE ENERGY PREDICTED BY IDOCK:   -4.00 KCAL/MOL
REMARK 922        TOTAL FREE ENERGY PREDICTED BY IDOCK:   -6.05 KCAL/MOL
REMARK 923 INTER-LIGAND FREE ENERGY PREDICTED BY IDOCK:   -5.20 KCAL/MOL
REMARK 924 INTRA-LIGAND FREE ENERGY PREDICTED BY IDOCK:   -0.84 KCAL/MOL
REMARK 927      BINDING AFFINITY PREDICTED BY RF-SCORE:    0.00 PKD
ROOT
HETATM    1  C   UNL     1      -6.648   5.399  71.280  1.00  0.00    -0.040 C  
HETATM    2  N   UNL     1      -6.941   6.601  72.066  1.00  0.00    -0.071 NA 
HETATM    3  C   UNL     1      -6.550   6.381  73.460  1.00  0.00    -0.073 C  
ENDROOT
BRANCH   2   4
HETATM    4  C   UNL     1      -6.272   7.771  71.468  1.00  0.00    -0.035 C  
BRANCH   4   5
HETATM    5  C   UNL     1      -7.236   8.705  70.717  1.00  0.00    -0.067 C  
BRANCH   5   6
HETATM    6  C   UNL     1      -8.468   9.052  71.568  1.00  0.00    -0.092 C  
BRANCH   6   7
HETATM    7  C   UNL     1      -9.821   8.838  70.843  1.00  0.00    -0.222 C  
HETATM    8  O   UNL     1     -10.860   9.055  71.848  1.00  0.00    -0.350 OA 
HETATM    9  N   UNL     1     -12.275  13.535  66.456  1.00  0.00    -0.401 NA 
HETATM   10  C   UNL     1     -11.923  11.435  69.251  1.00  0.00    -0.400 A  
HETATM   11  C   UNL     1     -11.876   9.952  71.365  1.00  0.00    -0.394 C  
HETATM   12  C   UNL     1     -11.354  10.477  70.082  1.00  0.00    -0.400 A  
HETATM   13  C   UNL     1     -11.819  12.751  67.179  1.00  0.00    -0.350 C  
HETATM   14  C   UNL     1     -10.150   9.856  69.775  1.00  0.00    -0.274 A  
HETATM   15  C   UNL     1     -11.254  11.780  68.073  1.00  0.00    -0.324 A  
HETATM   16  C   UNL     1     -10.027  11.168  67.761  1.00  0.00    -0.193 A  
HETATM   17  C   UNL     1      -9.465  10.212  68.619  1.00  0.00    -0.164 A  
BRANCH   7  18
HETATM   18  C   UNL     1      -9.904   7.386  70.334  1.00  0.00    -0.183 A  
HETATM   19  C   UNL     1      -9.496   7.051  69.026  1.00  0.00    -0.138 A  
HETATM   20  F   UNL     1     -10.016   3.462  68.982  1.00  0.00    -0.160 F  
HETATM   21  C   UNL     1      -9.983   4.729  69.417  1.00  0.00    -0.199 A  
HETATM   22  C   UNL     1     -10.382   5.020  70.713  1.00  0.00    -0.265 A  
HETATM   23  C   UNL     1     -10.344   6.341  71.169  1.00  0.00    -0.255 A  
HETATM   24  C   UNL     1      -9.544   5.733  68.567  1.00  0.00    -0.150 A  
ENDBRANCH   7  18
ENDBRANCH   6   7
ENDBRANCH   5   6
ENDBRANCH   4   5
ENDBRANCH   2   4
TORSDOF 5
ENDMDL
MODEL      114
REMARK 921   NORMALIZED FREE ENERGY PREDICTED BY IDOCK:   -3.96 KCAL/MOL
REMARK 922        TOTAL FREE ENERGY PREDICTED BY IDOCK:   -5.99 KCAL/MOL
REMARK 923 INTER-LIGAND FREE ENERGY PREDICTED BY IDOCK:   -4.71 KCAL/MOL
REMARK 924 INTRA-LIGAND FREE ENERGY PREDICTED BY IDOCK:   -1.27 KCAL/MOL
REMARK 927      BINDING AFFINITY PREDICTED BY RF-SCORE:    0.00 PKD
ROOT
HETATM    1  C   UNL     1     -10.090   8.713  66.991  1.00  0.00    -0.272 C  
HETATM    2  N   UNL     1     -10.065   7.417  67.675  1.00  0.00    -0.172 NA 
HETATM    3  C   UNL     1     -11.105   6.550  67.117  1.00  0.00    -0.360 C  
ENDROOT
BRANCH   2   4
HETATM    4  C   UNL     1      -8.720   6.821  67.581  1.00  0.00    -0.119 C  
BRANCH   4   5
HETATM    5  C   UNL     1      -7.844   7.097  68.814  1.00  0.00    -0.122 C  
BRANCH   5   6
HETATM    6  C   UNL     1      -7.755   5.868  69.734  1.00  0.00    -0.089 C  
BRANCH   6   7
HETATM    7  C   UNL     1      -8.260   6.118  71.178  1.00  0.00    -0.123 C  
HETATM    8  O   UNL     1      -7.487   7.249  71.688  1.00  0.00    -0.082 OA 
HETATM    9  N   UNL     1     -14.384   9.026  72.344  1.00  0.00    -0.517 NA 
HETATM   10  C   UNL     1     -10.916   8.471  72.228  1.00  0.00    -0.426 A  
HETATM   11  C   UNL     1      -8.345   8.244  72.278  1.00  0.00    -0.169 C  
HETATM   12  C   UNL     1      -9.723   7.815  71.949  1.00  0.00    -0.216 A  
HETATM   13  C   UNL     1     -13.370   8.512  72.112  1.00  0.00    -0.351 C  
HETATM   14  C   UNL     1      -9.690   6.592  71.290  1.00  0.00    -0.186 A  
HETATM   15  C   UNL     1     -12.116   7.875  71.826  1.00  0.00    -0.340 A  
HETATM   16  C   UNL     1     -12.092   6.646  71.145  1.00  0.00    -0.391 A  
HETATM   17  C   UNL     1     -10.876   6.006  70.864  1.00  0.00    -0.349 A  
BRANCH   7  18
HETATM   18  C   UNL     1      -7.969   4.876  72.042  1.00  0.00    -0.110 A  
HETATM   19  C   UNL     1      -8.535   4.738  73.326  1.00  0.00    -0.103 A  
HETATM   20  F   UNL     1      -7.285   1.488  74.342  1.00  0.00    -0.021 F  
HETATM   21  C   UNL     1      -7.503   2.583  73.602  1.00  0.00    -0.045 A  
HETATM   22  C   UNL     1      -6.939   2.680  72.338  1.00  0.00    -0.027 A  
HETATM   23  C   UNL     1      -7.169   3.820  71.563  1.00  0.00    -0.039 A  
HETATM   24  C   UNL     1      -8.296   3.603  74.105  1.00  0.00    -0.086 A  
ENDBRANCH   7  18
ENDBRANCH   6   7
ENDBRANCH   5   6
ENDBRANCH   4   5
ENDBRANCH   2   4
TORSDOF 5
ENDMDL
MODEL      115
REMARK 921   NORMALIZED FREE ENERGY PREDICTED BY IDOCK:   -3.92 KCAL/MOL
REMARK 922        TOTAL FREE ENERGY PREDICTED BY IDOCK:   -5.94 KCAL/MOL
REMARK 923 INTER-LIGAND FREE ENERGY PREDICTED BY IDOCK:   -4.67 KCAL/MOL
REMARK 924 INTRA-LIGAND FREE ENERGY PREDICTED BY IDOCK:   -1.27 KCAL/MOL
REMARK 927      BINDING AFFINITY PREDICTED BY RF-SCORE:    0.00 PKD
ROOT
HETATM    1  C   UNL     1     -10.855   7.394  73.031  1.00  0.00    -0.375 C  
HETATM    2  N   UNL     1     -11.765   8.125  72.144  1.00  0.00    -0.334 NA 
HETATM    3  C   UNL     1     -11.053   9.250  71.533  1.00  0.00    -0.373 C  
ENDROOT
BRANCH   2   4
HETATM    4  C   UNL     1     -12.340   7.208  71.143  1.00  0.00    -0.364 C  
BRANCH   4   5
HETATM    5  C   UNL     1     -11.341   6.154  70.638  1.00  0.00    -0.368 C  
BRANCH   5   6
HETATM    6  C   UNL     1     -11.221   6.175  69.106  1.00  0.00    -0.409 C  
BRANCH   6   7
HETATM    7  C   UNL     1      -9.788   6.460  68.585  1.00  0.00    -0.142 C  
HETATM    8  O   UNL     1      -8.879   6.054  69.656  1.00  0.00    -0.130 OA 
HETATM    9  N   UNL     1      -6.886   2.449  63.808  1.00  0.00    -0.035 NA 
HETATM   10  C   UNL     1      -7.543   4.086  66.848  1.00  0.00    -0.084 A  
HETATM   11  C   UNL     1      -7.824   5.214  69.154  1.00  0.00    -0.081 C  
HETATM   12  C   UNL     1      -8.195   4.916  67.752  1.00  0.00    -0.101 A  
HETATM   13  C   UNL     1      -7.416   3.121  64.592  1.00  0.00    -0.075 C  
HETATM   14  C   UNL     1      -9.348   5.615  67.412  1.00  0.00    -0.113 A  
HETATM   15  C   UNL     1      -8.072   3.954  65.560  1.00  0.00    -0.101 A  
HETATM   16  C   UNL     1      -9.245   4.645  65.212  1.00  0.00    -0.156 A  
HETATM   17  C   UNL     1      -9.894   5.470  66.142  1.00  0.00    -0.137 A  
BRANCH   7  18
HETATM   18  C   UNL     1      -9.628   7.971  68.332  1.00  0.00    -0.157 A  
HETATM   19  C   UNL     1     -10.643   8.710  67.689  1.00  0.00    -0.272 A  
HETATM   20  F   UNL     1      -9.264  12.064  67.737  1.00  0.00    -0.167 F  
HETATM   21  C   UNL     1      -9.380  10.743  67.925  1.00  0.00    -0.150 A  
HETATM   22  C   UNL     1      -8.367  10.050  68.572  1.00  0.00    -0.113 A  
HETATM   23  C   UNL     1      -8.489   8.672  68.772  1.00  0.00    -0.129 A  
HETATM   24  C   UNL     1     -10.516  10.085  67.479  1.00  0.00    -0.307 A  
ENDBRANCH   7  18
ENDBRANCH   6   7
ENDBRANCH   5   6
ENDBRANCH   4   5
ENDBRANCH   2   4
TORSDOF 5
ENDMDL
MODEL      116
REMARK 921   NORMALIZED FREE ENERGY PREDICTED BY IDOCK:   -3.88 KCAL/MOL
REMARK 922        TOTAL FREE ENERGY PREDICTED BY IDOCK:   -5.89 KCAL/MOL
REMARK 923 INTER-LIGAND FREE ENERGY PREDICTED BY IDOCK:   -5.01 KCAL/MOL
REMARK 924 INTRA-LIGAND FREE ENERGY PREDICTED BY IDOCK:   -0.88 KCAL/MOL
REMARK 927      BINDING AFFINITY PREDICTED BY RF-SCORE:    0.00 PKD
ROOT
HETATM    1  C   UNL     1     -11.140   7.855  72.928  1.00  0.00    -0.379 C  
HETATM    2  N   UNL     1     -12.153   8.113  71.899  1.00  0.00    -0.304 NA 
HETATM    3  C   UNL     1     -11.828   9.354  71.193  1.00  0.00    -0.338 C  
ENDROOT
BRANCH   2   4
HETATM    4  C   UNL     1     -12.257   6.956  70.992  1.00  0.00    -0.377 C  
BRANCH   4   5
HETATM    5  C   UNL     1     -10.937   6.621  70.277  1.00  0.00    -0.355 C  
BRANCH   5   6
HETATM    6  C   UNL     1     -11.149   6.400  68.770  1.00  0.00    -0.404 C  
BRANCH   6   7
HETATM    7  C   UNL     1     -10.208   7.239  67.867  1.00  0.00    -0.191 C  
HETATM    8  O   UNL     1     -11.036   8.296  67.290  1.00  0.00    -0.135 OA 
HETATM    9  N   UNL     1      -5.585  11.544  70.590  1.00  0.00    -0.180 NA 
HETATM   10  C   UNL     1      -8.353  10.295  68.823  1.00  0.00    -0.125 A  
HETATM   11  C   UNL     1     -10.413   9.586  67.437  1.00  0.00    -0.272 C  
HETATM   12  C   UNL     1      -9.245   9.356  68.316  1.00  0.00    -0.133 A  
HETATM   13  C   UNL     1      -6.356  10.788  70.165  1.00  0.00    -0.147 C  
HETATM   14  C   UNL     1      -9.124   8.000  68.594  1.00  0.00    -0.140 A  
HETATM   15  C   UNL     1      -7.308   9.851  69.639  1.00  0.00    -0.115 A  
HETATM   16  C   UNL     1      -7.187   8.484  69.938  1.00  0.00    -0.051 A  
HETATM   17  C   UNL     1      -8.103   7.554  69.425  1.00  0.00    -0.128 A  
BRANCH   7  18
HETATM   18  C   UNL     1      -9.661   6.349  66.735  1.00  0.00    -0.199 A  
HETATM   19  C   UNL     1     -10.232   5.088  66.463  1.00  0.00    -0.307 A  
HETATM   20  F   UNL     1      -8.273   3.984  63.618  1.00  0.00    -0.085 F  
HETATM   21  C   UNL     1      -8.719   4.745  64.625  1.00  0.00    -0.153 A  
HETATM   22  C   UNL     1      -8.141   5.985  64.856  1.00  0.00    -0.133 A  
HETATM   23  C   UNL     1      -8.608   6.782  65.905  1.00  0.00    -0.153 A  
HETATM   24  C   UNL     1      -9.758   4.287  65.421  1.00  0.00    -0.204 A  
ENDBRANCH   7  18
ENDBRANCH   6   7
ENDBRANCH   5   6
ENDBRANCH   4   5
ENDBRANCH   2   4
TORSDOF 5
ENDMDL
MODEL      117
REMARK 921   NORMALIZED FREE ENERGY PREDICTED BY IDOCK:   -3.86 KCAL/MOL
REMARK 922        TOTAL FREE ENERGY PREDICTED BY IDOCK:   -5.86 KCAL/MOL
REMARK 923 INTER-LIGAND FREE ENERGY PREDICTED BY IDOCK:   -4.95 KCAL/MOL
REMARK 924 INTRA-LIGAND FREE ENERGY PREDICTED BY IDOCK:   -0.92 KCAL/MOL
REMARK 927      BINDING AFFINITY PREDICTED BY RF-SCORE:    0.00 PKD
ROOT
HETATM    1  C   UNL     1      -5.131  10.506  65.012  1.00  0.00    -0.131 C  
HETATM    2  N   UNL     1      -6.238  10.252  65.940  1.00  0.00    -0.095 NA 
HETATM    3  C   UNL     1      -6.914   9.008  65.566  1.00  0.00    -0.080 C  
ENDROOT
BRANCH   2   4
HETATM    4  C   UNL     1      -5.739  10.230  67.327  1.00  0.00    -0.045 C  
BRANCH   4   5
HETATM    5  C   UNL     1      -6.458  11.230  68.248  1.00  0.00    -0.056 C  
BRANCH   5   6
HETATM    6  C   UNL     1      -7.325  12.215  67.448  1.00  0.00    -0.151 C  
BRANCH   6   7
HETATM    7  C   UNL     1      -8.851  12.000  67.618  1.00  0.00    -0.172 C  
HETATM    8  O   UNL     1      -9.398  11.888  66.267  1.00  0.00    -0.221 OA 
HETATM    9  N   UNL     1     -11.368   5.969  69.766  1.00  0.00    -0.380 NA 
HETATM   10  C   UNL     1     -10.637   8.762  67.763  1.00  0.00    -0.256 A  
HETATM   11  C   UNL     1     -10.255  10.738  66.145  1.00  0.00    -0.250 C  
HETATM   12  C   UNL     1     -10.083   9.987  67.409  1.00  0.00    -0.256 A  
HETATM   13  C   UNL     1     -10.908   6.981  69.434  1.00  0.00    -0.227 C  
HETATM   14  C   UNL     1      -9.252  10.696  68.268  1.00  0.00    -0.153 A  
HETATM   15  C   UNL     1     -10.340   8.234  69.024  1.00  0.00    -0.233 A  
HETATM   16  C   UNL     1      -9.488   8.937  69.893  1.00  0.00    -0.177 A  
HETATM   17  C   UNL     1      -8.931  10.166  69.513  1.00  0.00    -0.205 A  
BRANCH   7  18
HETATM   18  C   UNL     1      -9.466  13.231  68.312  1.00  0.00    -0.209 A  
HETATM   19  C   UNL     1     -10.836  13.268  68.643  1.00  0.00    -0.285 A  
HETATM   20  F   UNL     1     -11.118  16.492  70.280  1.00  0.00    -0.344 F  
HETATM   21  C   UNL     1     -10.586  15.442  69.642  1.00  0.00    -0.279 A  
HETATM   22  C   UNL     1      -9.232  15.434  69.343  1.00  0.00    -0.268 A  
HETATM   23  C   UNL     1      -8.675  14.337  68.680  1.00  0.00    -0.150 A  
HETATM   24  C   UNL     1     -11.395  14.370  69.296  1.00  0.00    -0.319 A  
ENDBRANCH   7  18
ENDBRANCH   6   7
ENDBRANCH   5   6
ENDBRANCH   4   5
ENDBRANCH   2   4
TORSDOF 5
ENDMDL
MODEL      118
REMARK 921   NORMALIZED FREE ENERGY PREDICTED BY IDOCK:   -3.85 KCAL/MOL
REMARK 922        TOTAL FREE ENERGY PREDICTED BY IDOCK:   -5.85 KCAL/MOL
REMARK 923 INTER-LIGAND FREE ENERGY PREDICTED BY IDOCK:   -4.94 KCAL/MOL
REMARK 924 INTRA-LIGAND FREE ENERGY PREDICTED BY IDOCK:   -0.91 KCAL/MOL
REMARK 927      BINDING AFFINITY PREDICTED BY RF-SCORE:    0.00 PKD
ROOT
HETATM    1  C   UNL     1      -9.222   3.425  65.001  1.00  0.00    -0.147 C  
HETATM    2  N   UNL     1      -8.689   4.199  66.127  1.00  0.00    -0.113 NA 
HETATM    3  C   UNL     1      -7.727   5.185  65.630  1.00  0.00    -0.087 C  
ENDROOT
BRANCH   2   4
HETATM    4  C   UNL     1      -9.794   4.816  66.883  1.00  0.00    -0.205 C  
BRANCH   4   5
HETATM    5  C   UNL     1      -9.742   6.353  66.892  1.00  0.00    -0.190 C  
BRANCH   5   6
HETATM    6  C   UNL     1     -10.694   6.947  67.943  1.00  0.00    -0.294 C  
BRANCH   6   7
HETATM    7  C   UNL     1     -10.005   7.890  68.963  1.00  0.00    -0.187 C  
HETATM    8  O   UNL     1      -9.006   7.078  69.656  1.00  0.00    -0.141 OA 
HETATM    9  N   UNL     1      -5.524  12.683  66.897  1.00  0.00    -0.278 NA 
HETATM   10  C   UNL     1      -6.907   9.845  68.439  1.00  0.00    -0.063 A  
HETATM   11  C   UNL     1      -7.727   7.737  69.686  1.00  0.00    -0.101 C  
HETATM   12  C   UNL     1      -7.876   8.918  68.806  1.00  0.00    -0.101 A  
HETATM   13  C   UNL     1      -6.305  11.883  67.207  1.00  0.00    -0.143 C  
HETATM   14  C   UNL     1      -9.189   9.009  68.359  1.00  0.00    -0.137 A  
HETATM   15  C   UNL     1      -7.273  10.895  67.593  1.00  0.00    -0.093 A  
HETATM   16  C   UNL     1      -8.594  10.987  67.123  1.00  0.00    -0.136 A  
HETATM   17  C   UNL     1      -9.555  10.035  67.496  1.00  0.00    -0.178 A  
BRANCH   7  18
HETATM   18  C   UNL     1     -11.047   8.388  69.982  1.00  0.00    -0.148 A  
HETATM   19  C   UNL     1     -11.873   7.481  70.678  1.00  0.00    -0.205 A  
HETATM   20  F   UNL     1     -13.786   9.704  72.811  1.00  0.00    -0.400 F  
HETATM   21  C   UNL     1     -12.905   9.280  71.896  1.00  0.00    -0.404 A  
HETATM   22  C   UNL     1     -12.101  10.200  71.239  1.00  0.00    -0.489 A  
HETATM   23  C   UNL     1     -11.179   9.757  70.287  1.00  0.00    -0.347 A  
HETATM   24  C   UNL     1     -12.802   7.924  71.622  1.00  0.00    -0.357 A  
ENDBRANCH   7  18
ENDBRANCH   6   7
ENDBRANCH   5   6
ENDBRANCH   4   5
ENDBRANCH   2   4
TORSDOF 5
ENDMDL
MODEL      119
REMARK 921   NORMALIZED FREE ENERGY PREDICTED BY IDOCK:   -3.84 KCAL/MOL
REMARK 922        TOTAL FREE ENERGY PREDICTED BY IDOCK:   -5.84 KCAL/MOL
REMARK 923 INTER-LIGAND FREE ENERGY PREDICTED BY IDOCK:   -5.06 KCAL/MOL
REMARK 924 INTRA-LIGAND FREE ENERGY PREDICTED BY IDOCK:   -0.78 KCAL/MOL
REMARK 927      BINDING AFFINITY PREDICTED BY RF-SCORE:    0.00 PKD
ROOT
HETATM    1  C   UNL     1     -12.062  12.514  65.499  1.00  0.00    -0.419 C  
HETATM    2  N   UNL     1     -10.962  12.179  66.408  1.00  0.00    -0.274 NA 
HETATM    3  C   UNL     1      -9.997  13.279  66.435  1.00  0.00    -0.288 C  
ENDROOT
BRANCH   2   4
HETATM    4  C   UNL     1     -11.492  11.858  67.746  1.00  0.00    -0.319 C  
BRANCH   4   5
HETATM    5  C   UNL     1     -11.308  10.381  68.136  1.00  0.00    -0.284 C  
BRANCH   5   6
HETATM    6  C   UNL     1     -10.582  10.238  69.483  1.00  0.00    -0.270 C  
BRANCH   6   7
HETATM    7  C   UNL     1     -10.097   8.798  69.792  1.00  0.00    -0.196 C  
HETATM    8  O   UNL     1     -11.127   8.195  70.636  1.00  0.00    -0.250 OA 
HETATM    9  N   UNL     1     -10.322   3.871  64.996  1.00  0.00    -0.151 NA 
HETATM   10  C   UNL     1     -10.940   5.719  67.920  1.00  0.00    -0.140 A  
HETATM   11  C   UNL     1     -11.508   6.896  70.148  1.00  0.00    -0.303 C  
HETATM   12  C   UNL     1     -10.838   6.762  68.834  1.00  0.00    -0.288 A  
HETATM   13  C   UNL     1     -10.271   4.732  65.772  1.00  0.00    -0.225 C  
HETATM   14  C   UNL     1     -10.031   7.869  68.602  1.00  0.00    -0.201 A  
HETATM   15  C   UNL     1     -10.207   5.798  66.732  1.00  0.00    -0.269 A  
HETATM   16  C   UNL     1      -9.400   6.921  66.482  1.00  0.00    -0.197 A  
HETATM   17  C   UNL     1      -9.319   7.967  67.413  1.00  0.00    -0.169 A  
BRANCH   7  18
HETATM   18  C   UNL     1      -8.773   8.863  70.578  1.00  0.00    -0.213 A  
HETATM   19  C   UNL     1      -8.553   8.034  71.697  1.00  0.00    -0.162 A  
HETATM   20  F   UNL     1      -5.172   8.945  72.642  1.00  0.00    -0.042 F  
HETATM   21  C   UNL     1      -6.335   8.921  71.978  1.00  0.00    -0.045 A  
HETATM   22  C   UNL     1      -6.512   9.742  70.874  1.00  0.00    -0.063 A  
HETATM   23  C   UNL     1      -7.724   9.714  70.179  1.00  0.00    -0.179 A  
HETATM   24  C   UNL     1      -7.345   8.069  72.399  1.00  0.00    -0.115 A  
ENDBRANCH   7  18
ENDBRANCH   6   7
ENDBRANCH   5   6
ENDBRANCH   4   5
ENDBRANCH   2   4
TORSDOF 5
ENDMDL
MODEL      120
REMARK 921   NORMALIZED FREE ENERGY PREDICTED BY IDOCK:   -3.81 KCAL/MOL
REMARK 922        TOTAL FREE ENERGY PREDICTED BY IDOCK:   -5.80 KCAL/MOL
REMARK 923 INTER-LIGAND FREE ENERGY PREDICTED BY IDOCK:   -4.53 KCAL/MOL
REMARK 924 INTRA-LIGAND FREE ENERGY PREDICTED BY IDOCK:   -1.26 KCAL/MOL
REMARK 927      BINDING AFFINITY PREDICTED BY RF-SCORE:    0.00 PKD
ROOT
HETATM    1  C   UNL     1     -11.904  10.062  71.091  1.00  0.00    -0.393 C  
HETATM    2  N   UNL     1     -11.166   8.796  71.108  1.00  0.00    -0.260 NA 
HETATM    3  C   UNL     1     -10.063   8.886  72.067  1.00  0.00    -0.281 C  
ENDROOT
BRANCH   2   4
HETATM    4  C   UNL     1     -12.083   7.680  71.402  1.00  0.00    -0.316 C  
BRANCH   4   5
HETATM    5  C   UNL     1     -11.488   6.300  71.075  1.00  0.00    -0.370 C  
BRANCH   5   6
HETATM    6  C   UNL     1     -11.176   6.158  69.577  1.00  0.00    -0.482 C  
BRANCH   6   7
HETATM    7  C   UNL     1      -9.802   5.506  69.273  1.00  0.00    -0.172 C  
HETATM    8  O   UNL     1      -9.679   4.374  70.190  1.00  0.00    -0.186 OA 
HETATM    9  N   UNL     1      -8.833   1.756  63.588  1.00  0.00    -0.087 NA 
HETATM   10  C   UNL     1      -9.140   2.694  66.960  1.00  0.00    -0.171 A  
HETATM   11  C   UNL     1      -9.284   3.178  69.493  1.00  0.00    -0.151 C  
HETATM   12  C   UNL     1      -9.355   3.523  68.055  1.00  0.00    -0.237 A  
HETATM   13  C   UNL     1      -9.023   2.418  64.522  1.00  0.00    -0.117 C  
HETATM   14  C   UNL     1      -9.677   4.868  67.910  1.00  0.00    -0.202 A  
HETATM   15  C   UNL     1      -9.256   3.237  65.677  1.00  0.00    -0.150 A  
HETATM   16  C   UNL     1      -9.597   4.592  65.520  1.00  0.00    -0.190 A  
HETATM   17  C   UNL     1      -9.820   5.409  66.637  1.00  0.00    -0.193 A  
BRANCH   7  18
HETATM   18  C   UNL     1      -8.680   6.519  69.567  1.00  0.00    -0.134 A  
HETATM   19  C   UNL     1      -7.702   6.254  70.549  1.00  0.00    -0.101 A  
HETATM   20  F   UNL     1      -5.585   9.189  70.299  1.00  0.00    -0.029 F  
HETATM   21  C   UNL     1      -6.586   8.329  70.066  1.00  0.00    -0.039 A  
HETATM   22  C   UNL     1      -7.523   8.617  69.085  1.00  0.00    -0.083 A  
HETATM   23  C   UNL     1      -8.565   7.719  68.838  1.00  0.00    -0.132 A  
HETATM   24  C   UNL     1      -6.667   7.157  70.803  1.00  0.00    -0.052 A  
ENDBRANCH   7  18
ENDBRANCH   6   7
ENDBRANCH   5   6
ENDBRANCH   4   5
ENDBRANCH   2   4
TORSDOF 5
ENDMDL
MODEL      121
REMARK 921   NORMALIZED FREE ENERGY PREDICTED BY IDOCK:   -3.80 KCAL/MOL
REMARK 922        TOTAL FREE ENERGY PREDICTED BY IDOCK:   -5.78 KCAL/MOL
REMARK 923 INTER-LIGAND FREE ENERGY PREDICTED BY IDOCK:   -4.81 KCAL/MOL
REMARK 924 INTRA-LIGAND FREE ENERGY PREDICTED BY IDOCK:   -0.97 KCAL/MOL
REMARK 927      BINDING AFFINITY PREDICTED BY RF-SCORE:    0.00 PKD
ROOT
HETATM    1  C   UNL     1     -11.937  12.476  65.401  1.00  0.00    -0.437 C  
HETATM    2  N   UNL     1     -10.803  12.256  66.305  1.00  0.00    -0.268 NA 
HETATM    3  C   UNL     1     -10.159  13.538  66.601  1.00  0.00    -0.277 C  
ENDROOT
BRANCH   2   4
HETATM    4  C   UNL     1     -11.254  11.554  67.520  1.00  0.00    -0.298 C  
BRANCH   4   5
HETATM    5  C   UNL     1     -10.904  10.057  67.523  1.00  0.00    -0.326 C  
BRANCH   5   6
HETATM    6  C   UNL     1     -10.311   9.616  68.872  1.00  0.00    -0.220 C  
BRANCH   6   7
HETATM    7  C   UNL     1     -10.113   8.085  69.009  1.00  0.00    -0.201 C  
HETATM    8  O   UNL     1     -11.273   7.467  68.369  1.00  0.00     0.115 OA 
HETATM    9  N   UNL     1      -5.486   4.748  65.164  1.00  0.00    -0.013 NA 
HETATM   10  C   UNL     1      -8.534   5.820  66.544  1.00  0.00    -0.116 A  
HETATM   11  C   UNL     1     -10.874   6.435  67.449  1.00  0.00    -0.375 C  
HETATM   12  C   UNL     1      -9.400   6.543  67.357  1.00  0.00    -0.125 A  
HETATM   13  C   UNL     1      -6.236   5.346  65.816  1.00  0.00    -0.034 C  
HETATM   14  C   UNL     1      -8.944   7.514  68.241  1.00  0.00    -0.130 A  
HETATM   15  C   UNL     1      -7.164   6.086  66.625  1.00  0.00    -0.074 A  
HETATM   16  C   UNL     1      -6.694   7.076  67.505  1.00  0.00    -0.068 A  
HETATM   17  C   UNL     1      -7.586   7.802  68.308  1.00  0.00    -0.109 A  
BRANCH   7  18
HETATM   18  C   UNL     1     -10.095   7.704  70.501  1.00  0.00    -0.189 A  
HETATM   19  C   UNL     1     -10.615   6.469  70.941  1.00  0.00    -0.275 A  
HETATM   20  F   UNL     1      -9.958   6.612  74.505  1.00  0.00    -0.281 F  
HETATM   21  C   UNL     1     -10.006   6.965  73.214  1.00  0.00    -0.215 A  
HETATM   22  C   UNL     1      -9.474   8.183  72.815  1.00  0.00    -0.349 A  
HETATM   23  C   UNL     1      -9.519   8.551  71.468  1.00  0.00    -0.290 A  
HETATM   24  C   UNL     1     -10.579   6.105  72.289  1.00  0.00    -0.251 A  
ENDBRANCH   7  18
ENDBRANCH   6   7
ENDBRANCH   5   6
ENDBRANCH   4   5
ENDBRANCH   2   4
TORSDOF 5
ENDMDL
MODEL      122
REMARK 921   NORMALIZED FREE ENERGY PREDICTED BY IDOCK:   -3.76 KCAL/MOL
REMARK 922        TOTAL FREE ENERGY PREDICTED BY IDOCK:   -5.73 KCAL/MOL
REMARK 923 INTER-LIGAND FREE ENERGY PREDICTED BY IDOCK:   -5.39 KCAL/MOL
REMARK 924 INTRA-LIGAND FREE ENERGY PREDICTED BY IDOCK:   -0.34 KCAL/MOL
REMARK 927      BINDING AFFINITY PREDICTED BY RF-SCORE:    0.00 PKD
ROOT
HETATM    1  C   UNL     1      -8.367   8.132  65.076  1.00  0.00    -0.136 C  
HETATM    2  N   UNL     1      -7.938   9.223  65.957  1.00  0.00    -0.108 NA 
HETATM    3  C   UNL     1      -8.717  10.427  65.659  1.00  0.00    -0.171 C  
ENDROOT
BRANCH   2   4
HETATM    4  C   UNL     1      -8.053   8.809  67.367  1.00  0.00    -0.105 C  
BRANCH   4   5
HETATM    5  C   UNL     1      -9.047   9.662  68.174  1.00  0.00    -0.123 C  
BRANCH   5   6
HETATM    6  C   UNL     1     -10.378   8.925  68.394  1.00  0.00    -0.237 C  
BRANCH   6   7
HETATM    7  C   UNL     1     -10.751   8.721  69.885  1.00  0.00    -0.223 C  
HETATM    8  O   UNL     1     -11.623   7.549  69.928  1.00  0.00    -0.048 OA 
HETATM    9  N   UNL     1      -6.182   6.212  74.374  1.00  0.00    -0.068 NA 
HETATM   10  C   UNL     1      -9.021   6.548  72.331  1.00  0.00    -0.133 A  
HETATM   11  C   UNL     1     -11.193   6.615  70.937  1.00  0.00    -0.302 C  
HETATM   12  C   UNL     1      -9.887   7.126  71.409  1.00  0.00    -0.178 A  
HETATM   13  C   UNL     1      -6.918   6.659  73.597  1.00  0.00    -0.076 C  
HETATM   14  C   UNL     1      -9.604   8.339  70.791  1.00  0.00    -0.196 A  
HETATM   15  C   UNL     1      -7.830   7.214  72.636  1.00  0.00    -0.102 A  
HETATM   16  C   UNL     1      -7.528   8.433  72.005  1.00  0.00    -0.135 A  
HETATM   17  C   UNL     1      -8.410   8.994  71.070  1.00  0.00    -0.237 A  
BRANCH   7  18
HETATM   18  C   UNL     1     -11.531   9.950  70.389  1.00  0.00    -0.372 A  
HETATM   19  C   UNL     1     -12.350   9.870  71.535  1.00  0.00    -0.504 A  
HETATM   20  F   UNL     1     -13.555  13.278  71.826  1.00  0.00    -0.440 F  
HETATM   21  C   UNL     1     -12.905  12.204  71.361  1.00  0.00    -0.276 A  
HETATM   22  C   UNL     1     -12.099  12.322  70.238  1.00  0.00    -0.376 A  
HETATM   23  C   UNL     1     -11.418  11.202  69.754  1.00  0.00    -0.388 A  
HETATM   24  C   UNL     1     -13.040  10.987  72.012  1.00  0.00    -0.449 A  
ENDBRANCH   7  18
ENDBRANCH   6   7
ENDBRANCH   5   6
ENDBRANCH   4   5
ENDBRANCH   2   4
TORSDOF 5
ENDMDL
MODEL      123
REMARK 921   NORMALIZED FREE ENERGY PREDICTED BY IDOCK:   -3.75 KCAL/MOL
REMARK 922        TOTAL FREE ENERGY PREDICTED BY IDOCK:   -5.72 KCAL/MOL
REMARK 923 INTER-LIGAND FREE ENERGY PREDICTED BY IDOCK:   -4.61 KCAL/MOL
REMARK 924 INTRA-LIGAND FREE ENERGY PREDICTED BY IDOCK:   -1.11 KCAL/MOL
REMARK 927      BINDING AFFINITY PREDICTED BY RF-SCORE:    0.00 PKD
ROOT
HETATM    1  C   UNL     1      -9.294   4.456  66.473  1.00  0.00    -0.159 C  
HETATM    2  N   UNL     1      -9.055   5.670  67.259  1.00  0.00    -0.111 NA 
HETATM    3  C   UNL     1      -7.672   5.675  67.741  1.00  0.00    -0.096 C  
ENDROOT
BRANCH   2   4
HETATM    4  C   UNL     1      -9.380   6.864  66.458  1.00  0.00    -0.158 C  
BRANCH   4   5
HETATM    5  C   UNL     1     -10.559   7.674  67.024  1.00  0.00    -0.406 C  
BRANCH   5   6
HETATM    6  C   UNL     1     -10.477   9.154  66.616  1.00  0.00    -0.237 C  
BRANCH   6   7
HETATM    7  C   UNL     1     -10.178  10.121  67.790  1.00  0.00    -0.191 C  
HETATM    8  O   UNL     1     -11.349  10.073  68.663  1.00  0.00    -0.172 OA 
HETATM    9  N   UNL     1      -5.703   8.424  72.731  1.00  0.00    -0.056 NA 
HETATM   10  C   UNL     1      -8.682   9.248  71.061  1.00  0.00    -0.182 A  
HETATM   11  C   UNL     1     -10.969   9.873  70.037  1.00  0.00    -0.291 C  
HETATM   12  C   UNL     1      -9.517   9.584  70.001  1.00  0.00    -0.265 A  
HETATM   13  C   UNL     1      -6.429   8.690  71.867  1.00  0.00    -0.074 C  
HETATM   14  C   UNL     1      -9.046   9.702  68.699  1.00  0.00    -0.132 A  
HETATM   15  C   UNL     1      -7.328   9.021  70.797  1.00  0.00    -0.109 A  
HETATM   16  C   UNL     1      -6.845   9.122  69.481  1.00  0.00    -0.048 A  
HETATM   17  C   UNL     1      -7.707   9.453  68.425  1.00  0.00    -0.086 A  
BRANCH   7  18
HETATM   18  C   UNL     1     -10.012  11.552  67.244  1.00  0.00    -0.212 A  
HETATM   19  C   UNL     1      -9.262  12.515  67.949  1.00  0.00    -0.200 A  
HETATM   20  F   UNL     1      -9.462  15.380  65.735  1.00  0.00    -0.323 F  
HETATM   21  C   UNL     1      -9.643  14.146  66.224  1.00  0.00    -0.275 A  
HETATM   22  C   UNL     1     -10.377  13.221  65.497  1.00  0.00    -0.298 A  
HETATM   23  C   UNL     1     -10.562  11.932  66.004  1.00  0.00    -0.304 A  
HETATM   24  C   UNL     1      -9.086  13.807  67.447  1.00  0.00    -0.221 A  
ENDBRANCH   7  18
ENDBRANCH   6   7
ENDBRANCH   5   6
ENDBRANCH   4   5
ENDBRANCH   2   4
TORSDOF 5
ENDMDL
MODEL      124
REMARK 921   NORMALIZED FREE ENERGY PREDICTED BY IDOCK:   -3.73 KCAL/MOL
REMARK 922        TOTAL FREE ENERGY PREDICTED BY IDOCK:   -5.69 KCAL/MOL
REMARK 923 INTER-LIGAND FREE ENERGY PREDICTED BY IDOCK:   -4.72 KCAL/MOL
REMARK 924 INTRA-LIGAND FREE ENERGY PREDICTED BY IDOCK:   -0.97 KCAL/MOL
REMARK 927      BINDING AFFINITY PREDICTED BY RF-SCORE:    0.00 PKD
ROOT
HETATM    1  C   UNL     1      -8.572  10.571  64.669  1.00  0.00    -0.161 C  
HETATM    2  N   UNL     1      -9.258   9.328  65.034  1.00  0.00    -0.217 NA 
HETATM    3  C   UNL     1      -8.286   8.235  65.100  1.00  0.00    -0.157 C  
ENDROOT
BRANCH   2   4
HETATM    4  C   UNL     1      -9.993   9.510  66.299  1.00  0.00    -0.274 C  
BRANCH   4   5
HETATM    5  C   UNL     1      -9.255   8.937  67.521  1.00  0.00    -0.153 C  
BRANCH   5   6
HETATM    6  C   UNL     1     -10.230   8.307  68.528  1.00  0.00    -0.234 C  
BRANCH   6   7
HETATM    7  C   UNL     1     -10.219   6.757  68.538  1.00  0.00    -0.175 C  
HETATM    8  O   UNL     1     -11.251   6.338  67.591  1.00  0.00    -0.327 OA 
HETATM    9  N   UNL     1      -5.164   3.223  65.491  1.00  0.00    -0.008 NA 
HETATM   10  C   UNL     1      -8.333   4.533  66.259  1.00  0.00    -0.110 A  
HETATM   11  C   UNL     1     -10.748   5.346  66.677  1.00  0.00    -0.236 C  
HETATM   12  C   UNL     1      -9.291   5.285  66.930  1.00  0.00    -0.127 A  
HETATM   13  C   UNL     1      -5.985   3.850  66.019  1.00  0.00    -0.027 C  
HETATM   14  C   UNL     1      -8.963   6.116  67.995  1.00  0.00    -0.113 A  
HETATM   15  C   UNL     1      -7.001   4.625  66.674  1.00  0.00    -0.063 A  
HETATM   16  C   UNL     1      -6.657   5.475  67.740  1.00  0.00    -0.053 A  
HETATM   17  C   UNL     1      -7.638   6.233  68.397  1.00  0.00    -0.096 A  
BRANCH   7  18
HETATM   18  C   UNL     1     -10.590   6.253  69.946  1.00  0.00    -0.308 A  
HETATM   19  C   UNL     1     -11.666   6.821  70.659  1.00  0.00    -0.440 A  
HETATM   20  F   UNL     1     -11.675   4.836  73.695  1.00  0.00    -0.350 F  
HETATM   21  C   UNL     1     -11.323   5.296  72.487  1.00  0.00    -0.179 A  
HETATM   22  C   UNL     1     -10.266   4.705  71.809  1.00  0.00    -0.242 A  
HETATM   23  C   UNL     1      -9.901   5.181  70.547  1.00  0.00    -0.285 A  
HETATM   24  C   UNL     1     -12.025   6.351  71.926  1.00  0.00    -0.381 A  
ENDBRANCH   7  18
ENDBRANCH   6   7
ENDBRANCH   5   6
ENDBRANCH   4   5
ENDBRANCH   2   4
TORSDOF 5
ENDMDL
MODEL      125
REMARK 921   NORMALIZED FREE ENERGY PREDICTED BY IDOCK:   -3.71 KCAL/MOL
REMARK 922        TOTAL FREE ENERGY PREDICTED BY IDOCK:   -5.67 KCAL/MOL
REMARK 923 INTER-LIGAND FREE ENERGY PREDICTED BY IDOCK:   -4.66 KCAL/MOL
REMARK 924 INTRA-LIGAND FREE ENERGY PREDICTED BY IDOCK:   -1.01 KCAL/MOL
REMARK 927      BINDING AFFINITY PREDICTED BY RF-SCORE:    0.00 PKD
ROOT
HETATM    1  C   UNL     1     -11.613  10.095  70.894  1.00  0.00    -0.372 C  
HETATM    2  N   UNL     1     -11.050   8.750  71.049  1.00  0.00    -0.256 NA 
HETATM    3  C   UNL     1     -10.027   8.767  72.097  1.00  0.00    -0.289 C  
ENDROOT
BRANCH   2   4
HETATM    4  C   UNL     1     -12.126   7.781  71.323  1.00  0.00    -0.306 C  
BRANCH   4   5
HETATM    5  C   UNL     1     -11.780   6.347  70.888  1.00  0.00    -0.366 C  
BRANCH   5   6
HETATM    6  C   UNL     1     -11.313   6.296  69.424  1.00  0.00    -0.448 C  
BRANCH   6   7
HETATM    7  C   UNL     1      -9.886   5.722  69.232  1.00  0.00    -0.170 C  
HETATM    8  O   UNL     1      -8.997   6.877  69.116  1.00  0.00    -0.134 OA 
HETATM    9  N   UNL     1      -6.468   2.880  74.482  1.00  0.00    -0.024 NA 
HETATM   10  C   UNL     1      -7.386   5.052  71.877  1.00  0.00    -0.084 A  
HETATM   11  C   UNL     1      -7.857   6.747  69.986  1.00  0.00    -0.111 C  
HETATM   12  C   UNL     1      -8.141   5.562  70.827  1.00  0.00    -0.113 A  
HETATM   13  C   UNL     1      -7.084   3.340  73.613  1.00  0.00    -0.045 C  
HETATM   14  C   UNL     1      -9.329   4.968  70.416  1.00  0.00    -0.216 A  
HETATM   15  C   UNL     1      -7.845   3.908  72.536  1.00  0.00    -0.080 A  
HETATM   16  C   UNL     1      -9.052   3.309  72.138  1.00  0.00    -0.150 A  
HETATM   17  C   UNL     1      -9.805   3.845  71.083  1.00  0.00    -0.223 A  
BRANCH   7  18
HETATM   18  C   UNL     1      -9.834   4.911  67.923  1.00  0.00    -0.196 A  
HETATM   19  C   UNL     1     -10.610   5.285  66.807  1.00  0.00    -0.309 A  
HETATM   20  F   UNL     1      -9.627   2.801  64.353  1.00  0.00    -0.139 F  
HETATM   21  C   UNL     1      -9.697   3.480  65.506  1.00  0.00    -0.077 A  
HETATM   22  C   UNL     1      -8.910   3.090  66.580  1.00  0.00    -0.155 A  
HETATM   23  C   UNL     1      -8.979   3.800  67.782  1.00  0.00    -0.161 A  
HETATM   24  C   UNL     1     -10.549   4.569  65.608  1.00  0.00    -0.231 A  
ENDBRANCH   7  18
ENDBRANCH   6   7
ENDBRANCH   5   6
ENDBRANCH   4   5
ENDBRANCH   2   4
TORSDOF 5
ENDMDL
MODEL      126
REMARK 921   NORMALIZED FREE ENERGY PREDICTED BY IDOCK:   -3.64 KCAL/MOL
REMARK 922        TOTAL FREE ENERGY PREDICTED BY IDOCK:   -5.57 KCAL/MOL
REMARK 923 INTER-LIGAND FREE ENERGY PREDICTED BY IDOCK:   -4.59 KCAL/MOL
REMARK 924 INTRA-LIGAND FREE ENERGY PREDICTED BY IDOCK:   -0.99 KCAL/MOL
REMARK 927      BINDING AFFINITY PREDICTED BY RF-SCORE:    0.00 PKD
ROOT
HETATM    1  C   UNL     1     -10.049  11.698  64.096  1.00  0.00    -0.297 C  
HETATM    2  N   UNL     1     -10.619  12.194  65.353  1.00  0.00    -0.263 NA 
HETATM    3  C   UNL     1     -11.706  13.130  65.060  1.00  0.00    -0.337 C  
ENDROOT
BRANCH   2   4
HETATM    4  C   UNL     1     -11.056  11.063  66.191  1.00  0.00    -0.012 C  
BRANCH   4   5
HETATM    5  C   UNL     1     -10.057   9.893  66.203  1.00  0.00    -0.315 C  
BRANCH   5   6
HETATM    6  C   UNL     1     -10.499   8.781  67.169  1.00  0.00    -0.354 C  
BRANCH   6   7
HETATM    7  C   UNL     1      -9.327   7.983  67.796  1.00  0.00    -0.137 C  
HETATM    8  O   UNL     1      -8.103   8.664  67.379  1.00  0.00    -0.101 OA 
HETATM    9  N   UNL     1      -7.956   8.389  74.525  1.00  0.00    -0.282 NA 
HETATM   10  C   UNL     1      -7.663   8.652  71.033  1.00  0.00    -0.120 A  
HETATM   11  C   UNL     1      -7.231   8.902  68.499  1.00  0.00    -0.073 C  
HETATM   12  C   UNL     1      -8.024   8.536  69.695  1.00  0.00    -0.101 A  
HETATM   13  C   UNL     1      -8.233   8.322  73.400  1.00  0.00    -0.178 C  
HETATM   14  C   UNL     1      -9.254   8.021  69.304  1.00  0.00    -0.152 A  
HETATM   15  C   UNL     1      -8.575   8.236  72.008  1.00  0.00    -0.238 A  
HETATM   16  C   UNL     1      -9.828   7.728  71.623  1.00  0.00    -0.201 A  
HETATM   17  C   UNL     1     -10.176   7.630  70.268  1.00  0.00    -0.205 A  
BRANCH   7  18
HETATM   18  C   UNL     1      -9.326   6.549  67.230  1.00  0.00    -0.129 A  
HETATM   19  C   UNL     1      -8.231   5.686  67.444  1.00  0.00    -0.101 A  
HETATM   20  F   UNL     1      -9.350   2.648  65.809  1.00  0.00    -0.152 F  
HETATM   21  C   UNL     1      -9.341   3.908  66.264  1.00  0.00    -0.179 A  
HETATM   22  C   UNL     1     -10.440   4.725  66.046  1.00  0.00    -0.332 A  
HETATM   23  C   UNL     1     -10.433   6.038  66.524  1.00  0.00    -0.227 A  
HETATM   24  C   UNL     1      -8.235   4.377  66.957  1.00  0.00    -0.101 A  
ENDBRANCH   7  18
ENDBRANCH   6   7
ENDBRANCH   5   6
ENDBRANCH   4   5
ENDBRANCH   2   4
TORSDOF 5
ENDMDL
MODEL      127
REMARK 921   NORMALIZED FREE ENERGY PREDICTED BY IDOCK:   -3.63 KCAL/MOL
REMARK 922        TOTAL FREE ENERGY PREDICTED BY IDOCK:   -5.57 KCAL/MOL
REMARK 923 INTER-LIGAND FREE ENERGY PREDICTED BY IDOCK:   -4.34 KCAL/MOL
REMARK 924 INTRA-LIGAND FREE ENERGY PREDICTED BY IDOCK:   -1.23 KCAL/MOL
REMARK 927      BINDING AFFINITY PREDICTED BY RF-SCORE:    0.00 PKD
ROOT
HETATM    1  C   UNL     1      -7.760   4.977  70.959  1.00  0.00    -0.087 C  
HETATM    2  N   UNL     1      -6.317   5.182  70.805  1.00  0.00    -0.022 NA 
HETATM    3  C   UNL     1      -5.813   4.318  69.735  1.00  0.00    -0.018 C  
ENDROOT
BRANCH   2   4
HETATM    4  C   UNL     1      -6.032   6.608  70.564  1.00  0.00    -0.024 C  
BRANCH   4   5
HETATM    5  C   UNL     1      -7.285   7.498  70.622  1.00  0.00    -0.067 C  
BRANCH   5   6
HETATM    6  C   UNL     1      -7.545   8.197  69.278  1.00  0.00    -0.095 C  
BRANCH   6   7
HETATM    7  C   UNL     1      -9.020   8.133  68.805  1.00  0.00    -0.144 C  
HETATM    8  O   UNL     1      -9.827   7.964  70.012  1.00  0.00    -0.180 OA 
HETATM    9  N   UNL     1     -12.317  13.788  66.689  1.00  0.00    -0.400 NA 
HETATM   10  C   UNL     1     -11.399  10.957  68.557  1.00  0.00    -0.367 A  
HETATM   11  C   UNL     1     -10.919   8.902  70.045  1.00  0.00    -0.206 C  
HETATM   12  C   UNL     1     -10.673   9.827  68.916  1.00  0.00    -0.241 A  
HETATM   13  C   UNL     1     -11.723  12.850  67.024  1.00  0.00    -0.385 C  
HETATM   14  C   UNL     1      -9.560   9.407  68.197  1.00  0.00    -0.158 A  
HETATM   15  C   UNL     1     -10.987  11.688  67.438  1.00  0.00    -0.313 A  
HETATM   16  C   UNL     1      -9.854  11.280  66.715  1.00  0.00    -0.227 A  
HETATM   17  C   UNL     1      -9.129  10.143  67.100  1.00  0.00    -0.149 A  
BRANCH   7  18
HETATM   18  C   UNL     1      -9.211   6.905  67.893  1.00  0.00    -0.124 A  
HETATM   19  C   UNL     1      -8.102   6.244  67.326  1.00  0.00    -0.109 A  
HETATM   20  F   UNL     1      -9.697   3.530  65.524  1.00  0.00    -0.168 F  
HETATM   21  C   UNL     1      -9.540   4.621  66.286  1.00  0.00    -0.184 A  
HETATM   22  C   UNL     1     -10.653   5.239  66.837  1.00  0.00    -0.283 A  
HETATM   23  C   UNL     1     -10.490   6.375  67.635  1.00  0.00    -0.284 A  
HETATM   24  C   UNL     1      -8.265   5.115  66.520  1.00  0.00    -0.108 A  
ENDBRANCH   7  18
ENDBRANCH   6   7
ENDBRANCH   5   6
ENDBRANCH   4   5
ENDBRANCH   2   4
TORSDOF 5
ENDMDL
MODEL      128
REMARK 921   NORMALIZED FREE ENERGY PREDICTED BY IDOCK:   -3.62 KCAL/MOL
REMARK 922        TOTAL FREE ENERGY PREDICTED BY IDOCK:   -5.55 KCAL/MOL
REMARK 923 INTER-LIGAND FREE ENERGY PREDICTED BY IDOCK:   -4.70 KCAL/MOL
REMARK 924 INTRA-LIGAND FREE ENERGY PREDICTED BY IDOCK:   -0.86 KCAL/MOL
REMARK 927      BINDING AFFINITY PREDICTED BY RF-SCORE:    0.00 PKD
ROOT
HETATM    1  C   UNL     1      -5.843  10.631  69.625  1.00  0.00    -0.049 C  
HETATM    2  N   UNL     1      -7.265  10.341  69.831  1.00  0.00    -0.149 NA 
HETATM    3  C   UNL     1      -7.937  10.249  68.533  1.00  0.00    -0.107 C  
ENDROOT
BRANCH   2   4
HETATM    4  C   UNL     1      -7.420   9.116  70.637  1.00  0.00    -0.124 C  
BRANCH   4   5
HETATM    5  C   UNL     1      -7.803   7.882  69.802  1.00  0.00    -0.104 C  
BRANCH   5   6
HETATM    6  C   UNL     1      -8.221   6.702  70.695  1.00  0.00    -0.124 C  
BRANCH   6   7
HETATM    7  C   UNL     1      -9.562   6.041  70.286  1.00  0.00    -0.163 C  
HETATM    8  O   UNL     1     -10.540   7.124  70.204  1.00  0.00    -0.217 OA 
HETATM    9  N   UNL     1     -10.611   3.825  63.858  1.00  0.00    -0.268 NA 
HETATM   10  C   UNL     1     -10.887   5.642  66.853  1.00  0.00    -0.287 A  
HETATM   11  C   UNL     1     -11.280   7.067  68.970  1.00  0.00     0.000 C  
HETATM   12  C   UNL     1     -10.605   6.030  68.158  1.00  0.00    -0.328 A  
HETATM   13  C   UNL     1     -10.390   4.184  64.939  1.00  0.00    -0.193 C  
HETATM   14  C   UNL     1      -9.589   5.439  68.900  1.00  0.00    -0.188 A  
HETATM   15  C   UNL     1     -10.117   4.626  66.278  1.00  0.00    -0.292 A  
HETATM   16  C   UNL     1      -9.078   4.033  67.015  1.00  0.00    -0.163 A  
HETATM   17  C   UNL     1      -8.803   4.446  68.326  1.00  0.00    -0.128 A  
BRANCH   7  18
HETATM   18  C   UNL     1      -9.997   5.048  71.381  1.00  0.00    -0.259 A  
HETATM   19  C   UNL     1     -10.951   5.414  72.353  1.00  0.00    -0.298 A  
HETATM   20  F   UNL     1     -11.262   2.353  74.275  1.00  0.00    -0.212 F  
HETATM   21  C   UNL     1     -10.851   3.224  73.344  1.00  0.00    -0.208 A  
HETATM   22  C   UNL     1      -9.919   2.827  72.396  1.00  0.00    -0.235 A  
HETATM   23  C   UNL     1      -9.493   3.734  71.421  1.00  0.00    -0.225 A  
HETATM   24  C   UNL     1     -11.369   4.510  73.334  1.00  0.00    -0.376 A  
ENDBRANCH   7  18
ENDBRANCH   6   7
ENDBRANCH   5   6
ENDBRANCH   4   5
ENDBRANCH   2   4
TORSDOF 5
ENDMDL
MODEL      129
REMARK 921   NORMALIZED FREE ENERGY PREDICTED BY IDOCK:   -3.57 KCAL/MOL
REMARK 922        TOTAL FREE ENERGY PREDICTED BY IDOCK:   -5.49 KCAL/MOL
REMARK 923 INTER-LIGAND FREE ENERGY PREDICTED BY IDOCK:   -4.26 KCAL/MOL
REMARK 924 INTRA-LIGAND FREE ENERGY PREDICTED BY IDOCK:   -1.23 KCAL/MOL
REMARK 927      BINDING AFFINITY PREDICTED BY RF-SCORE:    0.00 PKD
ROOT
HETATM    1  C   UNL     1      -6.874  12.474  67.443  1.00  0.00    -0.145 C  
HETATM    2  N   UNL     1      -7.802  11.352  67.615  1.00  0.00    -0.117 NA 
HETATM    3  C   UNL     1      -9.047  11.633  66.897  1.00  0.00    -0.188 C  
ENDROOT
BRANCH   2   4
HETATM    4  C   UNL     1      -7.165  10.097  67.174  1.00  0.00    -0.090 C  
BRANCH   4   5
HETATM    5  C   UNL     1      -6.687   9.215  68.339  1.00  0.00    -0.059 C  
BRANCH   5   6
HETATM    6  C   UNL     1      -7.127   7.753  68.160  1.00  0.00    -0.085 C  
BRANCH   6   7
HETATM    7  C   UNL     1      -8.109   7.248  69.249  1.00  0.00    -0.124 C  
HETATM    8  O   UNL     1      -7.356   7.241  70.502  1.00  0.00    -0.071 OA 
HETATM    9  N   UNL     1     -13.153  11.277  71.624  1.00  0.00    -0.454 NA 
HETATM   10  C   UNL     1     -10.240   9.320  71.453  1.00  0.00    -0.371 A  
HETATM   11  C   UNL     1      -8.088   7.895  71.555  1.00  0.00    -0.108 C  
HETATM   12  C   UNL     1      -9.258   8.512  70.890  1.00  0.00    -0.213 A  
HETATM   13  C   UNL     1     -12.310  10.615  71.181  1.00  0.00    -0.400 C  
HETATM   14  C   UNL     1      -9.273   8.164  69.544  1.00  0.00    -0.158 A  
HETATM   15  C   UNL     1     -11.267   9.794  70.632  1.00  0.00    -0.402 A  
HETATM   16  C   UNL     1     -11.282   9.460  69.267  1.00  0.00     0.017 A  
HETATM   17  C   UNL     1     -10.277   8.652  68.716  1.00  0.00    -0.224 A  
BRANCH   7  18
HETATM   18  C   UNL     1      -8.546   5.809  68.914  1.00  0.00    -0.106 A  
HETATM   19  C   UNL     1      -8.070   5.157  67.757  1.00  0.00    -0.099 A  
HETATM   20  F   UNL     1      -9.627   1.895  68.050  1.00  0.00    -0.228 F  
HETATM   21  C   UNL     1      -9.281   3.159  68.326  1.00  0.00    -0.192 A  
HETATM   22  C   UNL     1      -9.759   3.765  69.479  1.00  0.00    -0.152 A  
HETATM   23  C   UNL     1      -9.396   5.082  69.770  1.00  0.00    -0.191 A  
HETATM   24  C   UNL     1      -8.442   3.844  67.460  1.00  0.00    -0.104 A  
ENDBRANCH   7  18
ENDBRANCH   6   7
ENDBRANCH   5   6
ENDBRANCH   4   5
ENDBRANCH   2   4
TORSDOF 5
ENDMDL
MODEL      130
REMARK 921   NORMALIZED FREE ENERGY PREDICTED BY IDOCK:   -3.56 KCAL/MOL
REMARK 922        TOTAL FREE ENERGY PREDICTED BY IDOCK:   -5.47 KCAL/MOL
REMARK 923 INTER-LIGAND FREE ENERGY PREDICTED BY IDOCK:   -5.04 KCAL/MOL
REMARK 924 INTRA-LIGAND FREE ENERGY PREDICTED BY IDOCK:   -0.43 KCAL/MOL
REMARK 927      BINDING AFFINITY PREDICTED BY RF-SCORE:    0.00 PKD
ROOT
HETATM    1  C   UNL     1     -12.005  15.593  63.907  1.00  0.00     0.264 C  
HETATM    2  N   UNL     1     -10.713  16.062  64.416  1.00  0.00    -0.315 NA 
HETATM    3  C   UNL     1     -10.912  17.277  65.209  1.00  0.00     0.091 C  
ENDROOT
BRANCH   2   4
HETATM    4  C   UNL     1     -10.051  14.989  65.180  1.00  0.00    -0.315 C  
BRANCH   4   5
HETATM    5  C   UNL     1     -10.902  13.713  65.300  1.00  0.00    -0.324 C  
BRANCH   5   6
HETATM    6  C   UNL     1     -11.606  13.627  66.664  1.00  0.00    -0.391 C  
BRANCH   6   7
HETATM    7  C   UNL     1     -10.868  12.747  67.705  1.00  0.00    -0.228 C  
HETATM    8  O   UNL     1     -11.842  12.459  68.756  1.00  0.00    -0.314 OA 
HETATM    9  N   UNL     1      -9.451   6.143  66.401  1.00  0.00    -0.158 NA 
HETATM   10  C   UNL     1     -10.802   9.050  67.841  1.00  0.00    -0.118 A  
HETATM   11  C   UNL     1     -11.875  11.054  69.066  1.00  0.00    -0.329 C  
HETATM   12  C   UNL     1     -11.036  10.407  68.032  1.00  0.00    -0.359 A  
HETATM   13  C   UNL     1      -9.680   7.267  66.577  1.00  0.00    -0.140 C  
HETATM   14  C   UNL     1     -10.461  11.376  67.219  1.00  0.00    -0.241 A  
HETATM   15  C   UNL     1      -9.962   8.658  66.794  1.00  0.00    -0.343 A  
HETATM   16  C   UNL     1      -9.388   9.630  65.957  1.00  0.00    -0.263 A  
HETATM   17  C   UNL     1      -9.645  10.993  66.160  1.00  0.00    -0.240 A  
BRANCH   7  18
HETATM   18  C   UNL     1      -9.695  13.544  68.307  1.00  0.00    -0.224 A  
HETATM   19  C   UNL     1      -8.373  13.056  68.234  1.00  0.00    -0.158 A  
HETATM   20  F   UNL     1      -6.506  15.728  69.825  1.00  0.00    -0.157 F  
HETATM   21  C   UNL     1      -7.535  15.022  69.338  1.00  0.00    -0.196 A  
HETATM   22  C   UNL     1      -8.820  15.538  69.417  1.00  0.00    -0.257 A  
HETATM   23  C   UNL     1      -9.894  14.803  68.906  1.00  0.00    -0.222 A  
HETATM   24  C   UNL     1      -7.301  13.786  68.754  1.00  0.00    -0.103 A  
ENDBRANCH   7  18
ENDBRANCH   6   7
ENDBRANCH   5   6
ENDBRANCH   4   5
ENDBRANCH   2   4
TORSDOF 5
ENDMDL
MODEL      131
REMARK 921   NORMALIZED FREE ENERGY PREDICTED BY IDOCK:   -3.54 KCAL/MOL
REMARK 922        TOTAL FREE ENERGY PREDICTED BY IDOCK:   -5.45 KCAL/MOL
REMARK 923 INTER-LIGAND FREE ENERGY PREDICTED BY IDOCK:   -4.66 KCAL/MOL
REMARK 924 INTRA-LIGAND FREE ENERGY PREDICTED BY IDOCK:   -0.79 KCAL/MOL
REMARK 927      BINDING AFFINITY PREDICTED BY RF-SCORE:    0.00 PKD
ROOT
HETATM    1  C   UNL     1      -5.428  10.592  68.787  1.00  0.00    -0.041 C  
HETATM    2  N   UNL     1      -6.798  10.168  69.094  1.00  0.00    -0.055 NA 
HETATM    3  C   UNL     1      -7.575  10.093  67.855  1.00  0.00    -0.089 C  
ENDROOT
BRANCH   2   4
HETATM    4  C   UNL     1      -6.779   8.891  69.829  1.00  0.00    -0.045 C  
BRANCH   4   5
HETATM    5  C   UNL     1      -7.303   7.704  69.002  1.00  0.00    -0.086 C  
BRANCH   5   6
HETATM    6  C   UNL     1      -7.538   6.463  69.878  1.00  0.00    -0.100 C  
BRANCH   6   7
HETATM    7  C   UNL     1      -8.963   5.865  69.762  1.00  0.00    -0.131 C  
HETATM    8  O   UNL     1      -8.990   4.704  70.650  1.00  0.00    -0.110 OA 
HETATM    9  N   UNL     1     -14.360   8.962  72.696  1.00  0.00    -0.584 NA 
HETATM   10  C   UNL     1     -11.867   6.606  71.934  1.00  0.00    -0.375 A  
HETATM   11  C   UNL     1     -10.146   4.729  71.507  1.00  0.00    -0.190 C  
HETATM   12  C   UNL     1     -10.764   6.056  71.290  1.00  0.00    -0.320 A  
HETATM   13  C   UNL     1     -13.433   8.482  72.190  1.00  0.00    -0.358 C  
HETATM   14  C   UNL     1     -10.075   6.739  70.294  1.00  0.00    -0.196 A  
HETATM   15  C   UNL     1     -12.287   7.887  71.562  1.00  0.00    -0.340 A  
HETATM   16  C   UNL     1     -11.587   8.591  70.568  1.00  0.00    -0.145 A  
HETATM   17  C   UNL     1     -10.471   8.023  69.938  1.00  0.00    -0.233 A  
BRANCH   7  18
HETATM   18  C   UNL     1      -9.205   5.400  68.314  1.00  0.00    -0.125 A  
HETATM   19  C   UNL     1      -8.280   4.563  67.657  1.00  0.00    -0.099 A  
HETATM   20  F   UNL     1      -9.891   4.047  64.449  1.00  0.00    -0.151 F  
HETATM   21  C   UNL     1      -9.668   4.486  65.694  1.00  0.00    -0.199 A  
HETATM   22  C   UNL     1     -10.606   5.299  66.314  1.00  0.00    -0.308 A  
HETATM   23  C   UNL     1     -10.376   5.754  67.615  1.00  0.00    -0.270 A  
HETATM   24  C   UNL     1      -8.505   4.116  66.352  1.00  0.00    -0.108 A  
ENDBRANCH   7  18
ENDBRANCH   6   7
ENDBRANCH   5   6
ENDBRANCH   4   5
ENDBRANCH   2   4
TORSDOF 5
ENDMDL
MODEL      132
REMARK 921   NORMALIZED FREE ENERGY PREDICTED BY IDOCK:   -3.47 KCAL/MOL
REMARK 922        TOTAL FREE ENERGY PREDICTED BY IDOCK:   -5.36 KCAL/MOL
REMARK 923 INTER-LIGAND FREE ENERGY PREDICTED BY IDOCK:   -5.20 KCAL/MOL
REMARK 924 INTRA-LIGAND FREE ENERGY PREDICTED BY IDOCK:   -0.16 KCAL/MOL
REMARK 927      BINDING AFFINITY PREDICTED BY RF-SCORE:    0.00 PKD
ROOT
HETATM    1  C   UNL     1      -7.967  19.221  68.044  1.00  0.00    -0.304 C  
HETATM    2  N   UNL     1      -9.255  18.555  67.828  1.00  0.00    -0.278 NA 
HETATM    3  C   UNL     1      -9.552  18.519  66.395  1.00  0.00    -0.316 C  
ENDROOT
BRANCH   2   4
HETATM    4  C   UNL     1      -9.238  17.212  68.437  1.00  0.00    -0.266 C  
BRANCH   4   5
HETATM    5  C   UNL     1      -9.517  16.084  67.430  1.00  0.00    -0.220 C  
BRANCH   5   6
HETATM    6  C   UNL     1      -8.877  14.758  67.873  1.00  0.00    -0.167 C  
BRANCH   6   7
HETATM    7  C   UNL     1      -9.797  13.522  67.706  1.00  0.00    -0.233 C  
HETATM    8  O   UNL     1     -10.384  13.629  66.372  1.00  0.00    -0.276 OA 
HETATM    9  N   UNL     1      -7.163   7.250  66.679  1.00  0.00    -0.078 NA 
HETATM   10  C   UNL     1      -8.895  10.268  66.191  1.00  0.00    -0.166 A  
HETATM   11  C   UNL     1     -10.258  12.393  65.645  1.00  0.00    -0.262 C  
HETATM   12  C   UNL     1      -9.383  11.538  66.479  1.00  0.00    -0.210 A  
HETATM   13  C   UNL     1      -7.573   8.317  66.882  1.00  0.00    -0.092 C  
HETATM   14  C   UNL     1      -9.087  12.188  67.671  1.00  0.00    -0.181 A  
HETATM   15  C   UNL     1      -8.080   9.636  67.135  1.00  0.00    -0.110 A  
HETATM   16  C   UNL     1      -7.763  10.292  68.336  1.00  0.00    -0.093 A  
HETATM   17  C   UNL     1      -8.257  11.577  68.603  1.00  0.00    -0.124 A  
BRANCH   7  18
HETATM   18  C   UNL     1     -10.921  13.577  68.759  1.00  0.00    -0.291 A  
HETATM   19  C   UNL     1     -11.569  14.791  69.065  1.00  0.00    -0.324 A  
HETATM   20  F   UNL     1     -14.025  13.726  71.512  1.00  0.00    -0.384 F  
HETATM   21  C   UNL     1     -13.021  13.679  70.627  1.00  0.00    -0.065 A  
HETATM   22  C   UNL     1     -12.414  12.465  70.341  1.00  0.00    -0.214 A  
HETATM   23  C   UNL     1     -11.369  12.414  69.414  1.00  0.00    -0.286 A  
HETATM   24  C   UNL     1     -12.606  14.844  70.000  1.00  0.00    -0.260 A  
ENDBRANCH   7  18
ENDBRANCH   6   7
ENDBRANCH   5   6
ENDBRANCH   4   5
ENDBRANCH   2   4
TORSDOF 5
ENDMDL
MODEL      133
REMARK 921   NORMALIZED FREE ENERGY PREDICTED BY IDOCK:   -3.39 KCAL/MOL
REMARK 922        TOTAL FREE ENERGY PREDICTED BY IDOCK:   -5.25 KCAL/MOL
REMARK 923 INTER-LIGAND FREE ENERGY PREDICTED BY IDOCK:   -4.44 KCAL/MOL
REMARK 924 INTRA-LIGAND FREE ENERGY PREDICTED BY IDOCK:   -0.81 KCAL/MOL
REMARK 927      BINDING AFFINITY PREDICTED BY RF-SCORE:    0.00 PKD
ROOT
HETATM    1  C   UNL     1     -12.508   6.766  70.882  1.00  0.00    -0.213 C  
HETATM    2  N   UNL     1     -11.118   6.365  70.644  1.00  0.00    -0.294 NA 
HETATM    3  C   UNL     1     -11.016   5.704  69.341  1.00  0.00    -0.174 C  
ENDROOT
BRANCH   2   4
HETATM    4  C   UNL     1     -10.228   7.535  70.756  1.00  0.00    -0.194 C  
BRANCH   4   5
HETATM    5  C   UNL     1     -10.987   8.869  70.859  1.00  0.00    -0.325 C  
BRANCH   5   6
HETATM    6  C   UNL     1     -11.208   9.503  69.476  1.00  0.00    -0.105 C  
BRANCH   6   7
HETATM    7  C   UNL     1      -9.972  10.254  68.917  1.00  0.00    -0.201 C  
HETATM    8  O   UNL     1      -9.059  10.428  70.044  1.00  0.00     0.007 OA 
HETATM    9  N   UNL     1      -5.372   7.048  64.932  1.00  0.00    -0.027 NA 
HETATM   10  C   UNL     1      -6.847   8.745  67.632  1.00  0.00    -0.071 A  
HETATM   11  C   UNL     1      -7.722  10.018  69.702  1.00  0.00    -0.156 C  
HETATM   12  C   UNL     1      -7.841   9.374  68.373  1.00  0.00    -0.090 A  
HETATM   13  C   UNL     1      -6.182   7.565  65.583  1.00  0.00    -0.038 C  
HETATM   14  C   UNL     1      -9.147   9.484  67.913  1.00  0.00    -0.131 A  
HETATM   15  C   UNL     1      -7.184   8.206  66.387  1.00  0.00    -0.079 A  
HETATM   16  C   UNL     1      -8.506   8.298  65.919  1.00  0.00    -0.151 A  
HETATM   17  C   UNL     1      -9.496   8.928  66.687  1.00  0.00    -0.261 A  
BRANCH   7  18
HETATM   18  C   UNL     1     -10.408  11.639  68.400  1.00  0.00    -0.215 A  
HETATM   19  C   UNL     1      -9.466  12.543  67.866  1.00  0.00    -0.196 A  
HETATM   20  F   UNL     1     -11.576  15.331  66.903  1.00  0.00    -0.314 F  
HETATM   21  C   UNL     1     -11.199  14.141  67.390  1.00  0.00    -0.318 A  
HETATM   22  C   UNL     1     -12.154  13.272  67.897  1.00  0.00    -0.270 A  
HETATM   23  C   UNL     1     -11.761  12.029  68.400  1.00  0.00    -0.390 A  
HETATM   24  C   UNL     1      -9.858  13.790  67.372  1.00  0.00    -0.238 A  
ENDBRANCH   7  18
ENDBRANCH   6   7
ENDBRANCH   5   6
ENDBRANCH   4   5
ENDBRANCH   2   4
TORSDOF 5
ENDMDL
MODEL      134
REMARK 921   NORMALIZED FREE ENERGY PREDICTED BY IDOCK:   -3.38 KCAL/MOL
REMARK 922        TOTAL FREE ENERGY PREDICTED BY IDOCK:   -5.25 KCAL/MOL
REMARK 923 INTER-LIGAND FREE ENERGY PREDICTED BY IDOCK:   -4.03 KCAL/MOL
REMARK 924 INTRA-LIGAND FREE ENERGY PREDICTED BY IDOCK:   -1.22 KCAL/MOL
REMARK 927      BINDING AFFINITY PREDICTED BY RF-SCORE:    0.00 PKD
ROOT
HETATM    1  C   UNL     1      -7.197   2.457  67.876  1.00  0.00    -0.048 C  
HETATM    2  N   UNL     1      -5.952   2.816  67.190  1.00  0.00    -0.023 NA 
HETATM    3  C   UNL     1      -6.099   2.574  65.753  1.00  0.00    -0.023 C  
ENDROOT
BRANCH   2   4
HETATM    4  C   UNL     1      -5.590   4.212  67.496  1.00  0.00    -0.021 C  
BRANCH   4   5
HETATM    5  C   UNL     1      -6.765   5.038  68.045  1.00  0.00    -0.055 C  
BRANCH   5   6
HETATM    6  C   UNL     1      -7.158   6.173  67.085  1.00  0.00    -0.070 C  
BRANCH   6   7
HETATM    7  C   UNL     1      -8.682   6.286  66.825  1.00  0.00    -0.117 C  
HETATM    8  O   UNL     1      -9.337   5.785  68.031  1.00  0.00    -0.109 OA 
HETATM    9  N   UNL     1     -11.857  12.388  66.929  1.00  0.00    -0.557 NA 
HETATM   10  C   UNL     1     -10.890   9.109  67.745  1.00  0.00    -0.159 A  
HETATM   11  C   UNL     1     -10.355   6.695  68.489  1.00  0.00    -0.192 C  
HETATM   12  C   UNL     1     -10.197   7.908  67.654  1.00  0.00    -0.289 A  
HETATM   13  C   UNL     1     -11.285  11.379  66.891  1.00  0.00    -0.264 C  
HETATM   14  C   UNL     1      -9.213   7.695  66.696  1.00  0.00    -0.211 A  
HETATM   15  C   UNL     1     -10.578  10.130  66.842  1.00  0.00    -0.267 A  
HETATM   16  C   UNL     1      -9.574   9.929  65.879  1.00  0.00    -0.300 A  
HETATM   17  C   UNL     1      -8.879   8.713  65.811  1.00  0.00    -0.231 A  
BRANCH   7  18
HETATM   18  C   UNL     1      -9.064   5.389  65.632  1.00  0.00    -0.148 A  
HETATM   19  C   UNL     1     -10.231   4.597  65.664  1.00  0.00    -0.255 A  
HETATM   20  F   UNL     1     -10.168   3.048  62.385  1.00  0.00    -0.094 F  
HETATM   21  C   UNL     1      -9.810   3.800  63.434  1.00  0.00    -0.155 A  
HETATM   22  C   UNL     1      -8.662   4.576  63.363  1.00  0.00    -0.131 A  
HETATM   23  C   UNL     1      -8.290   5.364  64.456  1.00  0.00    -0.138 A  
HETATM   24  C   UNL     1     -10.597   3.801  64.576  1.00  0.00    -0.168 A  
ENDBRANCH   7  18
ENDBRANCH   6   7
ENDBRANCH   5   6
ENDBRANCH   4   5
ENDBRANCH   2   4
TORSDOF 5
ENDMDL
MODEL      135
REMARK 921   NORMALIZED FREE ENERGY PREDICTED BY IDOCK:   -3.38 KCAL/MOL
REMARK 922        TOTAL FREE ENERGY PREDICTED BY IDOCK:   -5.24 KCAL/MOL
REMARK 923 INTER-LIGAND FREE ENERGY PREDICTED BY IDOCK:   -4.40 KCAL/MOL
REMARK 924 INTRA-LIGAND FREE ENERGY PREDICTED BY IDOCK:   -0.84 KCAL/MOL
REMARK 927      BINDING AFFINITY PREDICTED BY RF-SCORE:    0.00 PKD
ROOT
HETATM    1  C   UNL     1      -7.940   9.372  64.680  1.00  0.00    -0.124 C  
HETATM    2  N   UNL     1      -8.258  10.132  63.467  1.00  0.00    -0.160 NA 
HETATM    3  C   UNL     1      -8.386   9.214  62.334  1.00  0.00    -0.179 C  
ENDROOT
BRANCH   2   4
HETATM    4  C   UNL     1      -9.473  10.940  63.681  1.00  0.00    -0.285 C  
BRANCH   4   5
HETATM    5  C   UNL     1     -10.036  10.826  65.108  1.00  0.00    -0.363 C  
BRANCH   5   6
HETATM    6  C   UNL     1     -10.595  12.169  65.605  1.00  0.00    -0.297 C  
BRANCH   6   7
HETATM    7  C   UNL     1      -9.974  12.661  66.938  1.00  0.00    -0.230 C  
HETATM    8  O   UNL     1      -8.802  11.820  67.174  1.00  0.00    -0.161 OA 
HETATM    9  N   UNL     1      -6.507  18.593  67.261  1.00  0.00    -0.194 NA 
HETATM   10  C   UNL     1      -7.281  15.167  67.343  1.00  0.00    -0.231 A  
HETATM   11  C   UNL     1      -7.645  12.615  67.492  1.00  0.00    -0.160 C  
HETATM   12  C   UNL     1      -8.056  14.016  67.252  1.00  0.00    -0.174 A  
HETATM   13  C   UNL     1      -7.121  17.613  67.177  1.00  0.00    -0.173 C  
HETATM   14  C   UNL     1      -9.402  14.059  66.907  1.00  0.00    -0.266 A  
HETATM   15  C   UNL     1      -7.883  16.400  67.075  1.00  0.00    -0.247 A  
HETATM   16  C   UNL     1      -9.240  16.452  66.711  1.00  0.00    -0.259 A  
HETATM   17  C   UNL     1     -10.001  15.278  66.614  1.00  0.00    -0.264 A  
BRANCH   7  18
HETATM   18  C   UNL     1     -10.986  12.450  68.081  1.00  0.00    -0.263 A  
HETATM   19  C   UNL     1     -11.437  13.537  68.859  1.00  0.00    -0.348 A  
HETATM   20  F   UNL     1     -13.793  11.922  71.093  1.00  0.00     0.310 F  
HETATM   21  C   UNL     1     -12.885  12.092  70.124  1.00  0.00     0.382 A  
HETATM   22  C   UNL     1     -12.472  11.002  69.371  1.00  0.00    -0.075 A  
HETATM   23  C   UNL     1     -11.527  11.180  68.356  1.00  0.00    -0.377 A  
HETATM   24  C   UNL     1     -12.374  13.358  69.880  1.00  0.00    -0.259 A  
ENDBRANCH   7  18
ENDBRANCH   6   7
ENDBRANCH   5   6
ENDBRANCH   4   5
ENDBRANCH   2   4
TORSDOF 5
ENDMDL
MODEL      136
REMARK 921   NORMALIZED FREE ENERGY PREDICTED BY IDOCK:   -3.37 KCAL/MOL
REMARK 922        TOTAL FREE ENERGY PREDICTED BY IDOCK:   -5.22 KCAL/MOL
REMARK 923 INTER-LIGAND FREE ENERGY PREDICTED BY IDOCK:   -4.52 KCAL/MOL
REMARK 924 INTRA-LIGAND FREE ENERGY PREDICTED BY IDOCK:   -0.71 KCAL/MOL
REMARK 927      BINDING AFFINITY PREDICTED BY RF-SCORE:    0.00 PKD
ROOT
HETATM    1  C   UNL     1      -5.522  10.521  65.167  1.00  0.00    -0.146 C  
HETATM    2  N   UNL     1      -6.567   9.894  65.981  1.00  0.00    -0.081 NA 
HETATM    3  C   UNL     1      -6.900   8.582  65.423  1.00  0.00    -0.070 C  
ENDROOT
BRANCH   2   4
HETATM    4  C   UNL     1      -6.134   9.818  67.388  1.00  0.00    -0.059 C  
BRANCH   4   5
HETATM    5  C   UNL     1      -7.058  10.583  68.352  1.00  0.00    -0.078 C  
BRANCH   5   6
HETATM    6  C   UNL     1      -8.374  10.990  67.671  1.00  0.00    -0.117 C  
BRANCH   6   7
HETATM    7  C   UNL     1      -9.600  10.144  68.102  1.00  0.00    -0.139 C  
HETATM    8  O   UNL     1     -10.224   9.676  66.866  1.00  0.00    -0.216 OA 
HETATM    9  N   UNL     1      -8.808   3.854  70.772  1.00  0.00    -0.080 NA 
HETATM   10  C   UNL     1      -9.701   6.481  68.616  1.00  0.00    -0.128 A  
HETATM   11  C   UNL     1     -10.482   8.260  66.915  1.00  0.00    -0.295 C  
HETATM   12  C   UNL     1      -9.813   7.785  68.147  1.00  0.00    -0.190 A  
HETATM   13  C   UNL     1      -8.904   4.929  70.345  1.00  0.00    -0.104 C  
HETATM   14  C   UNL     1      -9.276   8.865  68.837  1.00  0.00    -0.140 A  
HETATM   15  C   UNL     1      -9.024   6.259  69.819  1.00  0.00    -0.140 A  
HETATM   16  C   UNL     1      -8.464   7.343  70.516  1.00  0.00    -0.137 A  
HETATM   17  C   UNL     1      -8.578   8.650  70.021  1.00  0.00    -0.132 A  
BRANCH   7  18
HETATM   18  C   UNL     1     -10.596  11.040  68.864  1.00  0.00    -0.239 A  
HETATM   19  C   UNL     1     -11.366  10.525  69.927  1.00  0.00    -0.380 A  
HETATM   20  F   UNL     1     -13.204  13.462  71.001  1.00  0.00    -0.331 F  
HETATM   21  C   UNL     1     -12.365  12.680  70.309  1.00  0.00    -0.195 A  
HETATM   22  C   UNL     1     -11.614  13.222  69.277  1.00  0.00    -0.370 A  
HETATM   23  C   UNL     1     -10.736  12.407  68.557  1.00  0.00    -0.262 A  
HETATM   24  C   UNL     1     -12.252  11.338  70.640  1.00  0.00    -0.489 A  
ENDBRANCH   7  18
ENDBRANCH   6   7
ENDBRANCH   5   6
ENDBRANCH   4   5
ENDBRANCH   2   4
TORSDOF 5
ENDMDL
MODEL      137
REMARK 921   NORMALIZED FREE ENERGY PREDICTED BY IDOCK:   -3.32 KCAL/MOL
REMARK 922        TOTAL FREE ENERGY PREDICTED BY IDOCK:   -5.17 KCAL/MOL
REMARK 923 INTER-LIGAND FREE ENERGY PREDICTED BY IDOCK:   -4.26 KCAL/MOL
REMARK 924 INTRA-LIGAND FREE ENERGY PREDICTED BY IDOCK:   -0.91 KCAL/MOL
REMARK 927      BINDING AFFINITY PREDICTED BY RF-SCORE:    0.00 PKD
ROOT
HETATM    1  C   UNL     1      -9.754  18.089  66.970  1.00  0.00    -0.303 C  
HETATM    2  N   UNL     1      -8.533  17.970  66.167  1.00  0.00    -0.488 NA 
HETATM    3  C   UNL     1      -7.498  18.846  66.719  1.00  0.00    -0.223 C  
ENDROOT
BRANCH   2   4
HETATM    4  C   UNL     1      -8.106  16.560  66.102  1.00  0.00    -0.207 C  
BRANCH   4   5
HETATM    5  C   UNL     1      -8.686  15.696  67.234  1.00  0.00    -0.213 C  
BRANCH   5   6
HETATM    6  C   UNL     1      -7.883  14.398  67.424  1.00  0.00    -0.211 C  
BRANCH   6   7
HETATM    7  C   UNL     1      -8.757  13.122  67.538  1.00  0.00    -0.201 C  
HETATM    8  O   UNL     1      -9.696  13.370  68.630  1.00  0.00    -0.183 OA 
HETATM    9  N   UNL     1     -13.629  11.730  62.885  1.00  0.00     0.312 NA 
HETATM   10  C   UNL     1     -12.025  12.514  65.912  1.00  0.00    -0.472 A  
HETATM   11  C   UNL     1     -11.045  13.056  68.239  1.00  0.00    -0.263 C  
HETATM   12  C   UNL     1     -10.978  12.792  66.784  1.00  0.00    -0.301 A  
HETATM   13  C   UNL     1     -12.780  11.981  63.636  1.00  0.00    -0.431 C  
HETATM   14  C   UNL     1      -9.657  12.848  66.356  1.00  0.00    -0.252 A  
HETATM   15  C   UNL     1     -11.729  12.289  64.564  1.00  0.00    -0.421 A  
HETATM   16  C   UNL     1     -10.398  12.359  64.119  1.00  0.00    -0.409 A  
HETATM   17  C   UNL     1      -9.358  12.651  65.013  1.00  0.00     0.438 A  
BRANCH   7  18
HETATM   18  C   UNL     1      -7.862  11.922  67.902  1.00  0.00    -0.138 A  
HETATM   19  C   UNL     1      -7.856  11.393  69.209  1.00  0.00     0.098 A  
HETATM   20  F   UNL     1      -5.540   8.621  68.878  1.00  0.00    -0.036 F  
HETATM   21  C   UNL     1      -6.286   9.688  68.564  1.00  0.00    -0.047 A  
HETATM   22  C   UNL     1      -6.276  10.175  67.265  1.00  0.00    -0.059 A  
HETATM   23  C   UNL     1      -7.058  11.286  66.936  1.00  0.00    -0.139 A  
HETATM   24  C   UNL     1      -7.066  10.289  69.541  1.00  0.00    -0.107 A  
ENDBRANCH   7  18
ENDBRANCH   6   7
ENDBRANCH   5   6
ENDBRANCH   4   5
ENDBRANCH   2   4
TORSDOF 5
ENDMDL
MODEL      138
REMARK 921   NORMALIZED FREE ENERGY PREDICTED BY IDOCK:   -3.16 KCAL/MOL
REMARK 922        TOTAL FREE ENERGY PREDICTED BY IDOCK:   -4.95 KCAL/MOL
REMARK 923 INTER-LIGAND FREE ENERGY PREDICTED BY IDOCK:   -3.92 KCAL/MOL
REMARK 924 INTRA-LIGAND FREE ENERGY PREDICTED BY IDOCK:   -1.04 KCAL/MOL
REMARK 927      BINDING AFFINITY PREDICTED BY RF-SCORE:    0.00 PKD
ROOT
HETATM    1  C   UNL     1      -6.371   3.746  65.349  1.00  0.00    -0.032 C  
HETATM    2  N   UNL     1      -7.625   3.176  64.846  1.00  0.00    -0.076 NA 
HETATM    3  C   UNL     1      -7.904   1.919  65.543  1.00  0.00    -0.073 C  
ENDROOT
BRANCH   2   4
HETATM    4  C   UNL     1      -8.717   4.157  64.986  1.00  0.00    -0.124 C  
BRANCH   4   5
HETATM    5  C   UNL     1      -8.249   5.516  65.532  1.00  0.00    -0.130 C  
BRANCH   5   6
HETATM    6  C   UNL     1      -9.349   6.205  66.356  1.00  0.00    -0.173 C  
BRANCH   6   7
HETATM    7  C   UNL     1      -8.816   7.186  67.431  1.00  0.00    -0.119 C  
HETATM    8  O   UNL     1      -7.390   7.352  67.158  1.00  0.00    -0.092 OA 
HETATM    9  N   UNL     1     -10.253  13.907  67.122  1.00  0.00    -0.256 NA 
HETATM   10  C   UNL     1      -8.501  10.861  67.123  1.00  0.00    -0.128 A  
HETATM   11  C   UNL     1      -7.022   8.744  67.132  1.00  0.00    -0.071 C  
HETATM   12  C   UNL     1      -8.301   9.487  67.192  1.00  0.00    -0.131 A  
HETATM   13  C   UNL     1     -10.054  12.764  67.159  1.00  0.00    -0.234 C  
HETATM   14  C   UNL     1      -9.356   8.595  67.344  1.00  0.00    -0.174 A  
HETATM   15  C   UNL     1      -9.808  11.351  67.207  1.00  0.00    -0.209 A  
HETATM   16  C   UNL     1     -10.883  10.456  67.345  1.00  0.00    -0.344 A  
HETATM   17  C   UNL     1     -10.660   9.072  67.402  1.00  0.00    -0.309 A  
BRANCH   7  18
HETATM   18  C   UNL     1      -8.995   6.560  68.827  1.00  0.00    -0.124 A  
HETATM   19  C   UNL     1      -9.973   5.571  69.059  1.00  0.00    -0.244 A  
HETATM   20  F   UNL     1      -9.418   4.781  72.555  1.00  0.00    -0.142 F  
HETATM   21  C   UNL     1      -9.284   5.357  71.353  1.00  0.00    -0.146 A  
HETATM   22  C   UNL     1      -8.303   6.318  71.158  1.00  0.00    -0.124 A  
HETATM   23  C   UNL     1      -8.160   6.917  69.903  1.00  0.00    -0.125 A  
HETATM   24  C   UNL     1     -10.124   4.980  70.316  1.00  0.00    -0.339 A  
ENDBRANCH   7  18
ENDBRANCH   6   7
ENDBRANCH   5   6
ENDBRANCH   4   5
ENDBRANCH   2   4
TORSDOF 5
ENDMDL
MODEL      139
REMARK 921   NORMALIZED FREE ENERGY PREDICTED BY IDOCK:   -3.14 KCAL/MOL
REMARK 922        TOTAL FREE ENERGY PREDICTED BY IDOCK:   -4.93 KCAL/MOL
REMARK 923 INTER-LIGAND FREE ENERGY PREDICTED BY IDOCK:   -4.11 KCAL/MOL
REMARK 924 INTRA-LIGAND FREE ENERGY PREDICTED BY IDOCK:   -0.82 KCAL/MOL
REMARK 927      BINDING AFFINITY PREDICTED BY RF-SCORE:    0.00 PKD
ROOT
HETATM    1  C   UNL     1      -5.260  19.739  70.195  1.00  0.00    -0.204 C  
HETATM    2  N   UNL     1      -6.174  18.745  69.625  1.00  0.00    -0.265 NA 
HETATM    3  C   UNL     1      -7.396  19.410  69.168  1.00  0.00    -0.329 C  
ENDROOT
BRANCH   2   4
HETATM    4  C   UNL     1      -5.499  17.997  68.549  1.00  0.00    -0.165 C  
BRANCH   4   5
HETATM    5  C   UNL     1      -5.371  16.492  68.841  1.00  0.00    -0.122 C  
BRANCH   5   6
HETATM    6  C   UNL     1      -6.246  15.654  67.896  1.00  0.00    -0.163 C  
BRANCH   6   7
HETATM    7  C   UNL     1      -7.364  14.852  68.611  1.00  0.00    -0.120 C  
HETATM    8  O   UNL     1      -7.864  15.715  69.679  1.00  0.00    -0.203 OA 
HETATM    9  N   UNL     1     -13.516  13.943  65.670  1.00  0.00    -0.407 NA 
HETATM   10  C   UNL     1     -10.992  14.967  67.889  1.00  0.00    -0.291 A  
HETATM   11  C   UNL     1      -9.302  15.789  69.660  1.00  0.00    -0.176 C  
HETATM   12  C   UNL     1      -9.711  15.106  68.412  1.00  0.00    -0.212 A  
HETATM   13  C   UNL     1     -12.458  14.091  66.124  1.00  0.00    -0.430 C  
HETATM   14  C   UNL     1      -8.594  14.575  67.778  1.00  0.00    -0.176 A  
HETATM   15  C   UNL     1     -11.150  14.272  66.686  1.00  0.00    -0.321 A  
HETATM   16  C   UNL     1     -10.025  13.745  66.030  1.00  0.00    -0.319 A  
HETATM   17  C   UNL     1      -8.740  13.905  66.569  1.00  0.00     0.066 A  
BRANCH   7  18
HETATM   18  C   UNL     1      -6.759  13.578  69.232  1.00  0.00    -0.080 A  
HETATM   19  C   UNL     1      -6.270  13.577  70.555  1.00  0.00     0.005 A  
HETATM   20  F   UNL     1      -5.228  10.128  70.960  1.00  0.00    -0.047 F  
HETATM   21  C   UNL     1      -5.718  11.242  70.402  1.00  0.00    -0.146 A  
HETATM   22  C   UNL     1      -6.202  11.202  69.102  1.00  0.00    -0.055 A  
HETATM   23  C   UNL     1      -6.718  12.363  68.520  1.00  0.00    -0.077 A  
HETATM   24  C   UNL     1      -5.745  12.419  71.133  1.00  0.00     0.131 A  
ENDBRANCH   7  18
ENDBRANCH   6   7
ENDBRANCH   5   6
ENDBRANCH   4   5
ENDBRANCH   2   4
TORSDOF 5
ENDMDL
MODEL      140
REMARK 921   NORMALIZED FREE ENERGY PREDICTED BY IDOCK:   -3.13 KCAL/MOL
REMARK 922        TOTAL FREE ENERGY PREDICTED BY IDOCK:   -4.92 KCAL/MOL
REMARK 923 INTER-LIGAND FREE ENERGY PREDICTED BY IDOCK:   -4.68 KCAL/MOL
REMARK 924 INTRA-LIGAND FREE ENERGY PREDICTED BY IDOCK:   -0.25 KCAL/MOL
REMARK 927      BINDING AFFINITY PREDICTED BY RF-SCORE:    0.00 PKD
ROOT
HETATM    1  C   UNL     1      -6.839   9.808  66.191  1.00  0.00    -0.090 C  
HETATM    2  N   UNL     1      -7.659   9.150  67.213  1.00  0.00    -0.088 NA 
HETATM    3  C   UNL     1      -7.660   7.704  66.981  1.00  0.00    -0.103 C  
ENDROOT
BRANCH   2   4
HETATM    4  C   UNL     1      -7.174   9.508  68.558  1.00  0.00    -0.071 C  
BRANCH   4   5
HETATM    5  C   UNL     1      -8.298   9.619  69.601  1.00  0.00    -0.173 C  
BRANCH   5   6
HETATM    6  C   UNL     1      -8.911  11.029  69.626  1.00  0.00     0.540 C  
BRANCH   6   7
HETATM    7  C   UNL     1     -10.434  11.064  69.336  1.00  0.00    -0.142 C  
HETATM    8  O   UNL     1     -10.954  12.235  70.040  1.00  0.00     0.241 OA 
HETATM    9  N   UNL     1     -12.830  12.980  63.179  1.00  0.00    -0.365 NA 
HETATM   10  C   UNL     1     -12.136  12.918  66.623  1.00  0.00    -0.360 A  
HETATM   11  C   UNL     1     -11.778  13.040  69.178  1.00  0.00    -0.326 C  
HETATM   12  C   UNL     1     -11.608  12.461  67.825  1.00  0.00    -0.413 A  
HETATM   13  C   UNL     1     -12.391  12.635  64.196  1.00  0.00    -0.436 C  
HETATM   14  C   UNL     1     -10.811  11.325  67.897  1.00  0.00    -0.278 A  
HETATM   15  C   UNL     1     -11.848  12.206  65.454  1.00  0.00    -0.357 A  
HETATM   16  C   UNL     1     -11.030  11.065  65.514  1.00  0.00    -0.086 A  
HETATM   17  C   UNL     1     -10.499  10.627  66.736  1.00  0.00    -0.303 A  
BRANCH   7  18
HETATM   18  C   UNL     1     -11.092   9.795  69.910  1.00  0.00    -0.293 A  
HETATM   19  C   UNL     1     -10.838   8.528  69.345  1.00  0.00    -0.103 A  
HETATM   20  F   UNL     1     -12.770   6.350  71.508  1.00  0.00    -0.344 F  
HETATM   21  C   UNL     1     -12.231   7.461  70.990  1.00  0.00    -0.282 A  
HETATM   22  C   UNL     1     -12.494   8.690  71.579  1.00  0.00    -0.364 A  
HETATM   23  C   UNL     1     -11.929   9.850  71.041  1.00  0.00    -0.456 A  
HETATM   24  C   UNL     1     -11.411   7.369  69.876  1.00  0.00    -0.026 A  
ENDBRANCH   7  18
ENDBRANCH   6   7
ENDBRANCH   5   6
ENDBRANCH   4   5
ENDBRANCH   2   4
TORSDOF 5
ENDMDL
MODEL      141
REMARK 921   NORMALIZED FREE ENERGY PREDICTED BY IDOCK:   -3.12 KCAL/MOL
REMARK 922        TOTAL FREE ENERGY PREDICTED BY IDOCK:   -4.90 KCAL/MOL
REMARK 923 INTER-LIGAND FREE ENERGY PREDICTED BY IDOCK:   -3.69 KCAL/MOL
REMARK 924 INTRA-LIGAND FREE ENERGY PREDICTED BY IDOCK:   -1.21 KCAL/MOL
REMARK 927      BINDING AFFINITY PREDICTED BY RF-SCORE:    0.00 PKD
ROOT
HETATM    1  C   UNL     1      -7.277  12.467  67.271  1.00  0.00    -0.114 C  
HETATM    2  N   UNL     1      -8.026  11.349  66.689  1.00  0.00    -0.159 NA 
HETATM    3  C   UNL     1      -9.181  11.866  65.953  1.00  0.00    -0.141 C  
ENDROOT
BRANCH   2   4
HETATM    4  C   UNL     1      -7.137  10.531  65.845  1.00  0.00    -0.134 C  
BRANCH   4   5
HETATM    5  C   UNL     1      -6.530   9.328  66.588  1.00  0.00    -0.067 C  
BRANCH   5   6
HETATM    6  C   UNL     1      -7.085   7.996  66.058  1.00  0.00    -0.062 C  
BRANCH   6   7
HETATM    7  C   UNL     1      -7.882   7.179  67.107  1.00  0.00    -0.110 C  
HETATM    8  O   UNL     1      -6.929   6.831  68.159  1.00  0.00    -0.074 OA 
HETATM    9  N   UNL     1     -12.345  10.244  71.350  1.00  0.00    -0.384 NA 
HETATM   10  C   UNL     1      -9.555   8.485  70.138  1.00  0.00    -0.174 A  
HETATM   11  C   UNL     1      -7.456   7.140  69.463  1.00  0.00    -0.095 C  
HETATM   12  C   UNL     1      -8.705   7.895  69.210  1.00  0.00    -0.138 A  
HETATM   13  C   UNL     1     -11.606   9.755  70.601  1.00  0.00    -0.313 C  
HETATM   14  C   UNL     1      -8.955   7.945  67.844  1.00  0.00    -0.129 A  
HETATM   15  C   UNL     1     -10.693   9.150  69.672  1.00  0.00    -0.236 A  
HETATM   16  C   UNL     1     -10.947   9.220  68.292  1.00  0.00    -0.047 A  
HETATM   17  C   UNL     1     -10.071   8.626  67.372  1.00  0.00    -0.292 A  
BRANCH   7  18
HETATM   18  C   UNL     1      -8.408   5.886  66.454  1.00  0.00    -0.114 A  
HETATM   19  C   UNL     1      -8.294   5.678  65.063  1.00  0.00    -0.146 A  
HETATM   20  F   UNL     1      -9.719   2.364  64.690  1.00  0.00    -0.145 F  
HETATM   21  C   UNL     1      -9.300   3.502  65.258  1.00  0.00    -0.157 A  
HETATM   22  C   UNL     1      -9.416   3.667  66.631  1.00  0.00    -0.197 A  
HETATM   23  C   UNL     1      -8.975   4.853  67.225  1.00  0.00    -0.113 A  
HETATM   24  C   UNL     1      -8.745   4.497  64.468  1.00  0.00    -0.148 A  
ENDBRANCH   7  18
ENDBRANCH   6   7
ENDBRANCH   5   6
ENDBRANCH   4   5
ENDBRANCH   2   4
TORSDOF 5
ENDMDL
MODEL      142
REMARK 921   NORMALIZED FREE ENERGY PREDICTED BY IDOCK:   -3.11 KCAL/MOL
REMARK 922        TOTAL FREE ENERGY PREDICTED BY IDOCK:   -4.89 KCAL/MOL
REMARK 923 INTER-LIGAND FREE ENERGY PREDICTED BY IDOCK:   -3.85 KCAL/MOL
REMARK 924 INTRA-LIGAND FREE ENERGY PREDICTED BY IDOCK:   -1.04 KCAL/MOL
REMARK 927      BINDING AFFINITY PREDICTED BY RF-SCORE:    0.00 PKD
ROOT
HETATM    1  C   UNL     1     -10.072   5.496  72.753  1.00  0.00    -0.180 C  
HETATM    2  N   UNL     1      -9.228   4.525  72.051  1.00  0.00    -0.129 NA 
HETATM    3  C   UNL     1      -9.851   3.201  72.112  1.00  0.00    -0.168 C  
ENDROOT
BRANCH   2   4
HETATM    4  C   UNL     1      -8.986   4.973  70.667  1.00  0.00    -0.131 C  
BRANCH   4   5
HETATM    5  C   UNL     1      -9.002   6.503  70.511  1.00  0.00    -0.152 C  
BRANCH   5   6
HETATM    6  C   UNL     1      -9.825   6.940  69.288  1.00  0.00    -0.159 C  
BRANCH   6   7
HETATM    7  C   UNL     1      -8.997   7.085  67.986  1.00  0.00    -0.126 C  
HETATM    8  O   UNL     1      -7.595   6.967  68.381  1.00  0.00    -0.105 OA 
HETATM    9  N   UNL     1      -8.729   1.997  63.364  1.00  0.00    -0.084 NA 
HETATM   10  C   UNL     1      -7.796   4.352  65.799  1.00  0.00    -0.094 A  
HETATM   11  C   UNL     1      -6.894   6.029  67.543  1.00  0.00    -0.063 C  
HETATM   12  C   UNL     1      -7.941   5.384  66.719  1.00  0.00    -0.101 A  
HETATM   13  C   UNL     1      -8.819   2.845  64.150  1.00  0.00    -0.102 C  
HETATM   14  C   UNL     1      -9.173   5.971  66.980  1.00  0.00    -0.124 A  
HETATM   15  C   UNL     1      -8.931   3.896  65.122  1.00  0.00    -0.132 A  
HETATM   16  C   UNL     1     -10.184   4.473  65.391  1.00  0.00    -0.224 A  
HETATM   17  C   UNL     1     -10.311   5.506  66.331  1.00  0.00    -0.272 A  
BRANCH   7  18
HETATM   18  C   UNL     1      -9.237   8.483  67.382  1.00  0.00    -0.163 A  
HETATM   19  C   UNL     1     -10.440   9.178  67.620  1.00  0.00    -0.323 A  
HETATM   20  F   UNL     1      -9.858  12.294  65.857  1.00  0.00    -0.236 F  
HETATM   21  C   UNL     1      -9.659  11.063  66.346  1.00  0.00    -0.198 A  
HETATM   22  C   UNL     1      -8.458  10.413  66.103  1.00  0.00    -0.149 A  
HETATM   23  C   UNL     1      -8.248   9.130  66.616  1.00  0.00    -0.115 A  
HETATM   24  C   UNL     1     -10.654  10.456  67.097  1.00  0.00    -0.319 A  
ENDBRANCH   7  18
ENDBRANCH   6   7
ENDBRANCH   5   6
ENDBRANCH   4   5
ENDBRANCH   2   4
TORSDOF 5
ENDMDL
MODEL      143
REMARK 921   NORMALIZED FREE ENERGY PREDICTED BY IDOCK:   -3.09 KCAL/MOL
REMARK 922        TOTAL FREE ENERGY PREDICTED BY IDOCK:   -4.87 KCAL/MOL
REMARK 923 INTER-LIGAND FREE ENERGY PREDICTED BY IDOCK:   -4.27 KCAL/MOL
REMARK 924 INTRA-LIGAND FREE ENERGY PREDICTED BY IDOCK:   -0.60 KCAL/MOL
REMARK 927      BINDING AFFINITY PREDICTED BY RF-SCORE:    0.00 PKD
ROOT
HETATM    1  C   UNL     1      -5.257  11.477  66.974  1.00  0.00    -0.098 C  
HETATM    2  N   UNL     1      -6.042  10.465  67.687  1.00  0.00    -0.052 NA 
HETATM    3  C   UNL     1      -5.453   9.143  67.463  1.00  0.00    -0.038 C  
ENDROOT
BRANCH   2   4
HETATM    4  C   UNL     1      -6.132  10.810  69.117  1.00  0.00    -0.043 C  
BRANCH   4   5
HETATM    5  C   UNL     1      -7.453  10.368  69.769  1.00  0.00    -0.155 C  
BRANCH   5   6
HETATM    6  C   UNL     1      -8.639  11.211  69.274  1.00  0.00     0.142 C  
BRANCH   6   7
HETATM    7  C   UNL     1      -9.799  10.380  68.666  1.00  0.00    -0.177 C  
HETATM    8  O   UNL     1     -10.325  11.170  67.555  1.00  0.00    -0.184 OA 
HETATM    9  N   UNL     1      -8.544   4.788  64.862  1.00  0.00    -0.139 NA 
HETATM   10  C   UNL     1      -9.584   7.998  65.843  1.00  0.00     0.038 A  
HETATM   11  C   UNL     1     -10.453  10.374  66.363  1.00  0.00    -0.177 C  
HETATM   12  C   UNL     1      -9.795   9.086  66.682  1.00  0.00    -0.316 A  
HETATM   13  C   UNL     1      -8.721   5.719  65.531  1.00  0.00    -0.138 C  
HETATM   14  C   UNL     1      -9.389   9.082  68.011  1.00  0.00    -0.153 A  
HETATM   15  C   UNL     1      -8.940   6.870  66.361  1.00  0.00    -0.172 A  
HETATM   16  C   UNL     1      -8.512   6.863  67.699  1.00  0.00    -0.122 A  
HETATM   17  C   UNL     1      -8.725   7.975  68.526  1.00  0.00    -0.131 A  
BRANCH   7  18
HETATM   18  C   UNL     1     -10.904  10.197  69.724  1.00  0.00    -0.320 A  
HETATM   19  C   UNL     1     -11.563  11.311  70.284  1.00  0.00    -0.366 A  
HETATM   20  F   UNL     1     -13.959   9.721  72.495  1.00  0.00    -0.423 F  
HETATM   21  C   UNL     1     -12.971   9.875  71.604  1.00  0.00    -0.434 A  
HETATM   22  C   UNL     1     -12.352   8.756  71.065  1.00  0.00    -0.186 A  
HETATM   23  C   UNL     1     -11.324   8.916  70.132  1.00  0.00    -0.119 A  
HETATM   24  C   UNL     1     -12.584  11.151  71.225  1.00  0.00    -0.503 A  
ENDBRANCH   7  18
ENDBRANCH   6   7
ENDBRANCH   5   6
ENDBRANCH   4   5
ENDBRANCH   2   4
TORSDOF 5
ENDMDL
MODEL      144
REMARK 921   NORMALIZED FREE ENERGY PREDICTED BY IDOCK:   -3.05 KCAL/MOL
REMARK 922        TOTAL FREE ENERGY PREDICTED BY IDOCK:   -4.81 KCAL/MOL
REMARK 923 INTER-LIGAND FREE ENERGY PREDICTED BY IDOCK:   -4.27 KCAL/MOL
REMARK 924 INTRA-LIGAND FREE ENERGY PREDICTED BY IDOCK:   -0.54 KCAL/MOL
REMARK 927      BINDING AFFINITY PREDICTED BY RF-SCORE:    0.00 PKD
ROOT
HETATM    1  C   UNL     1     -10.606  11.244  63.225  1.00  0.00    -0.255 C  
HETATM    2  N   UNL     1     -10.910  12.408  64.063  1.00  0.00    -0.361 NA 
HETATM    3  C   UNL     1     -12.310  12.794  63.874  1.00  0.00    -0.426 C  
ENDROOT
BRANCH   2   4
HETATM    4  C   UNL     1     -10.588  12.114  65.471  1.00  0.00    -0.277 C  
BRANCH   4   5
HETATM    5  C   UNL     1      -9.679  10.886  65.645  1.00  0.00    -0.279 C  
BRANCH   5   6
HETATM    6  C   UNL     1     -10.334   9.817  66.535  1.00  0.00    -0.262 C  
BRANCH   6   7
HETATM    7  C   UNL     1     -10.113  10.035  68.054  1.00  0.00    -0.167 C  
HETATM    8  O   UNL     1     -11.218  10.877  68.508  1.00  0.00    -0.231 OA 
HETATM    9  N   UNL     1     -11.329   4.994  72.574  1.00  0.00    -0.123 NA 
HETATM   10  C   UNL     1     -11.541   8.029  70.817  1.00  0.00    -0.251 A  
HETATM   11  C   UNL     1     -11.840  10.332  69.687  1.00  0.00    -0.111 C  
HETATM   12  C   UNL     1     -11.232   8.993  69.864  1.00  0.00    -0.092 A  
HETATM   13  C   UNL     1     -11.106   5.812  71.783  1.00  0.00    -0.238 C  
HETATM   14  C   UNL     1     -10.242   8.796  68.909  1.00  0.00    -0.221 A  
HETATM   15  C   UNL     1     -10.830   6.825  70.803  1.00  0.00    -0.291 A  
HETATM   16  C   UNL     1      -9.837   6.610  69.832  1.00  0.00    -0.180 A  
HETATM   17  C   UNL     1      -9.548   7.592  68.874  1.00  0.00    -0.150 A  
BRANCH   7  18
HETATM   18  C   UNL     1      -8.784  10.782  68.275  1.00  0.00    -0.136 A  
HETATM   19  C   UNL     1      -8.770  12.140  68.656  1.00  0.00     0.005 A  
HETATM   20  F   UNL     1      -5.216  12.784  68.980  1.00  0.00    -0.066 F  
HETATM   21  C   UNL     1      -6.367  12.139  68.749  1.00  0.00    -0.076 A  
HETATM   22  C   UNL     1      -6.343  10.801  68.387  1.00  0.00    -0.053 A  
HETATM   23  C   UNL     1      -7.544  10.126  68.149  1.00  0.00    -0.087 A  
HETATM   24  C   UNL     1      -7.569  12.817  68.883  1.00  0.00     0.057 A  
ENDBRANCH   7  18
ENDBRANCH   6   7
ENDBRANCH   5   6
ENDBRANCH   4   5
ENDBRANCH   2   4
TORSDOF 5
ENDMDL
MODEL      145
REMARK 921   NORMALIZED FREE ENERGY PREDICTED BY IDOCK:   -3.04 KCAL/MOL
REMARK 922        TOTAL FREE ENERGY PREDICTED BY IDOCK:   -4.81 KCAL/MOL
REMARK 923 INTER-LIGAND FREE ENERGY PREDICTED BY IDOCK:   -3.76 KCAL/MOL
REMARK 924 INTRA-LIGAND FREE ENERGY PREDICTED BY IDOCK:   -1.04 KCAL/MOL
REMARK 927      BINDING AFFINITY PREDICTED BY RF-SCORE:    0.00 PKD
ROOT
HETATM    1  C   UNL     1     -11.323   7.563  72.720  1.00  0.00    -0.336 C  
HETATM    2  N   UNL     1     -10.190   7.789  71.817  1.00  0.00    -0.187 NA 
HETATM    3  C   UNL     1      -8.999   7.124  72.351  1.00  0.00    -0.127 C  
ENDROOT
BRANCH   2   4
HETATM    4  C   UNL     1     -10.530   7.335  70.456  1.00  0.00    -0.217 C  
BRANCH   4   5
HETATM    5  C   UNL     1     -10.240   8.388  69.373  1.00  0.00    -0.208 C  
BRANCH   5   6
HETATM    6  C   UNL     1      -9.425   7.796  68.212  1.00  0.00    -0.150 C  
BRANCH   6   7
HETATM    7  C   UNL     1      -9.254   8.753  67.004  1.00  0.00    -0.142 C  
HETATM    8  O   UNL     1     -10.588   9.268  66.702  1.00  0.00    -0.197 OA 
HETATM    9  N   UNL     1      -6.394  14.962  67.773  1.00  0.00    -0.166 NA 
HETATM   10  C   UNL     1      -8.726  12.413  67.126  1.00  0.00    -0.195 A  
HETATM   11  C   UNL     1     -10.577  10.701  66.569  1.00  0.00    -0.193 C  
HETATM   12  C   UNL     1      -9.224  11.122  67.000  1.00  0.00    -0.172 A  
HETATM   13  C   UNL     1      -6.846  13.898  67.673  1.00  0.00    -0.179 C  
HETATM   14  C   UNL     1      -8.450  10.002  67.278  1.00  0.00    -0.122 A  
HETATM   15  C   UNL     1      -7.403  12.580  67.549  1.00  0.00    -0.151 A  
HETATM   16  C   UNL     1      -6.617  11.455  67.847  1.00  0.00    -0.059 A  
HETATM   17  C   UNL     1      -7.142  10.160  67.724  1.00  0.00    -0.086 A  
BRANCH   7  18
HETATM   18  C   UNL     1      -8.733   7.957  65.792  1.00  0.00    -0.163 A  
HETATM   19  C   UNL     1      -8.178   8.616  64.675  1.00  0.00    -0.167 A  
HETATM   20  F   UNL     1      -7.225   5.825  62.564  1.00  0.00    -0.042 F  
HETATM   21  C   UNL     1      -7.715   6.513  63.603  1.00  0.00    -0.114 A  
HETATM   22  C   UNL     1      -8.243   5.831  64.690  1.00  0.00    -0.126 A  
HETATM   23  C   UNL     1      -8.750   6.548  65.777  1.00  0.00    -0.129 A  
HETATM   24  C   UNL     1      -7.680   7.899  63.584  1.00  0.00    -0.136 A  
ENDBRANCH   7  18
ENDBRANCH   6   7
ENDBRANCH   5   6
ENDBRANCH   4   5
ENDBRANCH   2   4
TORSDOF 5
ENDMDL
MODEL      146
REMARK 921   NORMALIZED FREE ENERGY PREDICTED BY IDOCK:   -3.04 KCAL/MOL
REMARK 922        TOTAL FREE ENERGY PREDICTED BY IDOCK:   -4.80 KCAL/MOL
REMARK 923 INTER-LIGAND FREE ENERGY PREDICTED BY IDOCK:   -4.33 KCAL/MOL
REMARK 924 INTRA-LIGAND FREE ENERGY PREDICTED BY IDOCK:   -0.46 KCAL/MOL
REMARK 927      BINDING AFFINITY PREDICTED BY RF-SCORE:    0.00 PKD
ROOT
HETATM    1  C   UNL     1     -11.569   7.264  68.699  1.00  0.00     0.803 C  
HETATM    2  N   UNL     1     -10.124   7.106  68.512  1.00  0.00    -0.163 NA 
HETATM    3  C   UNL     1      -9.865   6.472  67.218  1.00  0.00    -0.140 C  
ENDROOT
BRANCH   2   4
HETATM    4  C   UNL     1      -9.452   8.412  68.647  1.00  0.00    -0.147 C  
BRANCH   4   5
HETATM    5  C   UNL     1     -10.429   9.598  68.696  1.00  0.00    -0.235 C  
BRANCH   5   6
HETATM    6  C   UNL     1     -10.932   9.976  67.293  1.00  0.00    -0.225 C  
BRANCH   6   7
HETATM    7  C   UNL     1      -9.958  10.878  66.492  1.00  0.00    -0.211 C  
HETATM    8  O   UNL     1      -9.007  11.413  67.465  1.00  0.00    -0.146 OA 
HETATM    9  N   UNL     1      -5.141   8.154  62.405  1.00  0.00    -0.062 NA 
HETATM   10  C   UNL     1      -6.705   9.890  65.030  1.00  0.00    -0.121 A  
HETATM   11  C   UNL     1      -7.650  11.249  67.012  1.00  0.00    -0.143 C  
HETATM   12  C   UNL     1      -7.742  10.400  65.803  1.00  0.00    -0.146 A  
HETATM   13  C   UNL     1      -5.983   8.580  63.081  1.00  0.00    -0.078 C  
HETATM   14  C   UNL     1      -9.077  10.157  65.499  1.00  0.00    -0.216 A  
HETATM   15  C   UNL     1      -7.025   9.108  63.915  1.00  0.00    -0.089 A  
HETATM   16  C   UNL     1      -8.371   8.845  63.609  1.00  0.00    -0.164 A  
HETATM   17  C   UNL     1      -9.402   9.359  64.408  1.00  0.00    -0.018 A  
BRANCH   7  18
HETATM   18  C   UNL     1     -10.745  12.043  65.861  1.00  0.00    -0.314 A  
HETATM   19  C   UNL     1     -11.451  12.961  66.666  1.00  0.00    -0.393 A  
HETATM   20  F   UNL     1     -12.781  15.252  64.188  1.00  0.00    -0.446 F  
HETATM   21  C   UNL     1     -12.127  14.215  64.728  1.00  0.00    -0.441 A  
HETATM   22  C   UNL     1     -11.433  13.339  63.907  1.00  0.00    -0.409 A  
HETATM   23  C   UNL     1     -10.747  12.258  64.469  1.00  0.00    -0.358 A  
HETATM   24  C   UNL     1     -12.145  14.035  66.103  1.00  0.00    -0.471 A  
ENDBRANCH   7  18
ENDBRANCH   6   7
ENDBRANCH   5   6
ENDBRANCH   4   5
ENDBRANCH   2   4
TORSDOF 5
ENDMDL
MODEL      147
REMARK 921   NORMALIZED FREE ENERGY PREDICTED BY IDOCK:   -2.97 KCAL/MOL
REMARK 922        TOTAL FREE ENERGY PREDICTED BY IDOCK:   -4.71 KCAL/MOL
REMARK 923 INTER-LIGAND FREE ENERGY PREDICTED BY IDOCK:   -5.50 KCAL/MOL
REMARK 924 INTRA-LIGAND FREE ENERGY PREDICTED BY IDOCK:    0.79 KCAL/MOL
REMARK 927      BINDING AFFINITY PREDICTED BY RF-SCORE:    0.00 PKD
ROOT
HETATM    1  C   UNL     1      -6.279  14.105  71.265  1.00  0.00     0.092 C  
HETATM    2  N   UNL     1      -5.938  13.656  69.912  1.00  0.00    -0.123 NA 
HETATM    3  C   UNL     1      -6.382  12.273  69.730  1.00  0.00    -0.091 C  
ENDROOT
BRANCH   2   4
HETATM    4  C   UNL     1      -6.516  14.573  68.914  1.00  0.00    -0.092 C  
BRANCH   4   5
HETATM    5  C   UNL     1      -6.601  13.965  67.504  1.00  0.00    -0.104 C  
BRANCH   5   6
HETATM    6  C   UNL     1      -7.715  12.909  67.409  1.00  0.00    -0.160 C  
BRANCH   6   7
HETATM    7  C   UNL     1      -9.149  13.497  67.423  1.00  0.00    -0.219 C  
HETATM    8  O   UNL     1      -9.756  13.056  68.677  1.00  0.00    -0.163 OA 
HETATM    9  N   UNL     1     -10.230  20.192  68.575  1.00  0.00    -0.361 NA 
HETATM   10  C   UNL     1     -10.225  16.697  68.938  1.00  0.00    -0.284 A  
HETATM   11  C   UNL     1     -10.368  14.156  69.376  1.00  0.00     0.081 C  
HETATM   12  C   UNL     1      -9.958  15.368  68.631  1.00  0.00    -0.210 A  
HETATM   13  C   UNL     1     -10.011  19.074  68.356  1.00  0.00    -0.408 C  
HETATM   14  C   UNL     1      -9.230  15.003  67.504  1.00  0.00    -0.189 A  
HETATM   15  C   UNL     1      -9.739  17.691  68.083  1.00  0.00    -0.310 A  
HETATM   16  C   UNL     1      -8.989  17.333  66.950  1.00  0.00    -0.256 A  
HETATM   17  C   UNL     1      -8.721  15.987  66.663  1.00  0.00    -0.309 A  
BRANCH   7  18
HETATM   18  C   UNL     1      -9.950  12.916  66.242  1.00  0.00    -0.271 A  
HETATM   19  C   UNL     1     -10.741  13.748  65.422  1.00  0.00    -0.320 A  
HETATM   20  F   UNL     1     -12.029  11.387  62.989  1.00  0.00    -0.376 F  
HETATM   21  C   UNL     1     -11.362  11.880  64.041  1.00  0.00    -0.397 A  
HETATM   22  C   UNL     1     -10.585  11.034  64.818  1.00  0.00    -0.350 A  
HETATM   23  C   UNL     1      -9.884  11.548  65.913  1.00  0.00    -0.262 A  
HETATM   24  C   UNL     1     -11.449  13.232  64.334  1.00  0.00    -0.416 A  
ENDBRANCH   7  18
ENDBRANCH   6   7
ENDBRANCH   5   6
ENDBRANCH   4   5
ENDBRANCH   2   4
TORSDOF 5
ENDMDL
MODEL      148
REMARK 921   NORMALIZED FREE ENERGY PREDICTED BY IDOCK:   -2.95 KCAL/MOL
REMARK 922        TOTAL FREE ENERGY PREDICTED BY IDOCK:   -4.69 KCAL/MOL
REMARK 923 INTER-LIGAND FREE ENERGY PREDICTED BY IDOCK:   -4.41 KCAL/MOL
REMARK 924 INTRA-LIGAND FREE ENERGY PREDICTED BY IDOCK:   -0.28 KCAL/MOL
REMARK 927      BINDING AFFINITY PREDICTED BY RF-SCORE:    0.00 PKD
ROOT
HETATM    1  C   UNL     1      -6.677  19.763  69.538  1.00  0.00    -0.337 C  
HETATM    2  N   UNL     1      -7.872  19.203  68.900  1.00  0.00    -0.341 NA 
HETATM    3  C   UNL     1      -8.986  20.144  69.039  1.00  0.00     0.340 C  
ENDROOT
BRANCH   2   4
HETATM    4  C   UNL     1      -7.585  18.868  67.494  1.00  0.00    -0.228 C  
BRANCH   4   5
HETATM    5  C   UNL     1      -6.947  17.480  67.316  1.00  0.00    -0.191 C  
BRANCH   5   6
HETATM    6  C   UNL     1      -7.815  16.565  66.438  1.00  0.00    -0.324 C  
BRANCH   6   7
HETATM    7  C   UNL     1      -8.725  15.596  67.237  1.00  0.00    -0.194 C  
HETATM    8  O   UNL     1      -9.663  16.437  67.977  1.00  0.00    -0.230 OA 
HETATM    9  N   UNL     1     -13.606  11.907  64.092  1.00  0.00    -0.135 NA 
HETATM   10  C   UNL     1     -11.999  14.237  66.174  1.00  0.00    -0.422 A  
HETATM   11  C   UNL     1     -11.019  15.984  67.805  1.00  0.00    -0.307 C  
HETATM   12  C   UNL     1     -10.950  14.940  66.757  1.00  0.00    -0.326 A  
HETATM   13  C   UNL     1     -12.755  12.523  64.586  1.00  0.00    -0.349 C  
HETATM   14  C   UNL     1      -9.625  14.718  66.400  1.00  0.00    -0.324 A  
HETATM   15  C   UNL     1     -11.701  13.282  65.197  1.00  0.00    -0.358 A  
HETATM   16  C   UNL     1     -10.366  13.062  64.819  1.00  0.00    -0.356 A  
HETATM   17  C   UNL     1      -9.323  13.788  65.412  1.00  0.00     0.441 A  
BRANCH   7  18
HETATM   18  C   UNL     1      -7.866  14.797  68.236  1.00  0.00    -0.125 A  
HETATM   19  C   UNL     1      -7.404  15.388  69.430  1.00  0.00    -0.213 A  
HETATM   20  F   UNL     1      -5.643  12.629  70.992  1.00  0.00    -0.162 F  
HETATM   21  C   UNL     1      -6.357  13.329  70.101  1.00  0.00     0.027 A  
HETATM   22  C   UNL     1      -6.804  12.712  68.942  1.00  0.00    -0.097 A  
HETATM   23  C   UNL     1      -7.553  13.442  68.014  1.00  0.00    -0.143 A  
HETATM   24  C   UNL     1      -6.647  14.662  70.353  1.00  0.00    -0.055 A  
ENDBRANCH   7  18
ENDBRANCH   6   7
ENDBRANCH   5   6
ENDBRANCH   4   5
ENDBRANCH   2   4
TORSDOF 5
ENDMDL
MODEL      149
REMARK 921   NORMALIZED FREE ENERGY PREDICTED BY IDOCK:   -2.90 KCAL/MOL
REMARK 922        TOTAL FREE ENERGY PREDICTED BY IDOCK:   -4.62 KCAL/MOL
REMARK 923 INTER-LIGAND FREE ENERGY PREDICTED BY IDOCK:   -3.79 KCAL/MOL
REMARK 924 INTRA-LIGAND FREE ENERGY PREDICTED BY IDOCK:   -0.83 KCAL/MOL
REMARK 927      BINDING AFFINITY PREDICTED BY RF-SCORE:    0.00 PKD
ROOT
HETATM    1  C   UNL     1      -6.692  15.106  69.815  1.00  0.00    -0.180 C  
HETATM    2  N   UNL     1      -7.583  15.682  68.803  1.00  0.00    -0.150 NA 
HETATM    3  C   UNL     1      -7.072  16.991  68.392  1.00  0.00    -0.188 C  
ENDROOT
BRANCH   2   4
HETATM    4  C   UNL     1      -7.731  14.750  67.670  1.00  0.00    -0.182 C  
BRANCH   4   5
HETATM    5  C   UNL     1      -7.171  13.347  67.959  1.00  0.00    -0.123 C  
BRANCH   5   6
HETATM    6  C   UNL     1      -8.278  12.281  67.943  1.00  0.00    -0.161 C  
BRANCH   6   7
HETATM    7  C   UNL     1      -7.765  10.831  68.139  1.00  0.00    -0.102 C  
HETATM    8  O   UNL     1      -6.352  10.945  68.494  1.00  0.00    -0.049 OA 
HETATM    9  N   UNL     1      -9.470   7.188  73.720  1.00  0.00    -0.222 NA 
HETATM   10  C   UNL     1      -7.600   8.943  71.318  1.00  0.00    -0.132 A  
HETATM   11  C   UNL     1      -6.039  10.154  69.655  1.00  0.00    -0.046 C  
HETATM   12  C   UNL     1      -7.345   9.684  70.169  1.00  0.00    -0.141 A  
HETATM   13  C   UNL     1      -9.226   7.820  72.778  1.00  0.00    -0.195 C  
HETATM   14  C   UNL     1      -8.362  10.088  69.312  1.00  0.00    -0.154 A  
HETATM   15  C   UNL     1      -8.924   8.600  71.612  1.00  0.00    -0.305 A  
HETATM   16  C   UNL     1      -9.960   9.017  70.759  1.00  0.00    -0.307 A  
HETATM   17  C   UNL     1      -9.682   9.773  69.610  1.00  0.00    -0.242 A  
BRANCH   7  18
HETATM   18  C   UNL     1      -7.893  10.060  66.811  1.00  0.00    -0.110 A  
HETATM   19  C   UNL     1      -9.134   9.534  66.395  1.00  0.00    -0.195 A  
HETATM   20  F   UNL     1      -8.283   8.077  63.185  1.00  0.00    -0.156 F  
HETATM   21  C   UNL     1      -8.157   8.713  64.356  1.00  0.00    -0.156 A  
HETATM   22  C   UNL     1      -6.923   9.229  64.728  1.00  0.00    -0.091 A  
HETATM   23  C   UNL     1      -6.792   9.897  65.949  1.00  0.00    -0.101 A  
HETATM   24  C   UNL     1      -9.263   8.856  65.180  1.00  0.00    -0.100 A  
ENDBRANCH   7  18
ENDBRANCH   6   7
ENDBRANCH   5   6
ENDBRANCH   4   5
ENDBRANCH   2   4
TORSDOF 5
ENDMDL
MODEL      150
REMARK 921   NORMALIZED FREE ENERGY PREDICTED BY IDOCK:   -2.75 KCAL/MOL
REMARK 922        TOTAL FREE ENERGY PREDICTED BY IDOCK:   -4.43 KCAL/MOL
REMARK 923 INTER-LIGAND FREE ENERGY PREDICTED BY IDOCK:   -3.40 KCAL/MOL
REMARK 924 INTRA-LIGAND FREE ENERGY PREDICTED BY IDOCK:   -1.04 KCAL/MOL
REMARK 927      BINDING AFFINITY PREDICTED BY RF-SCORE:    0.00 PKD
ROOT
HETATM    1  C   UNL     1      -7.859  12.081  67.537  1.00  0.00    -0.155 C  
HETATM    2  N   UNL     1      -8.503  10.833  67.958  1.00  0.00    -0.121 NA 
HETATM    3  C   UNL     1      -9.697  10.601  67.143  1.00  0.00    -0.171 C  
ENDROOT
BRANCH   2   4
HETATM    4  C   UNL     1      -7.542   9.718  67.886  1.00  0.00    -0.086 C  
BRANCH   4   5
HETATM    5  C   UNL     1      -6.928   9.354  69.248  1.00  0.00    -0.053 C  
BRANCH   5   6
HETATM    6  C   UNL     1      -6.904   7.833  69.470  1.00  0.00    -0.047 C  
BRANCH   6   7
HETATM    7  C   UNL     1      -7.559   7.375  70.798  1.00  0.00    -0.083 C  
HETATM    8  O   UNL     1      -7.137   8.339  71.812  1.00  0.00    -0.071 OA 
HETATM    9  N   UNL     1     -14.288   8.251  71.926  1.00  0.00    -0.454 NA 
HETATM   10  C   UNL     1     -10.794   8.512  72.190  1.00  0.00    -0.427 A  
HETATM   11  C   UNL     1      -8.259   8.816  72.579  1.00  0.00     0.153 C  
HETATM   12  C   UNL     1      -9.456   8.282  71.890  1.00  0.00    -0.287 A  
HETATM   13  C   UNL     1     -13.163   8.093  71.691  1.00  0.00    -0.332 C  
HETATM   14  C   UNL     1      -9.067   7.460  70.839  1.00  0.00    -0.154 A  
HETATM   15  C   UNL     1     -11.770   7.895  71.402  1.00  0.00    -0.311 A  
HETATM   16  C   UNL     1     -11.387   7.075  70.327  1.00  0.00    -0.339 A  
HETATM   17  C   UNL     1     -10.031   6.864  70.035  1.00  0.00    -0.190 A  
BRANCH   7  18
HETATM   18  C   UNL     1      -7.026   5.979  71.175  1.00  0.00    -0.068 A  
HETATM   19  C   UNL     1      -7.746   5.140  72.050  1.00  0.00    -0.099 A  
HETATM   20  F   UNL     1      -5.661   2.173  72.118  1.00  0.00    -0.006 F  
HETATM   21  C   UNL     1      -6.099   3.402  71.817  1.00  0.00    -0.014 A  
HETATM   22  C   UNL     1      -5.371   4.196  70.943  1.00  0.00    -0.004 A  
HETATM   23  C   UNL     1      -5.830   5.478  70.625  1.00  0.00    -0.021 A  
HETATM   24  C   UNL     1      -7.282   3.863  72.376  1.00  0.00    -0.056 A  
ENDBRANCH   7  18
ENDBRANCH   6   7
ENDBRANCH   5   6
ENDBRANCH   4   5
ENDBRANCH   2   4
TORSDOF 5
ENDMDL
MODEL      151
REMARK 921   NORMALIZED FREE ENERGY PREDICTED BY IDOCK:   -2.70 KCAL/MOL
REMARK 922        TOTAL FREE ENERGY PREDICTED BY IDOCK:   -4.36 KCAL/MOL
REMARK 923 INTER-LIGAND FREE ENERGY PREDICTED BY IDOCK:   -3.80 KCAL/MOL
REMARK 924 INTRA-LIGAND FREE ENERGY PREDICTED BY IDOCK:   -0.56 KCAL/MOL
REMARK 927      BINDING AFFINITY PREDICTED BY RF-SCORE:    0.00 PKD
ROOT
HETATM    1  C   UNL     1      -7.968   6.269  66.887  1.00  0.00    -0.109 C  
HETATM    2  N   UNL     1      -9.335   5.981  66.443  1.00  0.00    -0.154 NA 
HETATM    3  C   UNL     1      -9.829   4.784  67.126  1.00  0.00    -0.193 C  
ENDROOT
BRANCH   2   4
HETATM    4  C   UNL     1     -10.197   7.156  66.666  1.00  0.00    -0.153 C  
BRANCH   4   5
HETATM    5  C   UNL     1      -9.548   8.480  66.229  1.00  0.00    -0.306 C  
BRANCH   5   6
HETATM    6  C   UNL     1     -10.561   9.636  66.228  1.00  0.00    -0.051 C  
BRANCH   6   7
HETATM    7  C   UNL     1     -10.481  10.552  67.476  1.00  0.00    -0.239 C  
HETATM    8  O   UNL     1     -11.310  11.718  67.179  1.00  0.00    -0.302 OA 
HETATM    9  N   UNL     1     -13.805   8.942  73.280  1.00  0.00    -0.058 NA 
HETATM   10  C   UNL     1     -12.815  10.606  70.348  1.00  0.00    -0.277 A  
HETATM   11  C   UNL     1     -12.219  12.002  68.258  1.00  0.00     0.249 C  
HETATM   12  C   UNL     1     -12.095  10.853  69.184  1.00  0.00    -0.292 A  
HETATM   13  C   UNL     1     -13.234   9.169  72.296  1.00  0.00    -0.461 C  
HETATM   14  C   UNL     1     -11.105   9.989  68.732  1.00  0.00    -0.219 A  
HETATM   15  C   UNL     1     -12.526   9.449  71.078  1.00  0.00    -0.311 A  
HETATM   16  C   UNL     1     -11.537   8.562  70.621  1.00  0.00    -0.214 A  
HETATM   17  C   UNL     1     -10.830   8.824  69.439  1.00  0.00    -0.123 A  
BRANCH   7  18
HETATM   18  C   UNL     1      -9.023  11.007  67.682  1.00  0.00    -0.142 A  
HETATM   19  C   UNL     1      -8.396  11.870  66.759  1.00  0.00    -0.153 A  
HETATM   20  F   UNL     1      -5.133  12.333  68.274  1.00  0.00    -0.050 F  
HETATM   21  C   UNL     1      -6.387  11.902  68.081  1.00  0.00    -0.052 A  
HETATM   22  C   UNL     1      -6.976  11.063  69.015  1.00  0.00    -0.097 A  
HETATM   23  C   UNL     1      -8.285  10.616  68.816  1.00  0.00    -0.142 A  
HETATM   24  C   UNL     1      -7.083  12.308  66.952  1.00  0.00     0.047 A  
ENDBRANCH   7  18
ENDBRANCH   6   7
ENDBRANCH   5   6
ENDBRANCH   4   5
ENDBRANCH   2   4
TORSDOF 5
ENDMDL
MODEL      152
REMARK 921   NORMALIZED FREE ENERGY PREDICTED BY IDOCK:   -2.62 KCAL/MOL
REMARK 922        TOTAL FREE ENERGY PREDICTED BY IDOCK:   -4.25 KCAL/MOL
REMARK 923 INTER-LIGAND FREE ENERGY PREDICTED BY IDOCK:   -3.43 KCAL/MOL
REMARK 924 INTRA-LIGAND FREE ENERGY PREDICTED BY IDOCK:   -0.82 KCAL/MOL
REMARK 927      BINDING AFFINITY PREDICTED BY RF-SCORE:    0.00 PKD
ROOT
HETATM    1  C   UNL     1     -11.378   6.403  72.402  1.00  0.00    -0.287 C  
HETATM    2  N   UNL     1     -11.369   7.808  71.985  1.00  0.00    -0.268 NA 
HETATM    3  C   UNL     1     -12.434   8.532  72.683  1.00  0.00    -0.211 C  
ENDROOT
BRANCH   2   4
HETATM    4  C   UNL     1     -10.038   8.396  72.217  1.00  0.00    -0.312 C  
BRANCH   4   5
HETATM    5  C   UNL     1      -9.131   8.360  70.975  1.00  0.00    -0.201 C  
BRANCH   5   6
HETATM    6  C   UNL     1      -9.949   8.411  69.674  1.00  0.00    -0.193 C  
BRANCH   6   7
HETATM    7  C   UNL     1      -9.332   7.603  68.504  1.00  0.00    -0.147 C  
HETATM    8  O   UNL     1     -10.423   7.354  67.563  1.00  0.00    -0.222 OA 
HETATM    9  N   UNL     1      -5.246  10.628  63.869  1.00  0.00    -0.163 NA 
HETATM   10  C   UNL     1      -7.965   8.960  65.344  1.00  0.00    -0.110 A  
HETATM   11  C   UNL     1     -10.040   7.696  66.218  1.00  0.00     0.120 C  
HETATM   12  C   UNL     1      -8.729   8.373  66.346  1.00  0.00    -0.159 A  
HETATM   13  C   UNL     1      -5.916  10.144  64.684  1.00  0.00    -0.125 C  
HETATM   14  C   UNL     1      -8.314   8.347  67.672  1.00  0.00    -0.130 A  
HETATM   15  C   UNL     1      -6.743   9.544  65.693  1.00  0.00    -0.076 A  
HETATM   16  C   UNL     1      -6.321   9.536  67.033  1.00  0.00    -0.066 A  
HETATM   17  C   UNL     1      -7.112   8.947  68.030  1.00  0.00    -0.079 A  
BRANCH   7  18
HETATM   18  C   UNL     1      -8.805   6.257  69.036  1.00  0.00    -0.124 A  
HETATM   19  C   UNL     1      -9.693   5.217  69.384  1.00  0.00    -0.241 A  
HETATM   20  F   UNL     1      -7.403   2.582  70.367  1.00  0.00    -0.033 F  
HETATM   21  C   UNL     1      -7.855   3.769  69.941  1.00  0.00    -0.051 A  
HETATM   22  C   UNL     1      -6.953   4.764  69.596  1.00  0.00    -0.053 A  
HETATM   23  C   UNL     1      -7.425   6.001  69.147  1.00  0.00    -0.086 A  
HETATM   24  C   UNL     1      -9.222   3.984  69.842  1.00  0.00    -0.213 A  
ENDBRANCH   7  18
ENDBRANCH   6   7
ENDBRANCH   5   6
ENDBRANCH   4   5
ENDBRANCH   2   4
TORSDOF 5
ENDMDL
MODEL      153
REMARK 921   NORMALIZED FREE ENERGY PREDICTED BY IDOCK:   -2.51 KCAL/MOL
REMARK 922        TOTAL FREE ENERGY PREDICTED BY IDOCK:   -4.11 KCAL/MOL
REMARK 923 INTER-LIGAND FREE ENERGY PREDICTED BY IDOCK:   -3.53 KCAL/MOL
REMARK 924 INTRA-LIGAND FREE ENERGY PREDICTED BY IDOCK:   -0.58 KCAL/MOL
REMARK 927      BINDING AFFINITY PREDICTED BY RF-SCORE:    0.00 PKD
ROOT
HETATM    1  C   UNL     1     -10.522  18.798  66.060  1.00  0.00    -0.432 C  
HETATM    2  N   UNL     1      -9.671  17.627  65.829  1.00  0.00    -0.538 NA 
HETATM    3  C   UNL     1      -8.462  17.733  66.648  1.00  0.00    -0.258 C  
ENDROOT
BRANCH   2   4
HETATM    4  C   UNL     1     -10.429  16.391  66.095  1.00  0.00    -0.314 C  
BRANCH   4   5
HETATM    5  C   UNL     1      -9.630  15.111  65.798  1.00  0.00    -0.344 C  
BRANCH   5   6
HETATM    6  C   UNL     1     -10.371  13.855  66.285  1.00  0.00    -0.293 C  
BRANCH   6   7
HETATM    7  C   UNL     1      -9.718  13.169  67.513  1.00  0.00    -0.213 C  
HETATM    8  O   UNL     1      -8.748  12.217  66.977  1.00  0.00    -0.179 OA 
HETATM    9  N   UNL     1      -5.156  16.507  71.433  1.00  0.00    -0.290 NA 
HETATM   10  C   UNL     1      -6.600  14.183  69.228  1.00  0.00    -0.120 A  
HETATM   11  C   UNL     1      -7.469  12.355  67.625  1.00  0.00    -0.138 C  
HETATM   12  C   UNL     1      -7.584  13.573  68.458  1.00  0.00    -0.129 A  
HETATM   13  C   UNL     1      -5.950  15.984  70.768  1.00  0.00     0.276 C  
HETATM   14  C   UNL     1      -8.879  14.072  68.387  1.00  0.00    -0.180 A  
HETATM   15  C   UNL     1      -6.933  15.336  69.946  1.00  0.00    -0.121 A  
HETATM   16  C   UNL     1      -8.236  15.856  69.868  1.00  0.00     0.444 A  
HETATM   17  C   UNL     1      -9.211  15.231  69.078  1.00  0.00    -0.223 A  
BRANCH   7  18
HETATM   18  C   UNL     1     -10.797  12.402  68.302  1.00  0.00    -0.264 A  
HETATM   19  C   UNL     1     -11.378  12.956  69.462  1.00  0.00    -0.221 A  
HETATM   20  F   UNL     1     -13.782  10.400  70.381  1.00  0.00    -0.221 F  
HETATM   21  C   UNL     1     -12.816  11.045  69.712  1.00  0.00     0.185 A  
HETATM   22  C   UNL     1     -12.276  10.475  68.568  1.00  0.00     0.620 A  
HETATM   23  C   UNL     1     -11.271  11.149  67.868  1.00  0.00    -0.365 A  
HETATM   24  C   UNL     1     -12.374  12.277  70.168  1.00  0.00    -0.212 A  
ENDBRANCH   7  18
ENDBRANCH   6   7
ENDBRANCH   5   6
ENDBRANCH   4   5
ENDBRANCH   2   4
TORSDOF 5
ENDMDL
MODEL      154
REMARK 921   NORMALIZED FREE ENERGY PREDICTED BY IDOCK:   -2.43 KCAL/MOL
REMARK 922        TOTAL FREE ENERGY PREDICTED BY IDOCK:   -4.01 KCAL/MOL
REMARK 923 INTER-LIGAND FREE ENERGY PREDICTED BY IDOCK:   -3.55 KCAL/MOL
REMARK 924 INTRA-LIGAND FREE ENERGY PREDICTED BY IDOCK:   -0.47 KCAL/MOL
REMARK 927      BINDING AFFINITY PREDICTED BY RF-SCORE:    0.00 PKD
ROOT
HETATM    1  C   UNL     1      -5.697   7.485  66.729  1.00  0.00    -0.028 C  
HETATM    2  N   UNL     1      -6.008   7.580  65.300  1.00  0.00    -0.038 NA 
HETATM    3  C   UNL     1      -6.221   6.237  64.756  1.00  0.00    -0.030 C  
ENDROOT
BRANCH   2   4
HETATM    4  C   UNL     1      -7.167   8.466  65.092  1.00  0.00    -0.080 C  
BRANCH   4   5
HETATM    5  C   UNL     1      -8.161   8.454  66.266  1.00  0.00    -0.105 C  
BRANCH   5   6
HETATM    6  C   UNL     1      -8.851   9.817  66.439  1.00  0.00    -0.163 C  
BRANCH   6   7
HETATM    7  C   UNL     1      -8.352  10.631  67.661  1.00  0.00    -0.114 C  
HETATM    8  O   UNL     1      -6.973  11.012  67.359  1.00  0.00    -0.078 OA 
HETATM    9  N   UNL     1     -10.508  17.070  68.756  1.00  0.00    -0.330 NA 
HETATM   10  C   UNL     1      -8.449  14.307  68.072  1.00  0.00    -0.164 A  
HETATM   11  C   UNL     1      -6.757  12.416  67.592  1.00  0.00    -0.132 C  
HETATM   12  C   UNL     1      -8.100  12.978  67.858  1.00  0.00    -0.158 A  
HETATM   13  C   UNL     1     -10.188  15.973  68.557  1.00  0.00    -0.236 C  
HETATM   14  C   UNL     1      -9.042  11.956  67.880  1.00  0.00    -0.183 A  
HETATM   15  C   UNL     1      -9.791  14.615  68.313  1.00  0.00    -0.222 A  
HETATM   16  C   UNL     1     -10.753  13.591  68.322  1.00  0.00    -0.271 A  
HETATM   17  C   UNL     1     -10.382  12.258  68.093  1.00  0.00    -0.221 A  
BRANCH   7  18
HETATM   18  C   UNL     1      -8.365   9.732  68.913  1.00  0.00    -0.120 A  
HETATM   19  C   UNL     1      -7.226   8.988  69.283  1.00  0.00    -0.065 A  
HETATM   20  F   UNL     1      -8.346   7.390  72.341  1.00  0.00    -0.104 F  
HETATM   21  C   UNL     1      -8.353   8.143  71.233  1.00  0.00    -0.121 A  
HETATM   22  C   UNL     1      -9.488   8.871  70.905  1.00  0.00    -0.295 A  
HETATM   23  C   UNL     1      -9.494   9.660  69.751  1.00  0.00    -0.242 A  
HETATM   24  C   UNL     1      -7.223   8.191  70.431  1.00  0.00    -0.048 A  
ENDBRANCH   7  18
ENDBRANCH   6   7
ENDBRANCH   5   6
ENDBRANCH   4   5
ENDBRANCH   2   4
TORSDOF 5
ENDMDL
MODEL      155
REMARK 921   NORMALIZED FREE ENERGY PREDICTED BY IDOCK:   -2.28 KCAL/MOL
REMARK 922        TOTAL FREE ENERGY PREDICTED BY IDOCK:   -3.82 KCAL/MOL
REMARK 923 INTER-LIGAND FREE ENERGY PREDICTED BY IDOCK:   -3.52 KCAL/MOL
REMARK 924 INTRA-LIGAND FREE ENERGY PREDICTED BY IDOCK:   -0.30 KCAL/MOL
REMARK 927      BINDING AFFINITY PREDICTED BY RF-SCORE:    0.00 PKD
ROOT
HETATM    1  C   UNL     1      -5.489  13.583  71.338  1.00  0.00    -0.205 C  
HETATM    2  N   UNL     1      -5.920  13.872  69.967  1.00  0.00    -0.133 NA 
HETATM    3  C   UNL     1      -5.358  15.154  69.538  1.00  0.00    -0.093 C  
ENDROOT
BRANCH   2   4
HETATM    4  C   UNL     1      -5.544  12.761  69.074  1.00  0.00    -0.070 C  
BRANCH   4   5
HETATM    5  C   UNL     1      -6.087  11.398  69.535  1.00  0.00    -0.093 C  
BRANCH   5   6
HETATM    6  C   UNL     1      -7.554  11.202  69.118  1.00  0.00    -0.098 C  
BRANCH   6   7
HETATM    7  C   UNL     1      -7.757  10.989  67.596  1.00  0.00    -0.112 C  
HETATM    8  O   UNL     1      -6.674  11.716  66.936  1.00  0.00    -0.134 OA 
HETATM    9  N   UNL     1      -6.298   4.957  64.629  1.00  0.00    -0.033 NA 
HETATM   10  C   UNL     1      -6.218   8.361  65.494  1.00  0.00    -0.045 A  
HETATM   11  C   UNL     1      -6.016  10.894  65.955  1.00  0.00    -0.116 C  
HETATM   12  C   UNL     1      -6.575   9.537  66.145  1.00  0.00    -0.070 A  
HETATM   13  C   UNL     1      -6.561   5.951  65.166  1.00  0.00    -0.043 C  
HETATM   14  C   UNL     1      -7.573   9.570  67.111  1.00  0.00    -0.091 A  
HETATM   15  C   UNL     1      -6.888   7.181  65.830  1.00  0.00    -0.057 A  
HETATM   16  C   UNL     1      -7.888   7.202  66.817  1.00  0.00    -0.103 A  
HETATM   17  C   UNL     1      -8.226   8.397  67.470  1.00  0.00    -0.125 A  
BRANCH   7  18
HETATM   18  C   UNL     1      -9.107  11.598  67.171  1.00  0.00    -0.171 A  
HETATM   19  C   UNL     1     -10.231  11.536  68.022  1.00  0.00    -0.205 A  
HETATM   20  F   UNL     1     -12.724  13.329  66.093  1.00  0.00    -0.421 F  
HETATM   21  C   UNL     1     -11.559  12.768  66.440  1.00  0.00    -0.378 A  
HETATM   22  C   UNL     1     -10.471  12.859  65.583  1.00  0.00    -0.292 A  
HETATM   23  C   UNL     1      -9.253  12.277  65.946  1.00  0.00    -0.031 A  
HETATM   24  C   UNL     1     -11.451  12.109  67.655  1.00  0.00    -0.399 A  
ENDBRANCH   7  18
ENDBRANCH   6   7
ENDBRANCH   5   6
ENDBRANCH   4   5
ENDBRANCH   2   4
TORSDOF 5
ENDMDL
MODEL      156
REMARK 921   NORMALIZED FREE ENERGY PREDICTED BY IDOCK:   -1.80 KCAL/MOL
REMARK 922        TOTAL FREE ENERGY PREDICTED BY IDOCK:   -3.20 KCAL/MOL
REMARK 923 INTER-LIGAND FREE ENERGY PREDICTED BY IDOCK:   -2.96 KCAL/MOL
REMARK 924 INTRA-LIGAND FREE ENERGY PREDICTED BY IDOCK:   -0.24 KCAL/MOL
REMARK 927      BINDING AFFINITY PREDICTED BY RF-SCORE:    0.00 PKD
ROOT
HETATM    1  C   UNL     1      -5.180  18.372  66.294  1.00  0.00    -0.147 C  
HETATM    2  N   UNL     1      -6.554  18.108  66.732  1.00  0.00    -0.178 NA 
HETATM    3  C   UNL     1      -7.275  19.375  66.871  1.00  0.00    -0.209 C  
ENDROOT
BRANCH   2   4
HETATM    4  C   UNL     1      -7.214  17.181  65.794  1.00  0.00     0.324 C  
BRANCH   4   5
HETATM    5  C   UNL     1      -7.725  15.896  66.467  1.00  0.00    -0.098 C  
BRANCH   5   6
HETATM    6  C   UNL     1      -8.708  15.136  65.563  1.00  0.00     1.410 C  
BRANCH   6   7
HETATM    7  C   UNL     1      -9.777  14.318  66.333  1.00  0.00    -0.299 C  
HETATM    8  O   UNL     1     -10.920  14.192  65.432  1.00  0.00    -0.304 OA 
HETATM    9  N   UNL     1      -9.048   7.545  67.295  1.00  0.00    -0.122 NA 
HETATM   10  C   UNL     1     -10.281  10.654  66.216  1.00  0.00    -0.304 A  
HETATM   11  C   UNL     1     -11.372  12.828  65.349  1.00  0.00    -0.304 C  
HETATM   12  C   UNL     1     -10.350  12.034  66.069  1.00  0.00    -0.271 A  
HETATM   13  C   UNL     1      -9.125   8.692  67.140  1.00  0.00    -0.133 C  
HETATM   14  C   UNL     1      -9.403  12.884  66.629  1.00  0.00    -0.240 A  
HETATM   15  C   UNL     1      -9.221  10.112  66.949  1.00  0.00    -0.168 A  
HETATM   16  C   UNL     1      -8.250  10.962  67.506  1.00  0.00    -0.116 A  
HETATM   17  C   UNL     1      -8.332  12.352  67.337  1.00  0.00    -0.180 A  
BRANCH   7  18
HETATM   18  C   UNL     1     -10.207  15.098  67.591  1.00  0.00    -0.241 A  
HETATM   19  C   UNL     1     -10.234  16.508  67.595  1.00  0.00    -0.279 A  
HETATM   20  F   UNL     1     -11.468  17.216  70.931  1.00  0.00    -0.000 F  
HETATM   21  C   UNL     1     -11.058  16.533  69.855  1.00  0.00    -0.235 A  
HETATM   22  C   UNL     1     -11.056  15.146  69.881  1.00  0.00    -0.302 A  
HETATM   23  C   UNL     1     -10.632  14.432  68.757  1.00  0.00    -0.256 A  
HETATM   24  C   UNL     1     -10.648  17.221  68.723  1.00  0.00    -0.305 A  
ENDBRANCH   7  18
ENDBRANCH   6   7
ENDBRANCH   5   6
ENDBRANCH   4   5
ENDBRANCH   2   4
TORSDOF 5
ENDMDL
MODEL      157
REMARK 921   NORMALIZED FREE ENERGY PREDICTED BY IDOCK:   -1.33 KCAL/MOL
REMARK 922        TOTAL FREE ENERGY PREDICTED BY IDOCK:   -2.60 KCAL/MOL
REMARK 923 INTER-LIGAND FREE ENERGY PREDICTED BY IDOCK:   -3.97 KCAL/MOL
REMARK 924 INTRA-LIGAND FREE ENERGY PREDICTED BY IDOCK:    1.38 KCAL/MOL
REMARK 927      BINDING AFFINITY PREDICTED BY RF-SCORE:    0.00 PKD
ROOT
HETATM    1  C   UNL     1     -10.961  16.548  64.752  1.00  0.00    -0.177 C  
HETATM    2  N   UNL     1     -10.575  15.753  65.922  1.00  0.00    -0.329 NA 
HETATM    3  C   UNL     1     -11.634  15.822  66.931  1.00  0.00     0.293 C  
ENDROOT
BRANCH   2   4
HETATM    4  C   UNL     1     -10.270  14.369  65.514  1.00  0.00    -0.363 C  
BRANCH   4   5
HETATM    5  C   UNL     1     -11.439  13.396  65.741  1.00  0.00    -0.341 C  
BRANCH   5   6
HETATM    6  C   UNL     1     -11.265  12.595  67.041  1.00  0.00    -0.348 C  
BRANCH   6   7
HETATM    7  C   UNL     1      -9.908  11.853  67.153  1.00  0.00    -0.194 C  
HETATM    8  O   UNL     1     -10.069  10.870  68.223  1.00  0.00    -0.164 OA 
HETATM    9  N   UNL     1      -7.981   7.248  62.420  1.00  0.00    -0.132 NA 
HETATM   10  C   UNL     1      -8.954   8.699  65.468  1.00  0.00    -0.209 A  
HETATM   11  C   UNL     1      -9.616   9.568  67.808  1.00  0.00    -0.133 C  
HETATM   12  C   UNL     1      -9.345   9.693  66.358  1.00  0.00    -0.224 A  
HETATM   13  C   UNL     1      -8.324   8.051  63.184  1.00  0.00     0.018 C  
HETATM   14  C   UNL     1      -9.532  11.011  65.957  1.00  0.00    -0.235 A  
HETATM   15  C   UNL     1      -8.747   9.045  64.129  1.00  0.00    -0.126 A  
HETATM   16  C   UNL     1      -8.948  10.371  63.711  1.00  0.00    -0.247 A  
HETATM   17  C   UNL     1      -9.353  11.357  64.622  1.00  0.00    -0.102 A  
BRANCH   7  18
HETATM   18  C   UNL     1      -8.809  12.857  67.550  1.00  0.00    -0.192 A  
HETATM   19  C   UNL     1      -7.460  12.630  67.206  1.00  0.00    -0.111 A  
HETATM   20  F   UNL     1      -5.848  15.603  68.515  1.00  0.00    -0.092 F  
HETATM   21  C   UNL     1      -6.803  14.716  68.207  1.00  0.00    -0.116 A  
HETATM   22  C   UNL     1      -8.121  14.977  68.551  1.00  0.00    -0.148 A  
HETATM   23  C   UNL     1      -9.118  14.053  68.226  1.00  0.00    -0.191 A  
HETATM   24  C   UNL     1      -6.462  13.548  67.540  1.00  0.00    -0.113 A  
ENDBRANCH   7  18
ENDBRANCH   6   7
ENDBRANCH   5   6
ENDBRANCH   4   5
ENDBRANCH   2   4
TORSDOF 5
ENDMDL
MODEL      158
REMARK 921   NORMALIZED FREE ENERGY PREDICTED BY IDOCK:   -1.23 KCAL/MOL
REMARK 922        TOTAL FREE ENERGY PREDICTED BY IDOCK:   -2.47 KCAL/MOL
REMARK 923 INTER-LIGAND FREE ENERGY PREDICTED BY IDOCK:   -2.24 KCAL/MOL
REMARK 924 INTRA-LIGAND FREE ENERGY PREDICTED BY IDOCK:   -0.22 KCAL/MOL
REMARK 927      BINDING AFFINITY PREDICTED BY RF-SCORE:    0.00 PKD
ROOT
HETATM    1  C   UNL     1      -5.240  15.032  72.710  1.00  0.00     0.055 C  
HETATM    2  N   UNL     1      -5.170  13.651  72.224  1.00  0.00    -0.288 NA 
HETATM    3  C   UNL     1      -5.354  12.727  73.345  1.00  0.00     0.572 C  
ENDROOT
BRANCH   2   4
HETATM    4  C   UNL     1      -6.158  13.442  71.150  1.00  0.00     0.297 C  
BRANCH   4   5
HETATM    5  C   UNL     1      -5.616  12.607  69.977  1.00  0.00    -0.126 C  
BRANCH   5   6
HETATM    6  C   UNL     1      -6.529  11.410  69.666  1.00  0.00    -0.133 C  
BRANCH   6   7
HETATM    7  C   UNL     1      -7.414  11.597  68.407  1.00  0.00    -0.107 C  
HETATM    8  O   UNL     1      -8.735  11.082  68.759  1.00  0.00    -0.157 OA 
HETATM    9  N   UNL     1      -9.690  17.821  66.564  1.00  0.00    -0.308 NA 
HETATM   10  C   UNL     1      -9.607  14.478  67.641  1.00  0.00    -0.214 A  
HETATM   11  C   UNL     1      -9.771  12.018  68.408  1.00  0.00    -0.199 C  
HETATM   12  C   UNL     1      -9.061  13.251  68.003  1.00  0.00    -0.202 A  
HETATM   13  C   UNL     1      -9.266  16.791  66.887  1.00  0.00    -0.232 C  
HETATM   14  C   UNL     1      -7.689  13.031  68.018  1.00  0.00    -0.145 A  
HETATM   15  C   UNL     1      -8.740  15.516  67.285  1.00  0.00    -0.214 A  
HETATM   16  C   UNL     1      -7.351  15.307  67.312  1.00  0.00    -0.230 A  
HETATM   17  C   UNL     1      -6.820  14.065  67.690  1.00  0.00    -0.195 A  
BRANCH   7  18
HETATM   18  C   UNL     1      -6.837  10.760  67.248  1.00  0.00    -0.081 A  
HETATM   19  C   UNL     1      -7.040   9.366  67.190  1.00  0.00    -0.086 A  
HETATM   20  F   UNL     1      -5.386   8.504  64.080  1.00  0.00    -0.051 F  
HETATM   21  C   UNL     1      -5.851   9.231  65.104  1.00  0.00    -0.059 A  
HETATM   22  C   UNL     1      -5.642  10.603  65.123  1.00  0.00    -0.128 A  
HETATM   23  C   UNL     1      -6.131  11.362  66.189  1.00  0.00     0.048 A  
HETATM   24  C   UNL     1      -6.543   8.605  66.129  1.00  0.00    -0.061 A  
ENDBRANCH   7  18
ENDBRANCH   6   7
ENDBRANCH   5   6
ENDBRANCH   4   5
ENDBRANCH   2   4
TORSDOF 5
ENDMDL
MODEL      159
REMARK 921   NORMALIZED FREE ENERGY PREDICTED BY IDOCK:   -1.04 KCAL/MOL
REMARK 922        TOTAL FREE ENERGY PREDICTED BY IDOCK:   -2.22 KCAL/MOL
REMARK 923 INTER-LIGAND FREE ENERGY PREDICTED BY IDOCK:   -3.39 KCAL/MOL
REMARK 924 INTRA-LIGAND FREE ENERGY PREDICTED BY IDOCK:    1.17 KCAL/MOL
REMARK 927      BINDING AFFINITY PREDICTED BY RF-SCORE:    0.00 PKD
ROOT
HETATM    1  C   UNL     1     -11.442  10.916  67.613  1.00  0.00    -0.200 C  
HETATM    2  N   UNL     1     -11.678  12.213  66.971  1.00  0.00    -0.548 NA 
HETATM    3  C   UNL     1     -12.230  13.150  67.951  1.00  0.00    -0.057 C  
ENDROOT
BRANCH   2   4
HETATM    4  C   UNL     1     -10.432  12.706  66.355  1.00  0.00    -0.249 C  
BRANCH   4   5
HETATM    5  C   UNL     1      -9.592  11.593  65.707  1.00  0.00    -0.255 C  
BRANCH   5   6
HETATM    6  C   UNL     1      -9.287  10.461  66.700  1.00  0.00    -0.185 C  
BRANCH   6   7
HETATM    7  C   UNL     1      -7.940  10.622  67.451  1.00  0.00    -0.111 C  
HETATM    8  O   UNL     1      -6.894  10.290  66.485  1.00  0.00    -0.090 OA 
HETATM    9  N   UNL     1      -5.418  16.850  68.922  1.00  0.00    -0.132 NA 
HETATM   10  C   UNL     1      -5.797  13.637  67.551  1.00  0.00     0.030 A  
HETATM   11  C   UNL     1      -5.864  11.295  66.465  1.00  0.00    -0.146 C  
HETATM   12  C   UNL     1      -6.380  12.399  67.306  1.00  0.00    -0.142 A  
HETATM   13  C   UNL     1      -5.886  15.816  68.684  1.00  0.00    -0.101 C  
HETATM   14  C   UNL     1      -7.597  12.032  67.869  1.00  0.00    -0.124 A  
HETATM   15  C   UNL     1      -6.465  14.535  68.390  1.00  0.00    -0.102 A  
HETATM   16  C   UNL     1      -7.703  14.179  68.952  1.00  0.00    -0.091 A  
HETATM   17  C   UNL     1      -8.279  12.929  68.683  1.00  0.00     0.015 A  
BRANCH   7  18
HETATM   18  C   UNL     1      -7.884   9.619  68.620  1.00  0.00    -0.081 A  
HETATM   19  C   UNL     1      -8.579   9.867  69.822  1.00  0.00    -0.219 A  
HETATM   20  F   UNL     1      -7.837   6.879  71.739  1.00  0.00    -0.095 F  
HETATM   21  C   UNL     1      -7.849   7.765  70.735  1.00  0.00    -0.099 A  
HETATM   22  C   UNL     1      -7.164   7.482  69.562  1.00  0.00    -0.082 A  
HETATM   23  C   UNL     1      -7.180   8.404  68.511  1.00  0.00    -0.081 A  
HETATM   24  C   UNL     1      -8.554   8.951  70.876  1.00  0.00    -0.242 A  
ENDBRANCH   7  18
ENDBRANCH   6   7
ENDBRANCH   5   6
ENDBRANCH   4   5
ENDBRANCH   2   4
TORSDOF 5
ENDMDL
MODEL      160
REMARK 921   NORMALIZED FREE ENERGY PREDICTED BY IDOCK:   -1.00 KCAL/MOL
REMARK 922        TOTAL FREE ENERGY PREDICTED BY IDOCK:   -2.16 KCAL/MOL
REMARK 923 INTER-LIGAND FREE ENERGY PREDICTED BY IDOCK:   -3.60 KCAL/MOL
REMARK 924 INTRA-LIGAND FREE ENERGY PREDICTED BY IDOCK:    1.44 KCAL/MOL
REMARK 927      BINDING AFFINITY PREDICTED BY RF-SCORE:    0.00 PKD
ROOT
HETATM    1  C   UNL     1     -11.498  19.388  67.623  1.00  0.00     0.758 C  
HETATM    2  N   UNL     1     -10.818  19.000  66.383  1.00  0.00    -0.281 NA 
HETATM    3  C   UNL     1     -11.122  19.975  65.334  1.00  0.00     0.291 C  
ENDROOT
BRANCH   2   4
HETATM    4  C   UNL     1      -9.370  18.859  66.624  1.00  0.00    -0.330 C  
BRANCH   4   5
HETATM    5  C   UNL     1      -8.856  19.738  67.776  1.00  0.00    -0.386 C  
BRANCH   5   6
HETATM    6  C   UNL     1      -7.874  18.973  68.678  1.00  0.00    -0.383 C  
BRANCH   6   7
HETATM    7  C   UNL     1      -6.894  18.049  67.909  1.00  0.00    -0.199 C  
HETATM    8  O   UNL     1      -5.769  17.810  68.811  1.00  0.00    -0.169 OA 
HETATM    9  N   UNL     1      -8.306  11.383  66.961  1.00  0.00    -0.155 NA 
HETATM   10  C   UNL     1      -6.764  14.353  68.034  1.00  0.00    -0.154 A  
HETATM   11  C   UNL     1      -5.458  16.407  68.897  1.00  0.00    -0.124 C  
HETATM   12  C   UNL     1      -6.555  15.720  68.178  1.00  0.00    -0.136 A  
HETATM   13  C   UNL     1      -8.113  12.517  67.114  1.00  0.00    -0.156 C  
HETATM   14  C   UNL     1      -7.411  16.660  67.617  1.00  0.00    -0.168 A  
HETATM   15  C   UNL     1      -7.874  13.920  67.302  1.00  0.00    -0.134 A  
HETATM   16  C   UNL     1      -8.754  14.863  66.743  1.00  0.00    -0.278 A  
HETATM   17  C   UNL     1      -8.531  16.238  66.909  1.00  0.00    -0.257 A  
BRANCH   7  18
HETATM   18  C   UNL     1      -6.387  18.779  66.650  1.00  0.00    -0.206 A  
HETATM   19  C   UNL     1      -6.246  18.096  65.424  1.00  0.00    -0.205 A  
HETATM   20  F   UNL     1      -5.127  20.751  63.221  1.00  0.00    -0.190 F  
HETATM   21  C   UNL     1      -5.530  20.114  64.328  1.00  0.00    -0.193 A  
HETATM   22  C   UNL     1      -5.669  20.819  65.514  1.00  0.00    -0.259 A  
HETATM   23  C   UNL     1      -6.093  20.156  66.669  1.00  0.00    -0.200 A  
HETATM   24  C   UNL     1      -5.811  18.757  64.272  1.00  0.00    -0.082 A  
ENDBRANCH   7  18
ENDBRANCH   6   7
ENDBRANCH   5   6
ENDBRANCH   4   5
ENDBRANCH   2   4
TORSDOF 5
ENDMDL
MODEL      161
REMARK 921   NORMALIZED FREE ENERGY PREDICTED BY IDOCK:   -0.85 KCAL/MOL
REMARK 922        TOTAL FREE ENERGY PREDICTED BY IDOCK:   -1.98 KCAL/MOL
REMARK 923 INTER-LIGAND FREE ENERGY PREDICTED BY IDOCK:   -1.54 KCAL/MOL
REMARK 924 INTRA-LIGAND FREE ENERGY PREDICTED BY IDOCK:   -0.44 KCAL/MOL
REMARK 927      BINDING AFFINITY PREDICTED BY RF-SCORE:    0.00 PKD
ROOT
HETATM    1  C   UNL     1      -5.689  15.265  72.895  1.00  0.00     0.809 C  
HETATM    2  N   UNL     1      -5.127  14.051  72.295  1.00  0.00    -0.179 NA 
HETATM    3  C   UNL     1      -5.177  12.958  73.268  1.00  0.00     0.331 C  
ENDROOT
BRANCH   2   4
HETATM    4  C   UNL     1      -5.838  13.730  71.044  1.00  0.00    -0.182 C  
BRANCH   4   5
HETATM    5  C   UNL     1      -7.199  14.434  70.919  1.00  0.00     1.309 C  
BRANCH   5   6
HETATM    6  C   UNL     1      -7.058  15.833  70.298  1.00  0.00     0.518 C  
BRANCH   6   7
HETATM    7  C   UNL     1      -7.268  15.870  68.763  1.00  0.00    -0.148 C  
HETATM    8  O   UNL     1      -6.177  15.088  68.185  1.00  0.00    -0.112 OA 
HETATM    9  N   UNL     1     -12.259  12.197  65.774  1.00  0.00    -0.532 NA 
HETATM   10  C   UNL     1      -9.087  13.387  66.708  1.00  0.00    -0.221 A  
HETATM   11  C   UNL     1      -6.670  14.130  67.230  1.00  0.00     0.255 C  
HETATM   12  C   UNL     1      -8.144  14.174  67.359  1.00  0.00    -0.205 A  
HETATM   13  C   UNL     1     -11.446  12.826  66.314  1.00  0.00    -0.354 C  
HETATM   14  C   UNL     1      -8.508  15.165  68.263  1.00  0.00    -0.152 A  
HETATM   15  C   UNL     1     -10.441  13.605  66.980  1.00  0.00    -0.270 A  
HETATM   16  C   UNL     1     -10.818  14.595  67.904  1.00  0.00    -0.261 A  
HETATM   17  C   UNL     1      -9.850  15.371  68.558  1.00  0.00    -0.207 A  
BRANCH   7  18
HETATM   18  C   UNL     1      -7.165  17.326  68.268  1.00  0.00    -0.211 A  
HETATM   19  C   UNL     1      -7.384  17.648  66.913  1.00  0.00    -0.233 A  
HETATM   20  F   UNL     1      -6.997  21.255  66.936  1.00  0.00    -0.372 F  
HETATM   21  C   UNL     1      -7.048  19.987  67.365  1.00  0.00    -0.251 A  
HETATM   22  C   UNL     1      -6.838  19.707  68.708  1.00  0.00    -0.362 A  
HETATM   23  C   UNL     1      -6.895  18.385  69.156  1.00  0.00    -0.260 A  
HETATM   24  C   UNL     1      -7.317  18.969  66.462  1.00  0.00    -0.248 A  
ENDBRANCH   7  18
ENDBRANCH   6   7
ENDBRANCH   5   6
ENDBRANCH   4   5
ENDBRANCH   2   4
TORSDOF 5
ENDMDL
MODEL      162
REMARK 921   NORMALIZED FREE ENERGY PREDICTED BY IDOCK:   -0.48 KCAL/MOL
REMARK 922        TOTAL FREE ENERGY PREDICTED BY IDOCK:   -1.50 KCAL/MOL
REMARK 923 INTER-LIGAND FREE ENERGY PREDICTED BY IDOCK:   -0.83 KCAL/MOL
REMARK 924 INTRA-LIGAND FREE ENERGY PREDICTED BY IDOCK:   -0.67 KCAL/MOL
REMARK 927      BINDING AFFINITY PREDICTED BY RF-SCORE:    0.00 PKD
ROOT
HETATM    1  C   UNL     1      -5.544  14.508  72.677  1.00  0.00     0.044 C  
HETATM    2  N   UNL     1      -5.183  13.266  71.987  1.00  0.00    -0.326 NA 
HETATM    3  C   UNL     1      -5.148  12.164  72.951  1.00  0.00     0.415 C  
ENDROOT
BRANCH   2   4
HETATM    4  C   UNL     1      -6.116  13.016  70.874  1.00  0.00     0.296 C  
BRANCH   4   5
HETATM    5  C   UNL     1      -5.508  12.162  69.749  1.00  0.00    -0.090 C  
BRANCH   5   6
HETATM    6  C   UNL     1      -5.819  10.669  69.940  1.00  0.00    -0.067 C  
BRANCH   6   7
HETATM    7  C   UNL     1      -7.102  10.190  69.214  1.00  0.00    -0.076 C  
HETATM    8  O   UNL     1      -8.120  10.030  70.250  1.00  0.00    -0.162 OA 
HETATM    9  N   UNL     1     -10.842  14.519  65.393  1.00  0.00    -0.332 NA 
HETATM   10  C   UNL     1      -9.857  12.308  67.940  1.00  0.00    -0.201 A  
HETATM   11  C   UNL     1      -9.349  10.681  69.880  1.00  0.00     0.427 C  
HETATM   12  C   UNL     1      -9.030  11.449  68.655  1.00  0.00    -0.133 A  
HETATM   13  C   UNL     1     -10.173  13.809  66.021  1.00  0.00    -0.308 C  
HETATM   14  C   UNL     1      -7.721  11.192  68.267  1.00  0.00    -0.116 A  
HETATM   15  C   UNL     1      -9.344  12.930  66.797  1.00  0.00    -0.243 A  
HETATM   16  C   UNL     1      -8.017  12.688  66.405  1.00  0.00     0.607 A  
HETATM   17  C   UNL     1      -7.196  11.826  67.147  1.00  0.00    -0.147 A  
BRANCH   7  18
HETATM   18  C   UNL     1      -6.835   8.824  68.552  1.00  0.00    -0.064 A  
HETATM   19  C   UNL     1      -5.542   8.261  68.550  1.00  0.00    -0.037 A  
HETATM   20  F   UNL     1      -6.114   5.096  66.873  1.00  0.00    -0.026 F  
HETATM   21  C   UNL     1      -6.346   6.300  67.411  1.00  0.00    -0.037 A  
HETATM   22  C   UNL     1      -7.633   6.819  67.407  1.00  0.00    -0.105 A  
HETATM   23  C   UNL     1      -7.875   8.074  67.972  1.00  0.00    -0.126 A  
HETATM   24  C   UNL     1      -5.297   7.011  67.975  1.00  0.00    -0.020 A  
ENDBRANCH   7  18
ENDBRANCH   6   7
ENDBRANCH   5   6
ENDBRANCH   4   5
ENDBRANCH   2   4
TORSDOF 5
ENDMDL
MODEL      163
REMARK 921   NORMALIZED FREE ENERGY PREDICTED BY IDOCK:    1.43 KCAL/MOL
REMARK 922        TOTAL FREE ENERGY PREDICTED BY IDOCK:    0.97 KCAL/MOL
REMARK 923 INTER-LIGAND FREE ENERGY PREDICTED BY IDOCK:    1.90 KCAL/MOL
REMARK 924 INTRA-LIGAND FREE ENERGY PREDICTED BY IDOCK:   -0.93 KCAL/MOL
REMARK 927      BINDING AFFINITY PREDICTED BY RF-SCORE:    0.00 PKD
ROOT
HETATM    1  C   UNL     1     -11.102   3.281  67.027  1.00  0.00     5.739 C  
HETATM    2  N   UNL     1     -10.073   4.306  67.231  1.00  0.00    -0.080 NA 
HETATM    3  C   UNL     1      -9.693   4.881  65.939  1.00  0.00    -0.184 C  
ENDROOT
BRANCH   2   4
HETATM    4  C   UNL     1     -10.555   5.322  68.184  1.00  0.00    -0.006 C  
BRANCH   4   5
HETATM    5  C   UNL     1     -11.335   6.465  67.513  1.00  0.00    -0.081 C  
BRANCH   5   6
HETATM    6  C   UNL     1     -11.410   7.707  68.416  1.00  0.00     0.634 C  
BRANCH   6   7
HETATM    7  C   UNL     1     -10.191   8.657  68.290  1.00  0.00    -0.198 C  
HETATM    8  O   UNL     1      -9.303   8.049  67.301  1.00  0.00    -0.137 OA 
HETATM    9  N   UNL     1     -10.706  14.671  64.989  1.00  0.00    -0.404 NA 
HETATM   10  C   UNL     1      -9.754  11.398  65.842  1.00  0.00    -0.257 A  
HETATM   11  C   UNL     1      -8.894   9.008  66.308  1.00  0.00    -0.151 C  
HETATM   12  C   UNL     1      -9.714  10.213  66.568  1.00  0.00    -0.252 A  
HETATM   13  C   UNL     1     -10.662  13.663  65.563  1.00  0.00    -0.296 C  
HETATM   14  C   UNL     1     -10.490  10.017  67.704  1.00  0.00    -0.297 A  
HETATM   15  C   UNL     1     -10.607  12.418  66.275  1.00  0.00    -0.277 A  
HETATM   16  C   UNL     1     -11.407  12.224  67.413  1.00  0.00    -0.389 A  
HETATM   17  C   UNL     1     -11.360  11.016  68.126  1.00  0.00    -0.374 A  
BRANCH   7  18
HETATM   18  C   UNL     1      -9.462   8.734  69.645  1.00  0.00    -0.170 A  
HETATM   19  C   UNL     1     -10.149   8.492  70.853  1.00  0.00    -0.246 A  
HETATM   20  F   UNL     1      -7.492   8.829  73.298  1.00  0.00    -0.112 F  
HETATM   21  C   UNL     1      -8.128   8.802  72.120  1.00  0.00     0.048 A  
HETATM   22  C   UNL     1      -7.418   9.033  70.951  1.00  0.00    -0.128 A  
HETATM   23  C   UNL     1      -8.081   9.001  69.721  1.00  0.00    -0.109 A  
HETATM   24  C   UNL     1      -9.488   8.535  72.083  1.00  0.00    -0.375 A  
ENDBRANCH   7  18
ENDBRANCH   6   7
ENDBRANCH   5   6
ENDBRANCH   4   5
ENDBRANCH   2   4
TORSDOF 5
ENDMDL
MODEL      164
REMARK 921   NORMALIZED FREE ENERGY PREDICTED BY IDOCK:    1.62 KCAL/MOL
REMARK 922        TOTAL FREE ENERGY PREDICTED BY IDOCK:    1.23 KCAL/MOL
REMARK 923 INTER-LIGAND FREE ENERGY PREDICTED BY IDOCK:   -1.87 KCAL/MOL
REMARK 924 INTRA-LIGAND FREE ENERGY PREDICTED BY IDOCK:    3.09 KCAL/MOL
REMARK 927      BINDING AFFINITY PREDICTED BY RF-SCORE:    0.00 PKD
ROOT
HETATM    1  C   UNL     1     -10.827   9.918  67.504  1.00  0.00    -0.243 C  
HETATM    2  N   UNL     1     -10.479  11.120  66.739  1.00  0.00    -0.241 NA 
HETATM    3  C   UNL     1     -10.393  12.267  67.645  1.00  0.00    -0.204 C  
ENDROOT
BRANCH   2   4
HETATM    4  C   UNL     1      -9.230  10.896  65.988  1.00  0.00    -0.188 C  
BRANCH   4   5
HETATM    5  C   UNL     1      -9.071   9.451  65.487  1.00  0.00    -0.270 C  
BRANCH   5   6
HETATM    6  C   UNL     1      -8.621   8.507  66.614  1.00  0.00    -0.122 C  
BRANCH   6   7
HETATM    7  C   UNL     1      -7.325   8.954  67.338  1.00  0.00    -0.081 C  
HETATM    8  O   UNL     1      -6.311   9.107  66.297  1.00  0.00    -0.063 OA 
HETATM    9  N   UNL     1      -6.642  15.357  69.758  1.00  0.00    -0.171 NA 
HETATM   10  C   UNL     1      -6.167  12.427  67.877  1.00  0.00    -0.093 A  
HETATM   11  C   UNL     1      -5.628  10.369  66.414  1.00  0.00    -0.061 C  
HETATM   12  C   UNL     1      -6.377  11.123  67.445  1.00  0.00    -0.067 A  
HETATM   13  C   UNL     1      -6.802  14.278  69.363  1.00  0.00    -0.122 C  
HETATM   14  C   UNL     1      -7.381  10.322  67.977  1.00  0.00    -0.086 A  
HETATM   15  C   UNL     1      -6.999  12.942  68.877  1.00  0.00    -0.084 A  
HETATM   16  C   UNL     1      -8.027  12.146  69.409  1.00  0.00     0.694 A  
HETATM   17  C   UNL     1      -8.229  10.835  68.952  1.00  0.00    -0.149 A  
BRANCH   7  18
HETATM   18  C   UNL     1      -6.882   7.852  68.319  1.00  0.00    -0.071 A  
HETATM   19  C   UNL     1      -7.501   6.584  68.313  1.00  0.00    -0.095 A  
HETATM   20  F   UNL     1      -5.629   4.831  70.877  1.00  0.00    -0.009 F  
HETATM   21  C   UNL     1      -6.036   5.807  70.054  1.00  0.00    -0.025 A  
HETATM   22  C   UNL     1      -5.396   7.037  70.079  1.00  0.00    -0.019 A  
HETATM   23  C   UNL     1      -5.817   8.054  69.218  1.00  0.00    -0.034 A  
HETATM   24  C   UNL     1      -7.087   5.571  69.181  1.00  0.00    -0.064 A  
ENDBRANCH   7  18
ENDBRANCH   6   7
ENDBRANCH   5   6
ENDBRANCH   4   5
ENDBRANCH   2   4
TORSDOF 5
ENDMDL
MODEL      165
REMARK 921   NORMALIZED FREE ENERGY PREDICTED BY IDOCK:    2.54 KCAL/MOL
REMARK 922        TOTAL FREE ENERGY PREDICTED BY IDOCK:    2.41 KCAL/MOL
REMARK 923 INTER-LIGAND FREE ENERGY PREDICTED BY IDOCK:    0.51 KCAL/MOL
REMARK 924 INTRA-LIGAND FREE ENERGY PREDICTED BY IDOCK:    1.90 KCAL/MOL
REMARK 927      BINDING AFFINITY PREDICTED BY RF-SCORE:    0.00 PKD
ROOT
HETATM    1  C   UNL     1     -12.676  13.743  73.797  1.00  0.00     2.154 C  
HETATM    2  N   UNL     1     -12.026  14.056  72.520  1.00  0.00     0.447 NA 
HETATM    3  C   UNL     1     -12.395  13.048  71.524  1.00  0.00     0.091 C  
ENDROOT
BRANCH   2   4
HETATM    4  C   UNL     1     -12.375  15.425  72.098  1.00  0.00    -0.379 C  
BRANCH   4   5
HETATM    5  C   UNL     1     -12.683  15.539  70.595  1.00  0.00    -0.487 C  
BRANCH   5   6
HETATM    6  C   UNL     1     -11.420  15.869  69.782  1.00  0.00    -0.342 C  
BRANCH   6   7
HETATM    7  C   UNL     1     -10.833  14.663  69.005  1.00  0.00    -0.245 C  
HETATM    8  O   UNL     1     -11.297  13.465  69.702  1.00  0.00    -0.227 OA 
HETATM    9  N   UNL     1     -13.379  12.800  62.892  1.00  0.00     0.832 NA 
HETATM   10  C   UNL     1     -12.471  12.760  66.286  1.00  0.00     0.095 A  
HETATM   11  C   UNL     1     -11.860  12.511  68.783  1.00  0.00    -0.303 C  
HETATM   12  C   UNL     1     -11.935  13.218  67.484  1.00  0.00    -0.371 A  
HETATM   13  C   UNL     1     -12.956  13.159  63.911  1.00  0.00     0.380 C  
HETATM   14  C   UNL     1     -11.362  14.479  67.602  1.00  0.00    -0.354 A  
HETATM   15  C   UNL     1     -12.430  13.603  65.171  1.00  0.00    -0.488 A  
HETATM   16  C   UNL     1     -11.866  14.885  65.283  1.00  0.00    -0.217 A  
HETATM   17  C   UNL     1     -11.340  15.332  66.504  1.00  0.00    -0.168 A  
BRANCH   7  18
HETATM   18  C   UNL     1      -9.294  14.718  69.064  1.00  0.00    -0.160 A  
HETATM   19  C   UNL     1      -8.633  15.378  70.121  1.00  0.00     0.604 A  
HETATM   20  F   UNL     1      -5.150  14.784  69.302  1.00  0.00    -0.087 F  
HETATM   21  C   UNL     1      -6.487  14.766  69.224  1.00  0.00    -0.121 A  
HETATM   22  C   UNL     1      -7.104  14.097  68.177  1.00  0.00    -0.127 A  
HETATM   23  C   UNL     1      -8.499  14.074  68.097  1.00  0.00    -0.172 A  
HETATM   24  C   UNL     1      -7.238  15.410  70.195  1.00  0.00     0.158 A  
ENDBRANCH   7  18
ENDBRANCH   6   7
ENDBRANCH   5   6
ENDBRANCH   4   5
ENDBRANCH   2   4
TORSDOF 5
ENDMDL
MODEL      166
REMARK 921   NORMALIZED FREE ENERGY PREDICTED BY IDOCK:    3.29 KCAL/MOL
REMARK 922        TOTAL FREE ENERGY PREDICTED BY IDOCK:    3.38 KCAL/MOL
REMARK 923 INTER-LIGAND FREE ENERGY PREDICTED BY IDOCK:    0.28 KCAL/MOL
REMARK 924 INTRA-LIGAND FREE ENERGY PREDICTED BY IDOCK:    3.09 KCAL/MOL
REMARK 927      BINDING AFFINITY PREDICTED BY RF-SCORE:    0.00 PKD
ROOT
HETATM    1  C   UNL     1      -5.211  19.212  68.584  1.00  0.00    -0.189 C  
HETATM    2  N   UNL     1      -6.584  18.698  68.569  1.00  0.00    -0.228 NA 
HETATM    3  C   UNL     1      -7.522  19.814  68.437  1.00  0.00    -0.314 C  
ENDROOT
BRANCH   2   4
HETATM    4  C   UNL     1      -6.738  17.699  67.496  1.00  0.00    -0.163 C  
BRANCH   4   5
HETATM    5  C   UNL     1      -5.779  16.504  67.634  1.00  0.00    -0.159 C  
BRANCH   5   6
HETATM    6  C   UNL     1      -6.520  15.164  67.497  1.00  0.00    -0.138 C  
BRANCH   6   7
HETATM    7  C   UNL     1      -8.003  15.210  67.945  1.00  0.00    -0.135 C  
HETATM    8  O   UNL     1      -7.986  15.495  69.378  1.00  0.00    -0.219 OA 
HETATM    9  N   UNL     1     -12.031  20.550  66.338  1.00  0.00     2.966 NA 
HETATM   10  C   UNL     1     -10.164  18.206  68.172  1.00  0.00    -0.400 A  
HETATM   11  C   UNL     1      -8.888  16.568  69.708  1.00  0.00     0.699 C  
HETATM   12  C   UNL     1      -9.339  17.111  68.407  1.00  0.00    -0.273 A  
HETATM   13  C   UNL     1     -11.332  19.653  66.567  1.00  0.00     0.448 C  
HETATM   14  C   UNL     1      -8.816  16.347  67.371  1.00  0.00    -0.194 A  
HETATM   15  C   UNL     1     -10.469  18.541  66.849  1.00  0.00    -0.434 A  
HETATM   16  C   UNL     1      -9.932  17.783  65.795  1.00  0.00    -0.001 A  
HETATM   17  C   UNL     1      -9.094  16.689  66.052  1.00  0.00    -0.259 A  
BRANCH   7  18
HETATM   18  C   UNL     1      -8.650  13.831  67.711  1.00  0.00    -0.184 A  
HETATM   19  C   UNL     1      -8.810  13.316  66.408  1.00  0.00     0.101 A  
HETATM   20  F   UNL     1     -10.289  10.071  67.067  1.00  0.00    -0.247 F  
HETATM   21  C   UNL     1      -9.763  11.286  67.275  1.00  0.00    -0.174 A  
HETATM   22  C   UNL     1      -9.610  11.755  68.571  1.00  0.00    -0.173 A  
HETATM   23  C   UNL     1      -9.058  13.021  68.788  1.00  0.00     0.168 A  
HETATM   24  C   UNL     1      -9.371  12.056  66.190  1.00  0.00    -0.217 A  
ENDBRANCH   7  18
ENDBRANCH   6   7
ENDBRANCH   5   6
ENDBRANCH   4   5
ENDBRANCH   2   4
TORSDOF 5
ENDMDL
MODEL      167
REMARK 921   NORMALIZED FREE ENERGY PREDICTED BY IDOCK:    4.87 KCAL/MOL
REMARK 922        TOTAL FREE ENERGY PREDICTED BY IDOCK:    5.43 KCAL/MOL
REMARK 923 INTER-LIGAND FREE ENERGY PREDICTED BY IDOCK:    5.99 KCAL/MOL
REMARK 924 INTRA-LIGAND FREE ENERGY PREDICTED BY IDOCK:   -0.56 KCAL/MOL
REMARK 927      BINDING AFFINITY PREDICTED BY RF-SCORE:    0.00 PKD
ROOT
HETATM    1  C   UNL     1     -10.317  16.888  70.816  1.00  0.00     1.511 C  
HETATM    2  N   UNL     1     -11.150  18.076  70.609  1.00  0.00     2.193 NA 
HETATM    3  C   UNL     1     -10.782  19.107  71.582  1.00  0.00     3.721 C  
ENDROOT
BRANCH   2   4
HETATM    4  C   UNL     1     -11.026  18.543  69.216  1.00  0.00     1.552 C  
BRANCH   4   5
HETATM    5  C   UNL     1      -9.916  17.825  68.430  1.00  0.00    -0.362 C  
BRANCH   5   6
HETATM    6  C   UNL     1     -10.479  17.071  67.214  1.00  0.00    -0.301 C  
BRANCH   6   7
HETATM    7  C   UNL     1      -9.603  15.881  66.745  1.00  0.00    -0.236 C  
HETATM    8  O   UNL     1      -8.577  16.451  65.874  1.00  0.00    -0.407 OA 
HETATM    9  N   UNL     1      -5.133  12.862  71.014  1.00  0.00    -0.135 NA 
HETATM   10  C   UNL     1      -6.481  14.663  68.315  1.00  0.00    -0.121 A  
HETATM   11  C   UNL     1      -7.265  15.983  66.238  1.00  0.00     0.755 C  
HETATM   12  C   UNL     1      -7.452  15.248  67.510  1.00  0.00    -0.216 A  
HETATM   13  C   UNL     1      -5.917  13.375  70.329  1.00  0.00    -0.141 C  
HETATM   14  C   UNL     1      -8.804  15.199  67.830  1.00  0.00    -0.166 A  
HETATM   15  C   UNL     1      -6.887  14.009  69.482  1.00  0.00    -0.052 A  
HETATM   16  C   UNL     1      -8.250  13.967  69.822  1.00  0.00     0.985 A  
HETATM   17  C   UNL     1      -9.213  14.573  69.002  1.00  0.00    -0.059 A  
BRANCH   7  18
HETATM   18  C   UNL     1     -10.470  14.900  65.931  1.00  0.00    -0.327 A  
HETATM   19  C   UNL     1     -10.266  13.508  66.019  1.00  0.00    -0.308 A  
HETATM   20  F   UNL     1     -12.864  12.237  63.831  1.00  0.00    -0.525 F  
HETATM   21  C   UNL     1     -12.089  13.096  64.506  1.00  0.00    -0.404 A  
HETATM   22  C   UNL     1     -12.326  14.459  64.404  1.00  0.00    -0.428 A  
HETATM   23  C   UNL     1     -11.520  15.356  65.111  1.00  0.00    -0.208 A  
HETATM   24  C   UNL     1     -11.064  12.611  65.304  1.00  0.00    -0.330 A  
ENDBRANCH   7  18
ENDBRANCH   6   7
ENDBRANCH   5   6
ENDBRANCH   4   5
ENDBRANCH   2   4
TORSDOF 5
ENDMDL
MODEL      168
REMARK 921   NORMALIZED FREE ENERGY PREDICTED BY IDOCK:    5.40 KCAL/MOL
REMARK 922        TOTAL FREE ENERGY PREDICTED BY IDOCK:    6.10 KCAL/MOL
REMARK 923 INTER-LIGAND FREE ENERGY PREDICTED BY IDOCK:   -0.74 KCAL/MOL
REMARK 924 INTRA-LIGAND FREE ENERGY PREDICTED BY IDOCK:    6.84 KCAL/MOL
REMARK 927      BINDING AFFINITY PREDICTED BY RF-SCORE:    0.00 PKD
ROOT
HETATM    1  C   UNL     1      -7.309  17.459  68.268  1.00  0.00    -0.214 C  
HETATM    2  N   UNL     1      -5.958  16.897  68.349  1.00  0.00    -0.132 NA 
HETATM    3  C   UNL     1      -5.764  16.277  69.661  1.00  0.00    -0.163 C  
ENDROOT
BRANCH   2   4
HETATM    4  C   UNL     1      -5.736  15.953  67.238  1.00  0.00     0.038 C  
BRANCH   4   5
HETATM    5  C   UNL     1      -6.590  16.261  65.997  1.00  0.00     1.725 C  
BRANCH   5   6
HETATM    6  C   UNL     1      -7.438  17.528  66.193  1.00  0.00    -0.334 C  
BRANCH   6   7
HETATM    7  C   UNL     1      -8.946  17.253  66.425  1.00  0.00    -0.252 C  
HETATM    8  O   UNL     1      -9.586  17.370  65.116  1.00  0.00     0.323 OA 
HETATM    9  N   UNL     1     -11.248  10.883  67.628  1.00  0.00    -0.356 NA 
HETATM   10  C   UNL     1     -10.686  14.002  66.110  1.00  0.00    -0.289 A  
HETATM   11  C   UNL     1     -10.438  16.242  64.848  1.00  0.00     0.014 C  
HETATM   12  C   UNL     1     -10.170  15.282  65.944  1.00  0.00    -0.353 A  
HETATM   13  C   UNL     1     -10.823  11.948  67.451  1.00  0.00    -0.243 C  
HETATM   14  C   UNL     1      -9.288  15.846  66.857  1.00  0.00    -0.244 A  
HETATM   15  C   UNL     1     -10.297  13.266  67.234  1.00  0.00    -0.247 A  
HETATM   16  C   UNL     1      -9.393  13.822  68.155  1.00  0.00    -0.211 A  
HETATM   17  C   UNL     1      -8.876  15.111  67.963  1.00  0.00    -0.170 A  
BRANCH   7  18
HETATM   18  C   UNL     1      -9.522  18.328  67.367  1.00  0.00    -0.266 A  
HETATM   19  C   UNL     1     -10.386  17.977  68.425  1.00  0.00    -0.377 A  
HETATM   20  F   UNL     1     -10.997  21.195  69.983  1.00  0.00     0.010 F  
HETATM   21  C   UNL     1     -10.525  20.270  69.137  1.00  0.00     0.252 A  
HETATM   22  C   UNL     1      -9.667  20.650  68.114  1.00  0.00    -0.086 A  
HETATM   23  C   UNL     1      -9.170  19.685  67.234  1.00  0.00    -0.416 A  
HETATM   24  C   UNL     1     -10.892  18.943  69.299  1.00  0.00     1.250 A  
ENDBRANCH   7  18
ENDBRANCH   6   7
ENDBRANCH   5   6
ENDBRANCH   4   5
ENDBRANCH   2   4
TORSDOF 5
ENDMDL
MODEL      169
REMARK 921   NORMALIZED FREE ENERGY PREDICTED BY IDOCK:    6.53 KCAL/MOL
REMARK 922        TOTAL FREE ENERGY PREDICTED BY IDOCK:    7.57 KCAL/MOL
REMARK 923 INTER-LIGAND FREE ENERGY PREDICTED BY IDOCK:    6.00 KCAL/MOL
REMARK 924 INTRA-LIGAND FREE ENERGY PREDICTED BY IDOCK:    1.57 KCAL/MOL
REMARK 927      BINDING AFFINITY PREDICTED BY RF-SCORE:    0.00 PKD
ROOT
HETATM    1  C   UNL     1     -11.061  19.586  67.486  1.00  0.00    -0.111 C  
HETATM    2  N   UNL     1      -9.703  19.357  67.989  1.00  0.00    -0.335 NA 
HETATM    3  C   UNL     1      -9.333  20.440  68.903  1.00  0.00     0.496 C  
ENDROOT
BRANCH   2   4
HETATM    4  C   UNL     1      -9.615  18.028  68.620  1.00  0.00    -0.328 C  
BRANCH   4   5
HETATM    5  C   UNL     1     -10.331  16.926  67.821  1.00  0.00    -0.327 C  
BRANCH   5   6
HETATM    6  C   UNL     1      -9.603  15.577  67.937  1.00  0.00    -0.206 C  
BRANCH   6   7
HETATM    7  C   UNL     1      -8.061  15.696  68.054  1.00  0.00    -0.136 C  
HETATM    8  O   UNL     1      -7.615  16.388  66.846  1.00  0.00    -0.189 OA 
HETATM    9  N   UNL     1      -5.168  20.180  72.395  1.00  0.00    -0.142 NA 
HETATM   10  C   UNL     1      -6.152  18.545  69.444  1.00  0.00    -0.268 A  
HETATM   11  C   UNL     1      -6.728  17.476  67.165  1.00  0.00    -0.168 C  
HETATM   12  C   UNL     1      -6.776  17.598  68.640  1.00  0.00    -0.217 A  
HETATM   13  C   UNL     1      -5.688  19.416  71.695  1.00  0.00    -0.173 C  
HETATM   14  C   UNL     1      -7.565  16.585  69.171  1.00  0.00    -0.210 A  
HETATM   15  C   UNL     1      -6.332  18.468  70.829  1.00  0.00     0.794 A  
HETATM   16  C   UNL     1      -7.140  17.456  71.374  1.00  0.00     5.478 A  
HETATM   17  C   UNL     1      -7.770  16.517  70.544  1.00  0.00     2.738 A  
BRANCH   7  18
HETATM   18  C   UNL     1      -7.442  14.286  68.087  1.00  0.00    -0.131 A  
HETATM   19  C   UNL     1      -8.029  13.219  67.376  1.00  0.00    -0.175 A  
HETATM   20  F   UNL     1      -5.727  10.505  68.075  1.00  0.00    -0.041 F  
HETATM   21  C   UNL     1      -6.282  11.724  68.082  1.00  0.00    -0.050 A  
HETATM   22  C   UNL     1      -5.671  12.753  68.783  1.00  0.00    -0.067 A  
HETATM   23  C   UNL     1      -6.248  14.026  68.787  1.00  0.00    -0.087 A  
HETATM   24  C   UNL     1      -7.458  11.944  67.380  1.00  0.00    -0.148 A  
ENDBRANCH   7  18
ENDBRANCH   6   7
ENDBRANCH   5   6
ENDBRANCH   4   5
ENDBRANCH   2   4
TORSDOF 5
ENDMDL
MODEL      170
REMARK 921   NORMALIZED FREE ENERGY PREDICTED BY IDOCK:    8.41 KCAL/MOL
REMARK 922        TOTAL FREE ENERGY PREDICTED BY IDOCK:    9.99 KCAL/MOL
REMARK 923 INTER-LIGAND FREE ENERGY PREDICTED BY IDOCK:    6.74 KCAL/MOL
REMARK 924 INTRA-LIGAND FREE ENERGY PREDICTED BY IDOCK:    3.25 KCAL/MOL
REMARK 927      BINDING AFFINITY PREDICTED BY RF-SCORE:    0.00 PKD
ROOT
HETATM    1  C   UNL     1     -10.707  11.992  62.651  1.00  0.00     1.038 C  
HETATM    2  N   UNL     1     -11.089  11.642  64.022  1.00  0.00    -0.373 NA 
HETATM    3  C   UNL     1     -11.173  10.186  64.150  1.00  0.00     3.226 C  
ENDROOT
BRANCH   2   4
HETATM    4  C   UNL     1     -10.142  12.241  64.979  1.00  0.00    -0.253 C  
BRANCH   4   5
HETATM    5  C   UNL     1      -8.978  11.306  65.351  1.00  0.00    -0.106 C  
BRANCH   5   6
HETATM    6  C   UNL     1      -9.457  10.113  66.193  1.00  0.00    -0.238 C  
BRANCH   6   7
HETATM    7  C   UNL     1      -9.875  10.484  67.640  1.00  0.00    -0.166 C  
HETATM    8  O   UNL     1     -10.587   9.322  68.167  1.00  0.00    -0.221 OA 
HETATM    9  N   UNL     1      -5.248  10.688  72.727  1.00  0.00    -0.305 NA 
HETATM   10  C   UNL     1      -8.001   9.762  70.748  1.00  0.00     0.185 A  
HETATM   11  C   UNL     1     -10.091   8.951  69.467  1.00  0.00    -0.198 C  
HETATM   12  C   UNL     1      -8.887   9.787  69.678  1.00  0.00    -0.224 A  
HETATM   13  C   UNL     1      -5.997  10.672  71.840  1.00  0.00     0.842 C  
HETATM   14  C   UNL     1      -8.735  10.669  68.614  1.00  0.00    -0.148 A  
HETATM   15  C   UNL     1      -6.923  10.654  70.744  1.00  0.00     0.760 A  
HETATM   16  C   UNL     1      -6.752  11.539  69.665  1.00  0.00    -0.083 A  
HETATM   17  C   UNL     1      -7.652  11.540  68.590  1.00  0.00    -0.134 A  
BRANCH   7  18
HETATM   18  C   UNL     1     -10.833  11.690  67.601  1.00  0.00    -0.273 A  
HETATM   19  C   UNL     1     -10.535  12.876  68.302  1.00  0.00    -0.250 A  
HETATM   20  F   UNL     1     -13.348  14.989  67.420  1.00  0.00     1.709 F  
HETATM   21  C   UNL     1     -12.538  13.923  67.481  1.00  0.00     0.400 A  
HETATM   22  C   UNL     1     -12.857  12.777  66.769  1.00  0.00     1.591 A  
HETATM   23  C   UNL     1     -12.011  11.666  66.829  1.00  0.00     0.273 A  
HETATM   24  C   UNL     1     -11.386  13.983  68.251  1.00  0.00    -0.317 A  
ENDBRANCH   7  18
ENDBRANCH   6   7
ENDBRANCH   5   6
ENDBRANCH   4   5
ENDBRANCH   2   4
TORSDOF 5
ENDMDL
MODEL      171
REMARK 921   NORMALIZED FREE ENERGY PREDICTED BY IDOCK:   11.01 KCAL/MOL
REMARK 922        TOTAL FREE ENERGY PREDICTED BY IDOCK:   13.35 KCAL/MOL
REMARK 923 INTER-LIGAND FREE ENERGY PREDICTED BY IDOCK:    4.25 KCAL/MOL
REMARK 924 INTRA-LIGAND FREE ENERGY PREDICTED BY IDOCK:    9.09 KCAL/MOL
REMARK 927      BINDING AFFINITY PREDICTED BY RF-SCORE:    0.00 PKD
ROOT
HETATM    1  C   UNL     1      -5.347  19.434  68.624  1.00  0.00    -0.194 C  
HETATM    2  N   UNL     1      -6.766  19.072  68.548  1.00  0.00    -0.257 NA 
HETATM    3  C   UNL     1      -7.584  20.216  68.954  1.00  0.00     0.035 C  
ENDROOT
BRANCH   2   4
HETATM    4  C   UNL     1      -7.094  18.593  67.193  1.00  0.00    -0.204 C  
BRANCH   4   5
HETATM    5  C   UNL     1      -6.036  17.640  66.611  1.00  0.00    -0.217 C  
BRANCH   5   6
HETATM    6  C   UNL     1      -6.614  16.239  66.357  1.00  0.00     0.622 C  
BRANCH   6   7
HETATM    7  C   UNL     1      -7.840  15.889  67.238  1.00  0.00    -0.187 C  
HETATM    8  O   UNL     1      -7.306  15.285  68.457  1.00  0.00    -0.112 OA 
HETATM    9  N   UNL     1     -11.367  20.798  70.523  1.00  0.00     3.413 NA 
HETATM   10  C   UNL     1      -9.350  17.993  69.882  1.00  0.00     1.328 A  
HETATM   11  C   UNL     1      -7.883  15.882  69.633  1.00  0.00     0.019 C  
HETATM   12  C   UNL     1      -8.660  17.042  69.139  1.00  0.00    -0.024 A  
HETATM   13  C   UNL     1     -10.767  19.999  69.932  1.00  0.00     1.101 C  
HETATM   14  C   UNL     1      -8.627  17.073  67.750  1.00  0.00    -0.213 A  
HETATM   15  C   UNL     1     -10.027  19.009  69.201  1.00  0.00    -0.306 A  
HETATM   16  C   UNL     1      -9.987  19.058  67.797  1.00  0.00    -0.426 A  
HETATM   17  C   UNL     1      -9.276  18.095  67.067  1.00  0.00    -0.270 A  
BRANCH   7  18
HETATM   18  C   UNL     1      -8.718  14.856  66.505  1.00  0.00    -0.204 A  
HETATM   19  C   UNL     1      -9.169  15.092  65.190  1.00  0.00     1.035 A  
HETATM   20  F   UNL     1     -10.990  12.039  64.471  1.00  0.00    -0.312 F  
HETATM   21  C   UNL     1     -10.260  12.949  65.128  1.00  0.00    -0.271 A  
HETATM   22  C   UNL     1      -9.823  12.678  66.417  1.00  0.00    -0.263 A  
HETATM   23  C   UNL     1      -9.058  13.626  67.101  1.00  0.00    -0.241 A  
HETATM   24  C   UNL     1      -9.943  14.149  64.509  1.00  0.00     0.403 A  
ENDBRANCH   7  18
ENDBRANCH   6   7
ENDBRANCH   5   6
ENDBRANCH   4   5
ENDBRANCH   2   4
TORSDOF 5
ENDMDL
MODEL      172
REMARK 921   NORMALIZED FREE ENERGY PREDICTED BY IDOCK:   11.28 KCAL/MOL
REMARK 922        TOTAL FREE ENERGY PREDICTED BY IDOCK:   13.70 KCAL/MOL
REMARK 923 INTER-LIGAND FREE ENERGY PREDICTED BY IDOCK:   -2.53 KCAL/MOL
REMARK 924 INTRA-LIGAND FREE ENERGY PREDICTED BY IDOCK:   16.22 KCAL/MOL
REMARK 927      BINDING AFFINITY PREDICTED BY RF-SCORE:    0.00 PKD
ROOT
HETATM    1  C   UNL     1     -10.187  17.492  68.893  1.00  0.00    -0.353 C  
HETATM    2  N   UNL     1      -9.622  16.620  67.859  1.00  0.00    -0.231 NA 
HETATM    3  C   UNL     1      -8.938  15.490  68.493  1.00  0.00    -0.191 C  
ENDROOT
BRANCH   2   4
HETATM    4  C   UNL     1     -10.680  16.191  66.926  1.00  0.00    -0.247 C  
BRANCH   4   5
HETATM    5  C   UNL     1     -10.141  15.443  65.696  1.00  0.00    -0.406 C  
BRANCH   5   6
HETATM    6  C   UNL     1     -10.372  13.927  65.807  1.00  0.00    -0.326 C  
BRANCH   6   7
HETATM    7  C   UNL     1     -10.146  13.354  67.230  1.00  0.00    -0.238 C  
HETATM    8  O   UNL     1     -11.213  13.904  68.063  1.00  0.00    -0.252 OA 
HETATM    9  N   UNL     1     -11.601   6.789  68.681  1.00  0.00     0.157 NA 
HETATM   10  C   UNL     1     -11.671  10.302  68.663  1.00  0.00     0.019 A  
HETATM   11  C   UNL     1     -11.862  12.872  68.829  1.00  0.00    -0.315 C  
HETATM   12  C   UNL     1     -11.316  11.598  68.308  1.00  0.00    -0.348 A  
HETATM   13  C   UNL     1     -11.340   7.882  68.395  1.00  0.00     0.815 C  
HETATM   14  C   UNL     1     -10.333  11.860  67.361  1.00  0.00    -0.228 A  
HETATM   15  C   UNL     1     -11.015   9.236  68.041  1.00  0.00    -0.076 A  
HETATM   16  C   UNL     1     -10.030   9.490  67.071  1.00  0.00    -0.273 A  
HETATM   17  C   UNL     1      -9.694  10.806  66.720  1.00  0.00    -0.221 A  
BRANCH   7  18
HETATM   18  C   UNL     1      -8.785  13.839  67.765  1.00  0.00    -0.182 A  
HETATM   19  C   UNL     1      -7.891  14.548  66.936  1.00  0.00     0.135 A  
HETATM   20  F   UNL     1      -5.161  15.249  69.219  1.00  0.00    -0.092 F  
HETATM   21  C   UNL     1      -6.328  14.791  68.749  1.00  0.00    -0.086 A  
HETATM   22  C   UNL     1      -7.189  14.107  69.595  1.00  0.00     0.107 A  
HETATM   23  C   UNL     1      -8.409  13.633  69.107  1.00  0.00     0.412 A  
HETATM   24  C   UNL     1      -6.666  15.013  67.422  1.00  0.00    -0.104 A  
ENDBRANCH   7  18
ENDBRANCH   6   7
ENDBRANCH   5   6
ENDBRANCH   4   5
ENDBRANCH   2   4
TORSDOF 5
ENDMDL
MODEL      173
REMARK 921   NORMALIZED FREE ENERGY PREDICTED BY IDOCK:   16.36 KCAL/MOL
REMARK 922        TOTAL FREE ENERGY PREDICTED BY IDOCK:   20.27 KCAL/MOL
REMARK 923 INTER-LIGAND FREE ENERGY PREDICTED BY IDOCK:    6.57 KCAL/MOL
REMARK 924 INTRA-LIGAND FREE ENERGY PREDICTED BY IDOCK:   13.70 KCAL/MOL
REMARK 927      BINDING AFFINITY PREDICTED BY RF-SCORE:    0.00 PKD
ROOT
HETATM    1  C   UNL     1      -9.311  20.330  69.146  1.00  0.00     0.447 C  
HETATM    2  N   UNL     1      -8.921  20.084  67.754  1.00  0.00    -0.325 NA 
HETATM    3  C   UNL     1      -9.073  21.316  66.978  1.00  0.00     0.554 C  
ENDROOT
BRANCH   2   4
HETATM    4  C   UNL     1      -7.548  19.547  67.701  1.00  0.00    -0.266 C  
BRANCH   4   5
HETATM    5  C   UNL     1      -6.962  19.237  69.089  1.00  0.00    -0.375 C  
BRANCH   5   6
HETATM    6  C   UNL     1      -7.138  17.756  69.461  1.00  0.00     0.089 C  
BRANCH   6   7
HETATM    7  C   UNL     1      -7.658  16.868  68.301  1.00  0.00    -0.202 C  
HETATM    8  O   UNL     1      -6.650  15.828  68.103  1.00  0.00    -0.113 OA 
HETATM    9  N   UNL     1     -12.855  12.463  69.256  1.00  0.00     0.885 NA 
HETATM   10  C   UNL     1      -9.660  13.770  68.599  1.00  0.00    -0.121 A  
HETATM   11  C   UNL     1      -7.251  14.521  68.050  1.00  0.00    -0.142 C  
HETATM   12  C   UNL     1      -8.667  14.728  68.428  1.00  0.00    -0.169 A  
HETATM   13  C   UNL     1     -12.000  13.237  69.123  1.00  0.00    -0.296 C  
HETATM   14  C   UNL     1      -8.915  16.085  68.599  1.00  0.00    -0.210 A  
HETATM   15  C   UNL     1     -10.943  14.194  68.956  1.00  0.00    -0.286 A  
HETATM   16  C   UNL     1     -11.200  15.563  69.147  1.00  0.00    -0.300 A  
HETATM   17  C   UNL     1     -10.182  16.513  68.980  1.00  0.00    -0.285 A  
BRANCH   7  18
HETATM   18  C   UNL     1      -7.768  17.716  67.019  1.00  0.00    -0.234 A  
HETATM   19  C   UNL     1      -8.926  17.668  66.215  1.00  0.00    -0.211 A  
HETATM   20  F   UNL     1      -8.129  20.074  63.621  1.00  0.00     2.991 F  
HETATM   21  C   UNL     1      -8.012  19.311  64.715  1.00  0.00     2.534 A  
HETATM   22  C   UNL     1      -6.863  19.392  65.489  1.00  0.00    -0.303 A  
HETATM   23  C   UNL     1      -6.741  18.599  66.633  1.00  0.00    -0.218 A  
HETATM   24  C   UNL     1      -9.044  18.453  65.066  1.00  0.00     3.127 A  
ENDBRANCH   7  18
ENDBRANCH   6   7
ENDBRANCH   5   6
ENDBRANCH   4   5
ENDBRANCH   2   4
TORSDOF 5
ENDMDL
MODEL      174
REMARK 921   NORMALIZED FREE ENERGY PREDICTED BY IDOCK:   18.59 KCAL/MOL
REMARK 922        TOTAL FREE ENERGY PREDICTED BY IDOCK:   23.15 KCAL/MOL
REMARK 923 INTER-LIGAND FREE ENERGY PREDICTED BY IDOCK:   20.71 KCAL/MOL
REMARK 924 INTRA-LIGAND FREE ENERGY PREDICTED BY IDOCK:    2.44 KCAL/MOL
REMARK 927      BINDING AFFINITY PREDICTED BY RF-SCORE:    0.00 PKD
ROOT
HETATM    1  C   UNL     1     -11.130  13.864  70.492  1.00  0.00     0.577 C  
HETATM    2  N   UNL     1      -9.812  13.235  70.621  1.00  0.00     4.648 NA 
HETATM    3  C   UNL     1      -9.896  11.834  70.206  1.00  0.00     3.092 C  
ENDROOT
BRANCH   2   4
HETATM    4  C   UNL     1      -8.811  13.996  69.851  1.00  0.00     1.580 C  
BRANCH   4   5
HETATM    5  C   UNL     1      -7.975  13.117  68.905  1.00  0.00     0.159 C  
BRANCH   5   6
HETATM    6  C   UNL     1      -8.816  12.588  67.732  1.00  0.00    -0.178 C  
BRANCH   6   7
HETATM    7  C   UNL     1      -8.434  11.157  67.272  1.00  0.00    -0.137 C  
HETATM    8  O   UNL     1      -7.060  11.241  66.781  1.00  0.00    -0.133 OA 
HETATM    9  N   UNL     1      -7.111   6.195  71.849  1.00  0.00    -0.084 NA 
HETATM   10  C   UNL     1      -6.725   8.560  69.280  1.00  0.00    -0.050 A  
HETATM   11  C   UNL     1      -6.238  10.205  67.350  1.00  0.00    -0.058 C  
HETATM   12  C   UNL     1      -7.077   9.569  68.390  1.00  0.00    -0.071 A  
HETATM   13  C   UNL     1      -7.369   7.047  71.105  1.00  0.00    -0.076 C  
HETATM   14  C   UNL     1      -8.350  10.126  68.373  1.00  0.00    -0.113 A  
HETATM   15  C   UNL     1      -7.688   8.101  70.183  1.00  0.00    -0.085 A  
HETATM   16  C   UNL     1      -8.973   8.668  70.184  1.00  0.00    -0.157 A  
HETATM   17  C   UNL     1      -9.305   9.692  69.285  1.00  0.00    -0.184 A  
BRANCH   7  18
HETATM   18  C   UNL     1      -9.359  10.729  66.117  1.00  0.00    -0.209 A  
HETATM   19  C   UNL     1     -10.611  10.131  66.373  1.00  0.00    -0.155 A  
HETATM   20  F   UNL     1     -11.913   9.667  63.020  1.00  0.00     5.648 F  
HETATM   21  C   UNL     1     -11.088  10.006  64.019  1.00  0.00     3.517 A  
HETATM   22  C   UNL     1      -9.869  10.603  63.730  1.00  0.00    -0.394 A  
HETATM   23  C   UNL     1      -9.009  10.961  64.772  1.00  0.00    -0.155 A  
HETATM   24  C   UNL     1     -11.465   9.763  65.331  1.00  0.00     3.730 A  
ENDBRANCH   7  18
ENDBRANCH   6   7
ENDBRANCH   5   6
ENDBRANCH   4   5
ENDBRANCH   2   4
TORSDOF 5
ENDMDL
MODEL      175
REMARK 921   NORMALIZED FREE ENERGY PREDICTED BY IDOCK:   60.44 KCAL/MOL
REMARK 922        TOTAL FREE ENERGY PREDICTED BY IDOCK:   77.23 KCAL/MOL
REMARK 923 INTER-LIGAND FREE ENERGY PREDICTED BY IDOCK:   60.66 KCAL/MOL
REMARK 924 INTRA-LIGAND FREE ENERGY PREDICTED BY IDOCK:   16.57 KCAL/MOL
REMARK 927      BINDING AFFINITY PREDICTED BY RF-SCORE:    0.00 PKD
ROOT
HETATM    1  C   UNL     1      -7.318  14.752  73.765  1.00  0.00     5.782 C  
HETATM    2  N   UNL     1      -5.857  14.679  73.661  1.00  0.00     0.054 NA 
HETATM    3  C   UNL     1      -5.441  13.276  73.618  1.00  0.00     0.321 C  
ENDROOT
BRANCH   2   4
HETATM    4  C   UNL     1      -5.395  15.443  72.487  1.00  0.00     0.366 C  
BRANCH   4   5
HETATM    5  C   UNL     1      -5.141  14.565  71.251  1.00  0.00    -0.135 C  
BRANCH   5   6
HETATM    6  C   UNL     1      -5.933  13.249  71.317  1.00  0.00     0.267 C  
BRANCH   6   7
HETATM    7  C   UNL     1      -7.468  13.437  71.422  1.00  0.00     5.719 C  
HETATM    8  O   UNL     1      -7.741  13.769  72.819  1.00  0.00     5.663 OA 
HETATM    9  N   UNL     1     -10.540  19.044  68.884  1.00  0.00     0.160 NA 
HETATM   10  C   UNL     1      -9.344  16.613  71.121  1.00  0.00     5.019 A  
HETATM   11  C   UNL     1      -8.592  14.925  72.925  1.00  0.00     8.753 C  
HETATM   12  C   UNL     1      -8.694  15.460  71.548  1.00  0.00     4.539 A  
HETATM   13  C   UNL     1      -9.993  18.099  69.275  1.00  0.00    -0.074 C  
HETATM   14  C   UNL     1      -8.028  14.619  70.666  1.00  0.00     1.720 A  
HETATM   15  C   UNL     1      -9.318  16.928  69.758  1.00  0.00     0.718 A  
HETATM   16  C   UNL     1      -8.633  16.091  68.860  1.00  0.00    -0.229 A  
HETATM   17  C   UNL     1      -7.975  14.939  69.314  1.00  0.00    -0.153 A  
BRANCH   7  18
HETATM   18  C   UNL     1      -8.170  12.111  71.071  1.00  0.00     8.974 A  
HETATM   19  C   UNL     1      -8.930  11.984  69.889  1.00  0.00     2.612 A  
HETATM   20  F   UNL     1      -9.978   8.516  70.050  1.00  0.00    -0.179 F  
HETATM   21  C   UNL     1      -9.398   9.677  70.381  1.00  0.00    -0.211 A  
HETATM   22  C   UNL     1      -8.647   9.762  71.545  1.00  0.00     1.504 A  
HETATM   23  C   UNL     1      -8.038  10.972  71.889  1.00  0.00     9.451 A  
HETATM   24  C   UNL     1      -9.547  10.777  69.551  1.00  0.00     0.023 A  
ENDBRANCH   7  18
ENDBRANCH   6   7
ENDBRANCH   5   6
ENDBRANCH   4   5
ENDBRANCH   2   4
TORSDOF 5
ENDMDL
